MODEL 1
REMARK VINA RESULT:    -7.729      0.000      0.000
REMARK INTER + INTRA:         -11.746
REMARK INTER:                 -10.891
REMARK INTRA:                  -0.855
REMARK UNBOUND:                -0.855
REMARK  Name = 
REMARK  7 active torsions:
REMARK  status: ('A' for Active; 'I' for Inactive)
REMARK    1  A    between atoms: C_2  and  C_3
REMARK    2  A    between atoms: C_6  and  C_7
REMARK    3  A    between atoms: N_9  and  C_10
REMARK    4  A    between atoms: C_10  and  C_11
REMARK    5  A    between atoms: C_14  and  C_15
REMARK    6  A    between atoms: C_15  and  N_16
REMARK    7  A    between atoms: C_17  and  C_19
REMARK                            x       y       z     vdW  Elec       q    Type
REMARK                         _______ _______ _______ _____ _____    ______ ____
ROOT
ATOM      1  C   UNL     1      46.206   5.168  13.833  0.00  0.00    +0.000 A 
ATOM      2  C   UNL     1      46.723   4.613  15.012  0.00  0.00    +0.000 A 
ATOM      3  C   UNL     1      47.820   5.195  15.667  0.00  0.00    +0.000 A 
ATOM      4  C   UNL     1      48.415   6.360  15.165  0.00  0.00    +0.000 A 
ATOM      5  C   UNL     1      47.905   6.908  13.980  0.00  0.00    +0.000 A 
ATOM      6  C   UNL     1      46.804   6.331  13.331  0.00  0.00    +0.000 A 
ENDROOT
BRANCH   1   7
ATOM      7  C   UNL     1      45.045   4.512  13.125  0.00  0.00    +0.000 C 
BRANCH   7  10
ATOM      8  C   UNL     1      44.401   3.777  10.858  0.00  0.00    +0.000 C 
ATOM      9  O   UNL     1      43.198   3.840  11.116  0.00  0.00    +0.000 OA
ATOM     10  N   UNL     1      45.373   4.093  11.783  0.00  0.00    +0.000 N 
ATOM     11  H   UNL     1      46.344   3.985  11.515  0.00  0.00    +0.000 HD
BRANCH   8  15
ATOM     12  C   UNL     1      45.901   2.011   8.147  0.00  0.00    +0.000 A 
ATOM     13  C   UNL     1      45.584   3.136   7.424  0.00  0.00    +0.000 A 
ATOM     14  C   UNL     1      44.951   4.018   8.339  0.00  0.00    +0.000 A 
ATOM     15  C   UNL     1      44.918   3.373   9.565  0.00  0.00    +0.000 A 
ATOM     16  O   UNL     1      45.508   2.139   9.441  0.00  0.00    +0.000 OA
BRANCH  12  18
ATOM     17  N   UNL     1      47.062  -0.186   7.453  0.00  0.00    +0.000 NA
ATOM     18  C   UNL     1      46.538   0.800   7.775  0.00  0.00    +0.000 C 
ENDBRANCH  12  18
ENDBRANCH   8  15
ENDBRANCH   7  10
ENDBRANCH   1   7
BRANCH   4  19
ATOM     19  C   UNL     1      49.577   7.025  15.868  0.00  0.00    +0.000 C 
BRANCH  19  20
ATOM     20  N   UNL     1      50.542   6.071  16.350  0.00  0.00    +0.000 N 
ATOM     21  C   UNL     1      50.733   5.858  17.693  0.00  0.00    +0.000 C 
ATOM     22  O   UNL     1      50.079   6.446  18.553  0.00  0.00    +0.000 OA
ATOM     23  H   UNL     1      51.282   5.807  15.706  0.00  0.00    +0.000 HD
BRANCH  21  24
ATOM     24  C   UNL     1      51.724   4.835  18.050  0.00  0.00    +0.000 A 
ATOM     25  C   UNL     1      52.918   5.199  18.660  0.00  0.00    +0.000 A 
ATOM     26  S   UNL     1      53.920   3.872  19.047  0.00  0.00    +0.000 S 
ATOM     27  C   UNL     1      52.818   2.769  18.366  0.00  0.00    +0.000 A 
ATOM     28  N   UNL     1      53.084   1.435  18.337  0.00  0.00    +0.000 NA
ATOM     29  C   UNL     1      52.173   0.721  17.764  0.00  0.00    +0.000 A 
ATOM     30  N   UNL     1      51.015   1.218  17.223  0.00  0.00    +0.000 N 
ATOM     31  C   UNL     1      50.686   2.551  17.266  0.00  0.00    +0.000 A 
ATOM     32  O   UNL     1      49.611   2.953  16.834  0.00  0.00    +0.000 OA
ATOM     33  C   UNL     1      51.690   3.402  17.876  0.00  0.00    +0.000 A 
ATOM     34  H   UNL     1      50.334   0.606  16.803  0.00  0.00    +0.000 HD
ENDBRANCH  21  24
ENDBRANCH  19  20
ENDBRANCH   4  19
TORSDOF 7
ENDMDL
MODEL 2
REMARK VINA RESULT:    -7.455      2.766      3.176
REMARK INTER + INTRA:         -11.361
REMARK INTER:                 -10.265
REMARK INTRA:                  -1.096
REMARK UNBOUND:                -0.855
REMARK  Name = 
REMARK  7 active torsions:
REMARK  status: ('A' for Active; 'I' for Inactive)
REMARK    1  A    between atoms: C_2  and  C_3
REMARK    2  A    between atoms: C_6  and  C_7
REMARK    3  A    between atoms: N_9  and  C_10
REMARK    4  A    between atoms: C_10  and  C_11
REMARK    5  A    between atoms: C_14  and  C_15
REMARK    6  A    between atoms: C_15  and  N_16
REMARK    7  A    between atoms: C_17  and  C_19
REMARK                            x       y       z     vdW  Elec       q    Type
REMARK                         _______ _______ _______ _____ _____    ______ ____
ROOT
ATOM      1  C   UNL     1      46.081   7.130  11.799  0.00  0.00    +0.000 A 
ATOM      2  C   UNL     1      47.390   6.628  11.817  0.00  0.00    +0.000 A 
ATOM      3  C   UNL     1      48.372   7.195  12.645  0.00  0.00    +0.000 A 
ATOM      4  C   UNL     1      48.061   8.269  13.490  0.00  0.00    +0.000 A 
ATOM      5  C   UNL     1      46.755   8.777  13.462  0.00  0.00    +0.000 A 
ATOM      6  C   UNL     1      45.772   8.206  12.641  0.00  0.00    +0.000 A 
ENDROOT
BRANCH   1   7
ATOM      7  C   UNL     1      45.045   6.528  10.879  0.00  0.00    +0.000 C 
BRANCH   7  10
ATOM      8  C   UNL     1      44.927   4.512   9.459  0.00  0.00    +0.000 C 
ATOM      9  O   UNL     1      43.786   4.242   9.835  0.00  0.00    +0.000 OA
ATOM     10  N   UNL     1      45.615   5.616   9.917  0.00  0.00    +0.000 N 
ATOM     11  H   UNL     1      46.564   5.758   9.592  0.00  0.00    +0.000 HD
BRANCH   8  15
ATOM     12  C   UNL     1      46.465   1.844   7.660  0.00  0.00    +0.000 A 
ATOM     13  C   UNL     1      46.878   2.843   6.811  0.00  0.00    +0.000 A 
ATOM     14  C   UNL     1      46.362   4.049   7.353  0.00  0.00    +0.000 A 
ATOM     15  C   UNL     1      45.661   3.710   8.499  0.00  0.00    +0.000 A 
ATOM     16  O   UNL     1      45.731   2.351   8.685  0.00  0.00    +0.000 OA
BRANCH  12  18
ATOM     17  N   UNL     1      46.820  -0.711   7.614  0.00  0.00    +0.000 NA
ATOM     18  C   UNL     1      46.670   0.442   7.636  0.00  0.00    +0.000 C 
ENDBRANCH  12  18
ENDBRANCH   8  15
ENDBRANCH   7  10
ENDBRANCH   1   7
BRANCH   4  19
ATOM     19  C   UNL     1      49.090   8.877  14.414  0.00  0.00    +0.000 C 
BRANCH  19  20
ATOM     20  N   UNL     1      49.259   8.112  15.623  0.00  0.00    +0.000 N 
ATOM     21  C   UNL     1      48.591   8.437  16.778  0.00  0.00    +0.000 C 
ATOM     22  O   UNL     1      47.798   9.375  16.839  0.00  0.00    +0.000 OA
ATOM     23  H   UNL     1      50.101   7.548  15.690  0.00  0.00    +0.000 HD
BRANCH  21  24
ATOM     24  C   UNL     1      48.827   7.556  17.929  0.00  0.00    +0.000 A 
ATOM     25  C   UNL     1      49.182   8.093  19.160  0.00  0.00    +0.000 A 
ATOM     26  S   UNL     1      49.363   6.923  20.390  0.00  0.00    +0.000 S 
ATOM     27  C   UNL     1      49.026   5.653  19.308  0.00  0.00    +0.000 A 
ATOM     28  N   UNL     1      49.046   4.356  19.717  0.00  0.00    +0.000 NA
ATOM     29  C   UNL     1      48.800   3.498  18.784  0.00  0.00    +0.000 A 
ATOM     30  N   UNL     1      48.527   3.818  17.479  0.00  0.00    +0.000 N 
ATOM     31  C   UNL     1      48.455   5.114  17.031  0.00  0.00    +0.000 A 
ATOM     32  O   UNL     1      48.142   5.369  15.873  0.00  0.00    +0.000 OA
ATOM     33  C   UNL     1      48.751   6.118  18.035  0.00  0.00    +0.000 A 
ATOM     34  H   UNL     1      48.326   3.101  16.800  0.00  0.00    +0.000 HD
ENDBRANCH  21  24
ENDBRANCH  19  20
ENDBRANCH   4  19
TORSDOF 7
ENDMDL
MODEL 3
REMARK VINA RESULT:    -7.433      1.489      1.961
REMARK INTER + INTRA:         -11.330
REMARK INTER:                 -10.315
REMARK INTRA:                  -1.015
REMARK UNBOUND:                -0.855
REMARK  Name = 
REMARK  7 active torsions:
REMARK  status: ('A' for Active; 'I' for Inactive)
REMARK    1  A    between atoms: C_2  and  C_3
REMARK    2  A    between atoms: C_6  and  C_7
REMARK    3  A    between atoms: N_9  and  C_10
REMARK    4  A    between atoms: C_10  and  C_11
REMARK    5  A    between atoms: C_14  and  C_15
REMARK    6  A    between atoms: C_15  and  N_16
REMARK    7  A    between atoms: C_17  and  C_19
REMARK                            x       y       z     vdW  Elec       q    Type
REMARK                         _______ _______ _______ _____ _____    ______ ____
ROOT
ATOM      1  C   UNL     1      45.904   6.914  12.105  0.00  0.00    +0.000 A 
ATOM      2  C   UNL     1      45.897   8.252  12.524  0.00  0.00    +0.000 A 
ATOM      3  C   UNL     1      46.788   8.708  13.507  0.00  0.00    +0.000 A 
ATOM      4  C   UNL     1      47.724   7.838  14.083  0.00  0.00    +0.000 A 
ATOM      5  C   UNL     1      47.723   6.498  13.671  0.00  0.00    +0.000 A 
ATOM      6  C   UNL     1      46.838   6.044  12.683  0.00  0.00    +0.000 A 
ENDROOT
BRANCH   1   7
ATOM      7  C   UNL     1      44.918   6.433  11.068  0.00  0.00    +0.000 C 
BRANCH   7  10
ATOM      8  C   UNL     1      44.859   4.438   9.615  0.00  0.00    +0.000 C 
ATOM      9  O   UNL     1      43.724   4.132   9.982  0.00  0.00    +0.000 OA
ATOM     10  N   UNL     1      45.515   5.552  10.093  0.00  0.00    +0.000 N 
ATOM     11  H   UNL     1      46.462   5.724   9.776  0.00  0.00    +0.000 HD
BRANCH   8  15
ATOM     12  C   UNL     1      46.456   1.837   7.769  0.00  0.00    +0.000 A 
ATOM     13  C   UNL     1      46.873   2.864   6.956  0.00  0.00    +0.000 A 
ATOM     14  C   UNL     1      46.335   4.049   7.523  0.00  0.00    +0.000 A 
ATOM     15  C   UNL     1      45.617   3.670   8.646  0.00  0.00    +0.000 A 
ATOM     16  O   UNL     1      45.698   2.308   8.794  0.00  0.00    +0.000 OA
BRANCH  12  18
ATOM     17  N   UNL     1      46.850  -0.709   7.643  0.00  0.00    +0.000 NA
ATOM     18  C   UNL     1      46.676   0.438   7.709  0.00  0.00    +0.000 C 
ENDBRANCH  12  18
ENDBRANCH   8  15
ENDBRANCH   7  10
ENDBRANCH   1   7
BRANCH   4  19
ATOM     19  C   UNL     1      48.716   8.310  15.121  0.00  0.00    +0.000 C 
BRANCH  19  20
ATOM     20  N   UNL     1      49.580   7.250  15.573  0.00  0.00    +0.000 N 
ATOM     21  C   UNL     1      49.904   7.105  16.899  0.00  0.00    +0.000 C 
ATOM     22  O   UNL     1      49.459   7.848  17.772  0.00  0.00    +0.000 OA
ATOM     23  H   UNL     1      50.185   6.827  14.875  0.00  0.00    +0.000 HD
BRANCH  21  24
ATOM     24  C   UNL     1      50.768   5.964  17.231  0.00  0.00    +0.000 A 
ATOM     25  C   UNL     1      52.081   6.173  17.633  0.00  0.00    +0.000 A 
ATOM     26  S   UNL     1      52.912   4.735  18.026  0.00  0.00    +0.000 S 
ATOM     27  C   UNL     1      51.563   3.779  17.623  0.00  0.00    +0.000 A 
ATOM     28  N   UNL     1      51.613   2.421  17.706  0.00  0.00    +0.000 NA
ATOM     29  C   UNL     1      50.527   1.824  17.341  0.00  0.00    +0.000 A 
ATOM     30  N   UNL     1      49.393   2.461  16.908  0.00  0.00    +0.000 N 
ATOM     31  C   UNL     1      49.284   3.828  16.849  0.00  0.00    +0.000 A 
ATOM     32  O   UNL     1      48.231   4.367  16.522  0.00  0.00    +0.000 OA
ATOM     33  C   UNL     1      50.486   4.548  17.222  0.00  0.00    +0.000 A 
ATOM     34  H   UNL     1      48.569   1.938  16.653  0.00  0.00    +0.000 HD
ENDBRANCH  21  24
ENDBRANCH  19  20
ENDBRANCH   4  19
TORSDOF 7
ENDMDL
MODEL 4
REMARK VINA RESULT:    -7.258      3.873     10.137
REMARK INTER + INTRA:         -11.083
REMARK INTER:                 -10.225
REMARK INTRA:                  -0.858
REMARK UNBOUND:                -0.855
REMARK  Name = 
REMARK  7 active torsions:
REMARK  status: ('A' for Active; 'I' for Inactive)
REMARK    1  A    between atoms: C_2  and  C_3
REMARK    2  A    between atoms: C_6  and  C_7
REMARK    3  A    between atoms: N_9  and  C_10
REMARK    4  A    between atoms: C_10  and  C_11
REMARK    5  A    between atoms: C_14  and  C_15
REMARK    6  A    between atoms: C_15  and  N_16
REMARK    7  A    between atoms: C_17  and  C_19
REMARK                            x       y       z     vdW  Elec       q    Type
REMARK                         _______ _______ _______ _____ _____    ______ ____
ROOT
ATOM      1  C   UNL     1      51.353   3.405  17.979  0.00  0.00    +0.000 A 
ATOM      2  C   UNL     1      50.779   2.287  17.358  0.00  0.00    +0.000 A 
ATOM      3  C   UNL     1      49.416   2.263  17.024  0.00  0.00    +0.000 A 
ATOM      4  C   UNL     1      48.597   3.370  17.287  0.00  0.00    +0.000 A 
ATOM      5  C   UNL     1      49.170   4.484  17.917  0.00  0.00    +0.000 A 
ATOM      6  C   UNL     1      50.533   4.510  18.243  0.00  0.00    +0.000 A 
ENDROOT
BRANCH   1   7
ATOM      7  C   UNL     1      52.815   3.401  18.359  0.00  0.00    +0.000 C 
BRANCH   7  10
ATOM      8  C   UNL     1      54.148   1.336  18.130  0.00  0.00    +0.000 C 
ATOM      9  O   UNL     1      54.616   1.688  17.047  0.00  0.00    +0.000 OA
ATOM     10  N   UNL     1      53.262   2.117  18.842  0.00  0.00    +0.000 N 
ATOM     11  H   UNL     1      52.889   1.749  19.709  0.00  0.00    +0.000 HD
BRANCH   8  15
ATOM     12  C   UNL     1      54.114  -1.998  19.398  0.00  0.00    +0.000 A 
ATOM     13  C   UNL     1      55.367  -1.681  19.865  0.00  0.00    +0.000 A 
ATOM     14  C   UNL     1      55.603  -0.341  19.463  0.00  0.00    +0.000 A 
ATOM     15  C   UNL     1      54.479   0.077  18.770  0.00  0.00    +0.000 A 
ATOM     16  O   UNL     1      53.564  -0.947  18.735  0.00  0.00    +0.000 OA
BRANCH  12  18
ATOM     17  N   UNL     1      52.731  -4.170  19.564  0.00  0.00    +0.000 NA
ATOM     18  C   UNL     1      53.346  -3.185  19.488  0.00  0.00    +0.000 C 
ENDBRANCH  12  18
ENDBRANCH   8  15
ENDBRANCH   7  10
ENDBRANCH   1   7
BRANCH   4  19
ATOM     19  C   UNL     1      47.134   3.384  16.908  0.00  0.00    +0.000 C 
BRANCH  19  20
ATOM     20  N   UNL     1      46.835   4.388  15.919  0.00  0.00    +0.000 N 
ATOM     21  C   UNL     1      46.972   4.136  14.576  0.00  0.00    +0.000 C 
ATOM     22  O   UNL     1      47.329   3.042  14.144  0.00  0.00    +0.000 OA
ATOM     23  H   UNL     1      46.837   5.353  16.235  0.00  0.00    +0.000 HD
BRANCH  21  24
ATOM     24  C   UNL     1      46.604   5.234  13.673  0.00  0.00    +0.000 A 
ATOM     25  C   UNL     1      47.503   6.261  13.415  0.00  0.00    +0.000 A 
ATOM     26  S   UNL     1      46.920   7.417  12.303  0.00  0.00    +0.000 S 
ATOM     27  C   UNL     1      45.426   6.615  12.167  0.00  0.00    +0.000 A 
ATOM     28  N   UNL     1      44.433   7.106  11.377  0.00  0.00    +0.000 NA
ATOM     29  C   UNL     1      43.344   6.411  11.393  0.00  0.00    +0.000 A 
ATOM     30  N   UNL     1      43.161   5.263  12.120  0.00  0.00    +0.000 N 
ATOM     31  C   UNL     1      44.148   4.709  12.897  0.00  0.00    +0.000 A 
ATOM     32  O   UNL     1      43.973   3.644  13.481  0.00  0.00    +0.000 OA
ATOM     33  C   UNL     1      45.384   5.466  12.937  0.00  0.00    +0.000 A 
ATOM     34  H   UNL     1      42.291   4.754  12.077  0.00  0.00    +0.000 HD
ENDBRANCH  21  24
ENDBRANCH  19  20
ENDBRANCH   4  19
TORSDOF 7
ENDMDL
MODEL 5
REMARK VINA RESULT:    -7.011      2.094      3.271
REMARK INTER + INTRA:         -10.734
REMARK INTER:                  -9.877
REMARK INTRA:                  -0.857
REMARK UNBOUND:                -0.855
REMARK  Name = 
REMARK  7 active torsions:
REMARK  status: ('A' for Active; 'I' for Inactive)
REMARK    1  A    between atoms: C_2  and  C_3
REMARK    2  A    between atoms: C_6  and  C_7
REMARK    3  A    between atoms: N_9  and  C_10
REMARK    4  A    between atoms: C_10  and  C_11
REMARK    5  A    between atoms: C_14  and  C_15
REMARK    6  A    between atoms: C_15  and  N_16
REMARK    7  A    between atoms: C_17  and  C_19
REMARK                            x       y       z     vdW  Elec       q    Type
REMARK                         _______ _______ _______ _____ _____    ______ ____
ROOT
ATOM      1  C   UNL     1      47.753   5.941  14.543  0.00  0.00    +0.000 A 
ATOM      2  C   UNL     1      48.632   6.399  15.535  0.00  0.00    +0.000 A 
ATOM      3  C   UNL     1      48.864   5.652  16.700  0.00  0.00    +0.000 A 
ATOM      4  C   UNL     1      48.233   4.414  16.892  0.00  0.00    +0.000 A 
ATOM      5  C   UNL     1      47.346   3.962  15.906  0.00  0.00    +0.000 A 
ATOM      6  C   UNL     1      47.121   4.706  14.738  0.00  0.00    +0.000 A 
ENDROOT
BRANCH   1   7
ATOM      7  C   UNL     1      47.492   6.773  13.311  0.00  0.00    +0.000 C 
BRANCH   7  10
ATOM      8  C   UNL     1      45.628   6.330  11.754  0.00  0.00    +0.000 C 
ATOM      9  O   UNL     1      44.967   7.276  12.184  0.00  0.00    +0.000 OA
ATOM     10  N   UNL     1      46.877   6.017  12.246  0.00  0.00    +0.000 N 
ATOM     11  H   UNL     1      47.350   5.203  11.870  0.00  0.00    +0.000 HD
BRANCH   8  15
ATOM     12  C   UNL     1      45.331   4.405   8.766  0.00  0.00    +0.000 A 
ATOM     13  C   UNL     1      44.104   4.059   9.280  0.00  0.00    +0.000 A 
ATOM     14  C   UNL     1      43.998   4.740  10.521  0.00  0.00    +0.000 A 
ATOM     15  C   UNL     1      45.171   5.458  10.689  0.00  0.00    +0.000 A 
ATOM     16  O   UNL     1      45.987   5.249   9.605  0.00  0.00    +0.000 OA
BRANCH  12  18
ATOM     17  N   UNL     1      46.543   3.741   6.588  0.00  0.00    +0.000 NA
ATOM     18  C   UNL     1      45.988   4.037   7.566  0.00  0.00    +0.000 C 
ENDBRANCH  12  18
ENDBRANCH   8  15
ENDBRANCH   7  10
ENDBRANCH   1   7
BRANCH   4  19
ATOM     19  C   UNL     1      48.489   3.574  18.122  0.00  0.00    +0.000 C 
BRANCH  19  20
ATOM     20  N   UNL     1      49.876   3.210  18.256  0.00  0.00    +0.000 N 
ATOM     21  C   UNL     1      50.469   2.314  17.400  0.00  0.00    +0.000 C 
ATOM     22  O   UNL     1      49.863   1.796  16.465  0.00  0.00    +0.000 OA
ATOM     23  H   UNL     1      50.304   3.373  19.163  0.00  0.00    +0.000 HD
BRANCH  21  24
ATOM     24  C   UNL     1      51.897   2.055  17.626  0.00  0.00    +0.000 A 
ATOM     25  C   UNL     1      52.366   0.750  17.716  0.00  0.00    +0.000 A 
ATOM     26  S   UNL     1      54.057   0.645  17.927  0.00  0.00    +0.000 S 
ATOM     27  C   UNL     1      54.215   2.339  17.957  0.00  0.00    +0.000 A 
ATOM     28  N   UNL     1      55.426   2.930  18.142  0.00  0.00    +0.000 NA
ATOM     29  C   UNL     1      55.392   4.221  18.172  0.00  0.00    +0.000 A 
ATOM     30  N   UNL     1      54.257   4.976  18.026  0.00  0.00    +0.000 N 
ATOM     31  C   UNL     1      53.021   4.425  17.797  0.00  0.00    +0.000 A 
ATOM     32  O   UNL     1      52.037   5.131  17.603  0.00  0.00    +0.000 OA
ATOM     33  C   UNL     1      52.999   2.975  17.781  0.00  0.00    +0.000 A 
ATOM     34  H   UNL     1      54.298   5.983  18.043  0.00  0.00    +0.000 HD
ENDBRANCH  21  24
ENDBRANCH  19  20
ENDBRANCH   4  19
TORSDOF 7
ENDMDL
MODEL 6
REMARK VINA RESULT:    -6.887      3.786      9.147
REMARK INTER + INTRA:         -10.560
REMARK INTER:                  -9.496
REMARK INTRA:                  -1.065
REMARK UNBOUND:                -0.855
REMARK  Name = 
REMARK  7 active torsions:
REMARK  status: ('A' for Active; 'I' for Inactive)
REMARK    1  A    between atoms: C_2  and  C_3
REMARK    2  A    between atoms: C_6  and  C_7
REMARK    3  A    between atoms: N_9  and  C_10
REMARK    4  A    between atoms: C_10  and  C_11
REMARK    5  A    between atoms: C_14  and  C_15
REMARK    6  A    between atoms: C_15  and  N_16
REMARK    7  A    between atoms: C_17  and  C_19
REMARK                            x       y       z     vdW  Elec       q    Type
REMARK                         _______ _______ _______ _____ _____    ______ ____
ROOT
ATOM      1  C   UNL     1      49.784   4.750  17.606  0.00  0.00    +0.000 A 
ATOM      2  C   UNL     1      48.541   4.500  17.008  0.00  0.00    +0.000 A 
ATOM      3  C   UNL     1      48.046   5.329  15.989  0.00  0.00    +0.000 A 
ATOM      4  C   UNL     1      48.796   6.422  15.531  0.00  0.00    +0.000 A 
ATOM      5  C   UNL     1      50.034   6.677  16.137  0.00  0.00    +0.000 A 
ATOM      6  C   UNL     1      50.531   5.843  17.148  0.00  0.00    +0.000 A 
ENDROOT
BRANCH   1   7
ATOM      7  C   UNL     1      50.286   3.864  18.721  0.00  0.00    +0.000 C 
BRANCH   7  10
ATOM      8  C   UNL     1      51.623   2.075  17.670  0.00  0.00    +0.000 C 
ATOM      9  O   UNL     1      50.624   1.511  17.223  0.00  0.00    +0.000 OA
ATOM     10  N   UNL     1      51.547   3.235  18.411  0.00  0.00    +0.000 N 
ATOM     11  H   UNL     1      52.407   3.626  18.779  0.00  0.00    +0.000 HD
BRANCH   8  15
ATOM     12  C   UNL     1      54.493   0.133  16.824  0.00  0.00    +0.000 A 
ATOM     13  C   UNL     1      55.191   1.209  17.317  0.00  0.00    +0.000 A 
ATOM     14  C   UNL     1      54.211   2.148  17.734  0.00  0.00    +0.000 A 
ATOM     15  C   UNL     1      52.973   1.587  17.463  0.00  0.00    +0.000 A 
ATOM     16  O   UNL     1      53.153   0.345  16.906  0.00  0.00    +0.000 OA
BRANCH  12  18
ATOM     17  N   UNL     1      55.278  -2.113  15.828  0.00  0.00    +0.000 NA
ATOM     18  C   UNL     1      54.926  -1.096  16.268  0.00  0.00    +0.000 C 
ENDBRANCH  12  18
ENDBRANCH   8  15
ENDBRANCH   7  10
ENDBRANCH   1   7
BRANCH   4  19
ATOM     19  C   UNL     1      48.302   7.312  14.414  0.00  0.00    +0.000 C 
BRANCH  19  20
ATOM     20  N   UNL     1      47.047   6.860  13.870  0.00  0.00    +0.000 N 
ATOM     21  C   UNL     1      46.839   6.782  12.514  0.00  0.00    +0.000 C 
ATOM     22  O   UNL     1      47.712   7.065  11.696  0.00  0.00    +0.000 OA
ATOM     23  H   UNL     1      46.240   6.913  14.483  0.00  0.00    +0.000 HD
BRANCH  21  24
ATOM     24  C   UNL     1      45.527   6.275  12.091  0.00  0.00    +0.000 A 
ATOM     25  C   UNL     1      44.585   7.138  11.549  0.00  0.00    +0.000 A 
ATOM     26  S   UNL     1      43.143   6.361  11.068  0.00  0.00    +0.000 S 
ATOM     27  C   UNL     1      43.707   4.852  11.616  0.00  0.00    +0.000 A 
ATOM     28  N   UNL     1      42.933   3.737  11.529  0.00  0.00    +0.000 NA
ATOM     29  C   UNL     1      43.477   2.670  12.010  0.00  0.00    +0.000 A 
ATOM     30  N   UNL     1      44.731   2.613  12.563  0.00  0.00    +0.000 N 
ATOM     31  C   UNL     1      45.563   3.703  12.634  0.00  0.00    +0.000 A 
ATOM     32  O   UNL     1      46.704   3.603  13.073  0.00  0.00    +0.000 OA
ATOM     33  C   UNL     1      44.988   4.936  12.132  0.00  0.00    +0.000 A 
ATOM     34  H   UNL     1      45.108   1.743  12.907  0.00  0.00    +0.000 HD
ENDBRANCH  21  24
ENDBRANCH  19  20
ENDBRANCH   4  19
TORSDOF 7
ENDMDL
MODEL 7
REMARK VINA RESULT:    -6.510      5.749      8.852
REMARK INTER + INTRA:         -10.029
REMARK INTER:                  -9.227
REMARK INTRA:                  -0.802
REMARK UNBOUND:                -0.855
REMARK  Name = 
REMARK  7 active torsions:
REMARK  status: ('A' for Active; 'I' for Inactive)
REMARK    1  A    between atoms: C_2  and  C_3
REMARK    2  A    between atoms: C_6  and  C_7
REMARK    3  A    between atoms: N_9  and  C_10
REMARK    4  A    between atoms: C_10  and  C_11
REMARK    5  A    between atoms: C_14  and  C_15
REMARK    6  A    between atoms: C_15  and  N_16
REMARK    7  A    between atoms: C_17  and  C_19
REMARK                            x       y       z     vdW  Elec       q    Type
REMARK                         _______ _______ _______ _____ _____    ______ ____
ROOT
ATOM      1  C   UNL     1      50.401   8.554  12.827  0.00  0.00    +0.000 A 
ATOM      2  C   UNL     1      49.620   9.420  13.605  0.00  0.00    +0.000 A 
ATOM      3  C   UNL     1      48.225   9.273  13.674  0.00  0.00    +0.000 A 
ATOM      4  C   UNL     1      47.580   8.241  12.978  0.00  0.00    +0.000 A 
ATOM      5  C   UNL     1      48.362   7.383  12.192  0.00  0.00    +0.000 A 
ATOM      6  C   UNL     1      49.755   7.525  12.130  0.00  0.00    +0.000 A 
ENDROOT
BRANCH   1   7
ATOM      7  C   UNL     1      51.896   8.746  12.740  0.00  0.00    +0.000 C 
BRANCH   7  10
ATOM      8  C   UNL     1      52.701   7.952  10.545  0.00  0.00    +0.000 C 
ATOM      9  O   UNL     1      52.317   8.972   9.971  0.00  0.00    +0.000 OA
ATOM     10  N   UNL     1      52.538   7.763  11.902  0.00  0.00    +0.000 N 
ATOM     11  H   UNL     1      52.845   6.884  12.303  0.00  0.00    +0.000 HD
BRANCH   8  15
ATOM     12  C   UNL     1      53.814   5.550   8.156  0.00  0.00    +0.000 A 
ATOM     13  C   UNL     1      54.585   5.085   9.194  0.00  0.00    +0.000 A 
ATOM     14  C   UNL     1      54.293   5.925  10.300  0.00  0.00    +0.000 A 
ATOM     15  C   UNL     1      53.362   6.855   9.866  0.00  0.00    +0.000 A 
ATOM     16  O   UNL     1      53.069   6.618   8.546  0.00  0.00    +0.000 OA
BRANCH  12  18
ATOM     17  N   UNL     1      53.591   4.768   5.707  0.00  0.00    +0.000 NA
ATOM     18  C   UNL     1      53.682   5.118   6.812  0.00  0.00    +0.000 C 
ENDBRANCH  12  18
ENDBRANCH   8  15
ENDBRANCH   7  10
ENDBRANCH   1   7
BRANCH   4  19
ATOM     19  C   UNL     1      46.085   8.041  13.060  0.00  0.00    +0.000 C 
BRANCH  19  20
ATOM     20  N   UNL     1      45.691   6.708  12.684  0.00  0.00    +0.000 N 
ATOM     21  C   UNL     1      44.666   6.485  11.797  0.00  0.00    +0.000 C 
ATOM     22  O   UNL     1      44.050   7.402  11.258  0.00  0.00    +0.000 OA
ATOM     23  H   UNL     1      45.958   5.959  13.316  0.00  0.00    +0.000 HD
BRANCH  21  24
ATOM     24  C   UNL     1      44.387   5.079  11.475  0.00  0.00    +0.000 A 
ATOM     25  C   UNL     1      43.633   4.298  12.341  0.00  0.00    +0.000 A 
ATOM     26  S   UNL     1      43.368   2.710  11.775  0.00  0.00    +0.000 S 
ATOM     27  C   UNL     1      44.296   2.994  10.377  0.00  0.00    +0.000 A 
ATOM     28  N   UNL     1      44.502   2.012   9.458  0.00  0.00    +0.000 NA
ATOM     29  C   UNL     1      45.249   2.360   8.463  0.00  0.00    +0.000 A 
ATOM     30  N   UNL     1      45.802   3.604   8.299  0.00  0.00    +0.000 N 
ATOM     31  C   UNL     1      45.586   4.636   9.178  0.00  0.00    +0.000 A 
ATOM     32  O   UNL     1      46.040   5.756   8.966  0.00  0.00    +0.000 OA
ATOM     33  C   UNL     1      44.776   4.290  10.330  0.00  0.00    +0.000 A 
ATOM     34  H   UNL     1      46.363   3.819   7.490  0.00  0.00    +0.000 HD
ENDBRANCH  21  24
ENDBRANCH  19  20
ENDBRANCH   4  19
TORSDOF 7
ENDMDL
MODEL 8
REMARK VINA RESULT:    -6.250      3.884      9.877
REMARK INTER + INTRA:          -9.663
REMARK INTER:                  -8.839
REMARK INTRA:                  -0.824
REMARK UNBOUND:                -0.855
REMARK  Name = 
REMARK  7 active torsions:
REMARK  status: ('A' for Active; 'I' for Inactive)
REMARK    1  A    between atoms: C_2  and  C_3
REMARK    2  A    between atoms: C_6  and  C_7
REMARK    3  A    between atoms: N_9  and  C_10
REMARK    4  A    between atoms: C_10  and  C_11
REMARK    5  A    between atoms: C_14  and  C_15
REMARK    6  A    between atoms: C_15  and  N_16
REMARK    7  A    between atoms: C_17  and  C_19
REMARK                            x       y       z     vdW  Elec       q    Type
REMARK                         _______ _______ _______ _____ _____    ______ ____
ROOT
ATOM      1  C   UNL     1      52.092   1.830  17.503  0.00  0.00    +0.000 A 
ATOM      2  C   UNL     1      50.755   1.567  17.177  0.00  0.00    +0.000 A 
ATOM      3  C   UNL     1      49.755   2.530  17.384  0.00  0.00    +0.000 A 
ATOM      4  C   UNL     1      50.075   3.791  17.908  0.00  0.00    +0.000 A 
ATOM      5  C   UNL     1      51.411   4.049  18.244  0.00  0.00    +0.000 A 
ATOM      6  C   UNL     1      52.411   3.089  18.029  0.00  0.00    +0.000 A 
ENDROOT
BRANCH   1   7
ATOM      7  C   UNL     1      53.150   0.771  17.302  0.00  0.00    +0.000 C 
BRANCH   7  10
ATOM      8  C   UNL     1      54.042  -1.201  18.488  0.00  0.00    +0.000 C 
ATOM      9  O   UNL     1      55.166  -1.056  18.005  0.00  0.00    +0.000 OA
ATOM     10  N   UNL     1      52.998  -0.348  18.200  0.00  0.00    +0.000 N 
ATOM     11  H   UNL     1      52.090  -0.547  18.604  0.00  0.00    +0.000 HD
BRANCH   8  15
ATOM     12  C   UNL     1      52.927  -4.252  19.962  0.00  0.00    +0.000 A 
ATOM     13  C   UNL     1      53.321  -3.662  21.139  0.00  0.00    +0.000 A 
ATOM     14  C   UNL     1      53.819  -2.381  20.782  0.00  0.00    +0.000 A 
ATOM     15  C   UNL     1      53.701  -2.271  19.406  0.00  0.00    +0.000 A 
ATOM     16  O   UNL     1      53.149  -3.424  18.907  0.00  0.00    +0.000 OA
BRANCH  12  18
ATOM     17  N   UNL     1      51.906  -6.565  19.450  0.00  0.00    +0.000 NA
ATOM     18  C   UNL     1      52.360  -5.521  19.688  0.00  0.00    +0.000 C 
ENDBRANCH  12  18
ENDBRANCH   8  15
ENDBRANCH   7  10
ENDBRANCH   1   7
BRANCH   4  19
ATOM     19  C   UNL     1      49.023   4.857  18.111  0.00  0.00    +0.000 C 
BRANCH  19  20
ATOM     20  N   UNL     1      48.304   5.153  16.899  0.00  0.00    +0.000 N 
ATOM     21  C   UNL     1      48.868   5.900  15.894  0.00  0.00    +0.000 C 
ATOM     22  O   UNL     1      50.017   6.332  15.959  0.00  0.00    +0.000 OA
ATOM     23  H   UNL     1      47.292   5.080  16.941  0.00  0.00    +0.000 HD
BRANCH  21  24
ATOM     24  C   UNL     1      48.040   6.102  14.697  0.00  0.00    +0.000 A 
ATOM     25  C   UNL     1      47.929   7.364  14.128  0.00  0.00    +0.000 A 
ATOM     26  S   UNL     1      46.969   7.394  12.716  0.00  0.00    +0.000 S 
ATOM     27  C   UNL     1      46.625   5.732  12.847  0.00  0.00    +0.000 A 
ATOM     28  N   UNL     1      45.812   5.109  11.951  0.00  0.00    +0.000 NA
ATOM     29  C   UNL     1      45.617   3.855  12.190  0.00  0.00    +0.000 A 
ATOM     30  N   UNL     1      46.167   3.164  13.239  0.00  0.00    +0.000 N 
ATOM     31  C   UNL     1      47.026   3.742  14.142  0.00  0.00    +0.000 A 
ATOM     32  O   UNL     1      47.554   3.079  15.028  0.00  0.00    +0.000 OA
ATOM     33  C   UNL     1      47.257   5.158  13.935  0.00  0.00    +0.000 A 
ATOM     34  H   UNL     1      45.990   2.179  13.362  0.00  0.00    +0.000 HD
ENDBRANCH  21  24
ENDBRANCH  19  20
ENDBRANCH   4  19
TORSDOF 7
ENDMDL
MODEL 9
REMARK VINA RESULT:    -6.138      3.960      5.228
REMARK INTER + INTRA:          -9.505
REMARK INTER:                  -8.750
REMARK INTRA:                  -0.755
REMARK UNBOUND:                -0.855
REMARK  Name = 
REMARK  7 active torsions:
REMARK  status: ('A' for Active; 'I' for Inactive)
REMARK    1  A    between atoms: C_2  and  C_3
REMARK    2  A    between atoms: C_6  and  C_7
REMARK    3  A    between atoms: N_9  and  C_10
REMARK    4  A    between atoms: C_10  and  C_11
REMARK    5  A    between atoms: C_14  and  C_15
REMARK    6  A    between atoms: C_15  and  N_16
REMARK    7  A    between atoms: C_17  and  C_19
REMARK                            x       y       z     vdW  Elec       q    Type
REMARK                         _______ _______ _______ _____ _____    ______ ____
ROOT
ATOM      1  C   UNL     1      45.130   5.900  12.086  0.00  0.00    +0.000 A 
ATOM      2  C   UNL     1      44.815   7.256  12.250  0.00  0.00    +0.000 A 
ATOM      3  C   UNL     1      45.700   8.133  12.896  0.00  0.00    +0.000 A 
ATOM      4  C   UNL     1      46.935   7.675  13.377  0.00  0.00    +0.000 A 
ATOM      5  C   UNL     1      47.244   6.317  13.222  0.00  0.00    +0.000 A 
ATOM      6  C   UNL     1      46.363   5.443  12.570  0.00  0.00    +0.000 A 
ENDROOT
BRANCH   1   7
ATOM      7  C   UNL     1      44.152   4.964  11.416  0.00  0.00    +0.000 C 
BRANCH   7  10
ATOM      8  C   UNL     1      44.633   3.861   9.261  0.00  0.00    +0.000 C 
ATOM      9  O   UNL     1      43.926   4.650   8.633  0.00  0.00    +0.000 OA
ATOM     10  N   UNL     1      44.803   3.947  10.627  0.00  0.00    +0.000 N 
ATOM     11  H   UNL     1      45.370   3.243  11.084  0.00  0.00    +0.000 HD
BRANCH   8  15
ATOM     12  C   UNL     1      46.798   1.880   7.234  0.00  0.00    +0.000 A 
ATOM     13  C   UNL     1      46.266   0.829   7.941  0.00  0.00    +0.000 A 
ATOM     14  C   UNL     1      45.335   1.403   8.846  0.00  0.00    +0.000 A 
ATOM     15  C   UNL     1      45.361   2.773   8.638  0.00  0.00    +0.000 A 
ATOM     16  O   UNL     1      46.262   3.060   7.642  0.00  0.00    +0.000 OA
BRANCH  12  18
ATOM     17  N   UNL     1      48.555   1.963   5.346  0.00  0.00    +0.000 NA
ATOM     18  C   UNL     1      47.771   1.927   6.204  0.00  0.00    +0.000 C 
ENDBRANCH  12  18
ENDBRANCH   8  15
ENDBRANCH   7  10
ENDBRANCH   1   7
BRANCH   4  19
ATOM     19  C   UNL     1      47.920   8.605  14.048  0.00  0.00    +0.000 C 
BRANCH  19  20
ATOM     20  N   UNL     1      47.956   8.424  15.476  0.00  0.00    +0.000 N 
ATOM     21  C   UNL     1      49.025   8.847  16.227  0.00  0.00    +0.000 C 
ATOM     22  O   UNL     1      49.993   9.421  15.731  0.00  0.00    +0.000 OA
ATOM     23  H   UNL     1      47.344   7.710  15.861  0.00  0.00    +0.000 HD
BRANCH  21  24
ATOM     24  C   UNL     1      48.921   8.633  17.676  0.00  0.00    +0.000 A 
ATOM     25  C   UNL     1      49.412   7.466  18.248  0.00  0.00    +0.000 A 
ATOM     26  S   UNL     1      49.250   7.418  19.947  0.00  0.00    +0.000 S 
ATOM     27  C   UNL     1      48.472   8.930  19.972  0.00  0.00    +0.000 A 
ATOM     28  N   UNL     1      48.031   9.476  21.138  0.00  0.00    +0.000 NA
ATOM     29  C   UNL     1      47.434  10.613  21.004  0.00  0.00    +0.000 A 
ATOM     30  N   UNL     1      47.243  11.259  19.809  0.00  0.00    +0.000 N 
ATOM     31  C   UNL     1      47.707  10.767  18.615  0.00  0.00    +0.000 A 
ATOM     32  O   UNL     1      47.580  11.403  17.574  0.00  0.00    +0.000 OA
ATOM     33  C   UNL     1      48.363   9.476  18.706  0.00  0.00    +0.000 A 
ATOM     34  H   UNL     1      46.783  12.155  19.772  0.00  0.00    +0.000 HD
ENDBRANCH  21  24
ENDBRANCH  19  20
ENDBRANCH   4  19
TORSDOF 7
ENDMDL
