MODEL 1
REMARK VINA RESULT:    -7.590      0.000      0.000
REMARK INTER + INTRA:         -12.605
REMARK INTER:                 -11.140
REMARK INTRA:                  -1.465
REMARK UNBOUND:                -1.465
REMARK  Name = 
REMARK  9 active torsions:
REMARK  status: ('A' for Active; 'I' for Inactive)
REMARK    1  A    between atoms: C_1  and  O_2
REMARK    2  A    between atoms: O_2  and  C_3
REMARK    3  A    between atoms: C_10  and  C_11
REMARK    4  A    between atoms: N_13  and  C_14
REMARK    5  A    between atoms: C_14  and  C_15
REMARK    6  A    between atoms: C_18  and  O_19
REMARK    7  A    between atoms: O_19  and  C_20
REMARK    8  A    between atoms: C_20  and  C_21
REMARK    9  A    between atoms: C_21  and  N_22
REMARK                            x       y       z     vdW  Elec       q    Type
REMARK                         _______ _______ _______ _____ _____    ______ ____
ROOT
ATOM      1  C   UNL     1      48.434   6.902  14.273  0.00  0.00    +0.000 C 
ATOM      2  O   UNL     1      49.238   7.096  13.363  0.00  0.00    +0.000 OA
ATOM      3  N   UNL     1      47.125   7.272  14.145  0.00  0.00    +0.000 N 
ATOM      4  H   UNL     1      46.457   7.048  14.873  0.00  0.00    +0.000 HD
ENDROOT
BRANCH   1  12
ATOM      5  C   UNL     1      47.209   4.246  16.099  0.00  0.00    +0.000 A 
ATOM      6  N   UNL     1      46.956   3.268  16.993  0.00  0.00    +0.000 NA
ATOM      7  C   UNL     1      47.756   3.163  18.057  0.00  0.00    +0.000 A 
ATOM      8  N   UNL     1      48.800   3.932  18.350  0.00  0.00    +0.000 NA
ATOM      9  C   UNL     1      49.023   4.889  17.433  0.00  0.00    +0.000 A 
ATOM     10  S   UNL     1      50.314   5.968  17.651  0.00  0.00    +0.000 S 
ATOM     11  C   UNL     1      49.942   6.782  16.208  0.00  0.00    +0.000 A 
ATOM     12  C   UNL     1      48.845   6.258  15.532  0.00  0.00    +0.000 A 
ATOM     13  C   UNL     1      48.292   5.126  16.272  0.00  0.00    +0.000 A 
BRANCH   5  15
ATOM     14  C   UNL     1      46.955   3.634  13.858  0.00  0.00    +0.000 C 
ATOM     15  O   UNL     1      46.406   4.323  14.980  0.00  0.00    +0.000 OA
ENDBRANCH   5  15
ENDBRANCH   1  12
BRANCH   3  16
ATOM     16  C   UNL     1      46.630   7.903  12.946  0.00  0.00    +0.000 C 
BRANCH  16  17
ATOM     17  C   UNL     1      45.851   6.923  12.110  0.00  0.00    +0.000 A 
ATOM     18  C   UNL     1      44.659   6.363  12.590  0.00  0.00    +0.000 A 
ATOM     19  C   UNL     1      43.966   5.405  11.842  0.00  0.00    +0.000 A 
ATOM     20  C   UNL     1      44.454   5.003  10.599  0.00  0.00    +0.000 A 
ATOM     21  C   UNL     1      45.650   5.543  10.123  0.00  0.00    +0.000 A 
ATOM     22  C   UNL     1      46.344   6.497  10.870  0.00  0.00    +0.000 A 
BRANCH  20  23
ATOM     23  O   UNL     1      43.870   4.077   9.780  0.00  0.00    +0.000 OA
BRANCH  23  24
ATOM     24  C   UNL     1      44.393   2.743   9.859  0.00  0.00    +0.000 C 
BRANCH  24  25
ATOM     25  C   UNL     1      44.911   2.360   8.461  0.00  0.00    +0.000 C 
BRANCH  25  26
ATOM     26  N   UNL     1      46.368   2.508   8.272  0.00  0.00    +0.000 NA
ATOM     27  C   UNL     1      46.656   3.600   7.321  0.00  0.00    +0.000 C 
ATOM     28  C   UNL     1      46.556   2.957   5.948  0.00  0.00    +0.000 C 
ATOM     29  C   UNL     1      47.129   1.573   6.169  0.00  0.00    +0.000 C 
ATOM     30  C   UNL     1      47.007   1.324   7.669  0.00  0.00    +0.000 C 
ENDBRANCH  25  26
ENDBRANCH  24  25
ENDBRANCH  23  24
ENDBRANCH  20  23
ENDBRANCH  16  17
ENDBRANCH   3  16
TORSDOF 8
ENDMDL
MODEL 2
REMARK VINA RESULT:    -6.524      1.848      2.189
REMARK INTER + INTRA:         -11.040
REMARK INTER:                 -10.031
REMARK INTRA:                  -1.009
REMARK UNBOUND:                -1.465
REMARK  Name = 
REMARK  9 active torsions:
REMARK  status: ('A' for Active; 'I' for Inactive)
REMARK    1  A    between atoms: C_1  and  O_2
REMARK    2  A    between atoms: O_2  and  C_3
REMARK    3  A    between atoms: C_10  and  C_11
REMARK    4  A    between atoms: N_13  and  C_14
REMARK    5  A    between atoms: C_14  and  C_15
REMARK    6  A    between atoms: C_18  and  O_19
REMARK    7  A    between atoms: O_19  and  C_20
REMARK    8  A    between atoms: C_20  and  C_21
REMARK    9  A    between atoms: C_21  and  N_22
REMARK                            x       y       z     vdW  Elec       q    Type
REMARK                         _______ _______ _______ _____ _____    ______ ____
ROOT
ATOM      1  C   UNL     1      49.039   6.827  15.767  0.00  0.00    +0.000 C 
ATOM      2  O   UNL     1      50.212   6.646  15.445  0.00  0.00    +0.000 OA
ATOM      3  N   UNL     1      48.046   6.837  14.830  0.00  0.00    +0.000 N 
ATOM      4  H   UNL     1      47.077   6.921  15.112  0.00  0.00    +0.000 HD
ENDROOT
BRANCH   1  12
ATOM      5  C   UNL     1      48.870   4.748  18.513  0.00  0.00    +0.000 A 
ATOM      6  N   UNL     1      48.717   4.180  19.727  0.00  0.00    +0.000 NA
ATOM      7  C   UNL     1      48.291   4.948  20.734  0.00  0.00    +0.000 A 
ATOM      8  N   UNL     1      47.988   6.241  20.680  0.00  0.00    +0.000 NA
ATOM      9  C   UNL     1      48.159   6.770  19.456  0.00  0.00    +0.000 A 
ATOM     10  S   UNL     1      47.813   8.412  19.203  0.00  0.00    +0.000 S 
ATOM     11  C   UNL     1      48.241   8.299  17.563  0.00  0.00    +0.000 A 
ATOM     12  C   UNL     1      48.657   7.031  17.174  0.00  0.00    +0.000 A 
ATOM     13  C   UNL     1      48.602   6.113  18.311  0.00  0.00    +0.000 A 
BRANCH   5  15
ATOM     14  C   UNL     1      48.313   3.304  16.763  0.00  0.00    +0.000 C 
ATOM     15  O   UNL     1      49.351   3.962  17.487  0.00  0.00    +0.000 OA
ENDBRANCH   5  15
ENDBRANCH   1  12
BRANCH   3  16
ATOM     16  C   UNL     1      48.325   6.640  13.428  0.00  0.00    +0.000 C 
BRANCH  16  17
ATOM     17  C   UNL     1      47.154   5.992  12.737  0.00  0.00    +0.000 A 
ATOM     18  C   UNL     1      46.564   4.835  13.265  0.00  0.00    +0.000 A 
ATOM     19  C   UNL     1      45.517   4.196  12.592  0.00  0.00    +0.000 A 
ATOM     20  C   UNL     1      45.042   4.713  11.387  0.00  0.00    +0.000 A 
ATOM     21  C   UNL     1      45.639   5.854  10.847  0.00  0.00    +0.000 A 
ATOM     22  C   UNL     1      46.685   6.492  11.515  0.00  0.00    +0.000 A 
BRANCH  20  23
ATOM     23  O   UNL     1      44.031   4.178  10.638  0.00  0.00    +0.000 OA
BRANCH  23  24
ATOM     24  C   UNL     1      44.241   2.844  10.152  0.00  0.00    +0.000 C 
BRANCH  24  25
ATOM     25  C   UNL     1      44.717   2.948   8.692  0.00  0.00    +0.000 C 
BRANCH  25  26
ATOM     26  N   UNL     1      46.175   2.811   8.498  0.00  0.00    +0.000 NA
ATOM     27  C   UNL     1      46.663   3.819   7.536  0.00  0.00    +0.000 C 
ATOM     28  C   UNL     1      46.436   3.196   6.169  0.00  0.00    +0.000 C 
ATOM     29  C   UNL     1      46.733   1.729   6.402  0.00  0.00    +0.000 C 
ATOM     30  C   UNL     1      46.571   1.521   7.904  0.00  0.00    +0.000 C 
ENDBRANCH  25  26
ENDBRANCH  24  25
ENDBRANCH  23  24
ENDBRANCH  20  23
ENDBRANCH  16  17
ENDBRANCH   3  16
TORSDOF 8
ENDMDL
MODEL 3
REMARK VINA RESULT:    -6.498      1.915      2.604
REMARK INTER + INTRA:         -11.001
REMARK INTER:                  -9.666
REMARK INTRA:                  -1.335
REMARK UNBOUND:                -1.465
REMARK  Name = 
REMARK  9 active torsions:
REMARK  status: ('A' for Active; 'I' for Inactive)
REMARK    1  A    between atoms: C_1  and  O_2
REMARK    2  A    between atoms: O_2  and  C_3
REMARK    3  A    between atoms: C_10  and  C_11
REMARK    4  A    between atoms: N_13  and  C_14
REMARK    5  A    between atoms: C_14  and  C_15
REMARK    6  A    between atoms: C_18  and  O_19
REMARK    7  A    between atoms: O_19  and  C_20
REMARK    8  A    between atoms: C_20  and  C_21
REMARK    9  A    between atoms: C_21  and  N_22
REMARK                            x       y       z     vdW  Elec       q    Type
REMARK                         _______ _______ _______ _____ _____    ______ ____
ROOT
ATOM      1  C   UNL     1      47.807   8.496  13.154  0.00  0.00    +0.000 C 
ATOM      2  O   UNL     1      47.799   8.945  12.009  0.00  0.00    +0.000 OA
ATOM      3  N   UNL     1      46.692   7.916  13.689  0.00  0.00    +0.000 N 
ATOM      4  H   UNL     1      46.727   7.491  14.608  0.00  0.00    +0.000 HD
ENDROOT
BRANCH   1  12
ATOM      5  C   UNL     1      49.209   6.364  15.472  0.00  0.00    +0.000 A 
ATOM      6  N   UNL     1      49.967   5.738  16.397  0.00  0.00    +0.000 NA
ATOM      7  C   UNL     1      51.071   6.353  16.829  0.00  0.00    +0.000 A 
ATOM      8  N   UNL     1      51.524   7.542  16.448  0.00  0.00    +0.000 NA
ATOM      9  C   UNL     1      50.746   8.130  15.522  0.00  0.00    +0.000 A 
ATOM     10  S   UNL     1      51.172   9.660  14.925  0.00  0.00    +0.000 S 
ATOM     11  C   UNL     1      49.813   9.695  13.907  0.00  0.00    +0.000 A 
ATOM     12  C   UNL     1      49.016   8.558  13.990  0.00  0.00    +0.000 A 
ATOM     13  C   UNL     1      49.576   7.623  14.964  0.00  0.00    +0.000 A 
BRANCH   5  15
ATOM     14  C   UNL     1      47.648   4.673  15.873  0.00  0.00    +0.000 C 
ATOM     15  O   UNL     1      48.094   5.706  14.997  0.00  0.00    +0.000 OA
ENDBRANCH   5  15
ENDBRANCH   1  12
BRANCH   3  16
ATOM     16  C   UNL     1      45.462   7.804  12.942  0.00  0.00    +0.000 C 
BRANCH  16  17
ATOM     17  C   UNL     1      45.373   6.467  12.258  0.00  0.00    +0.000 A 
ATOM     18  C   UNL     1      45.338   6.380  10.860  0.00  0.00    +0.000 A 
ATOM     19  C   UNL     1      45.193   5.143  10.223  0.00  0.00    +0.000 A 
ATOM     20  C   UNL     1      45.090   3.976  10.979  0.00  0.00    +0.000 A 
ATOM     21  C   UNL     1      45.105   4.057  12.372  0.00  0.00    +0.000 A 
ATOM     22  C   UNL     1      45.248   5.291  13.010  0.00  0.00    +0.000 A 
BRANCH  20  23
ATOM     23  O   UNL     1      44.941   2.714  10.473  0.00  0.00    +0.000 OA
BRANCH  23  24
ATOM     24  C   UNL     1      44.574   2.627   9.088  0.00  0.00    +0.000 C 
BRANCH  24  25
ATOM     25  C   UNL     1      45.602   1.721   8.387  0.00  0.00    +0.000 C 
BRANCH  25  26
ATOM     26  N   UNL     1      46.878   2.377   8.039  0.00  0.00    +0.000 NA
ATOM     27  C   UNL     1      46.628   3.630   7.299  0.00  0.00    +0.000 C 
ATOM     28  C   UNL     1      46.468   3.201   5.850  0.00  0.00    +0.000 C 
ATOM     29  C   UNL     1      47.470   2.074   5.708  0.00  0.00    +0.000 C 
ATOM     30  C   UNL     1      47.721   1.580   7.130  0.00  0.00    +0.000 C 
ENDBRANCH  25  26
ENDBRANCH  24  25
ENDBRANCH  23  24
ENDBRANCH  20  23
ENDBRANCH  16  17
ENDBRANCH   3  16
TORSDOF 8
ENDMDL
MODEL 4
REMARK VINA RESULT:    -6.265      2.611      3.667
REMARK INTER + INTRA:         -10.659
REMARK INTER:                  -9.678
REMARK INTRA:                  -0.981
REMARK UNBOUND:                -1.465
REMARK  Name = 
REMARK  9 active torsions:
REMARK  status: ('A' for Active; 'I' for Inactive)
REMARK    1  A    between atoms: C_1  and  O_2
REMARK    2  A    between atoms: O_2  and  C_3
REMARK    3  A    between atoms: C_10  and  C_11
REMARK    4  A    between atoms: N_13  and  C_14
REMARK    5  A    between atoms: C_14  and  C_15
REMARK    6  A    between atoms: C_18  and  O_19
REMARK    7  A    between atoms: O_19  and  C_20
REMARK    8  A    between atoms: C_20  and  C_21
REMARK    9  A    between atoms: C_21  and  N_22
REMARK                            x       y       z     vdW  Elec       q    Type
REMARK                         _______ _______ _______ _____ _____    ______ ____
ROOT
ATOM      1  C   UNL     1      50.016   6.064  17.428  0.00  0.00    +0.000 C 
ATOM      2  O   UNL     1      49.154   6.435  18.222  0.00  0.00    +0.000 OA
ATOM      3  N   UNL     1      50.053   6.552  16.152  0.00  0.00    +0.000 N 
ATOM      4  H   UNL     1      50.806   6.290  15.526  0.00  0.00    +0.000 HD
ENDROOT
BRANCH   1  12
ATOM      5  C   UNL     1      50.286   2.640  17.129  0.00  0.00    +0.000 A 
ATOM      6  N   UNL     1      50.653   1.342  17.144  0.00  0.00    +0.000 NA
ATOM      7  C   UNL     1      51.826   1.024  17.698  0.00  0.00    +0.000 A 
ATOM      8  N   UNL     1      52.698   1.857  18.256  0.00  0.00    +0.000 NA
ATOM      9  C   UNL     1      52.299   3.141  18.216  0.00  0.00    +0.000 A 
ATOM     10  S   UNL     1      53.290   4.342  18.890  0.00  0.00    +0.000 S 
ATOM     11  C   UNL     1      52.179   5.558  18.475  0.00  0.00    +0.000 A 
ATOM     12  C   UNL     1      51.046   5.088  17.820  0.00  0.00    +0.000 A 
ATOM     13  C   UNL     1      51.118   3.636  17.670  0.00  0.00    +0.000 A 
BRANCH   5  15
ATOM     14  C   UNL     1      47.978   2.882  17.400  0.00  0.00    +0.000 C 
ATOM     15  O   UNL     1      49.095   2.969  16.517  0.00  0.00    +0.000 OA
ENDBRANCH   5  15
ENDBRANCH   1  12
BRANCH   3  16
ATOM     16  C   UNL     1      49.090   7.516  15.681  0.00  0.00    +0.000 C 
BRANCH  16  17
ATOM     17  C   UNL     1      48.321   6.972  14.506  0.00  0.00    +0.000 A 
ATOM     18  C   UNL     1      48.071   7.772  13.383  0.00  0.00    +0.000 A 
ATOM     19  C   UNL     1      47.303   7.290  12.318  0.00  0.00    +0.000 A 
ATOM     20  C   UNL     1      46.784   5.997  12.360  0.00  0.00    +0.000 A 
ATOM     21  C   UNL     1      47.013   5.201  13.484  0.00  0.00    +0.000 A 
ATOM     22  C   UNL     1      47.777   5.682  14.549  0.00  0.00    +0.000 A 
BRANCH  20  23
ATOM     23  O   UNL     1      46.020   5.417  11.386  0.00  0.00    +0.000 OA
BRANCH  23  24
ATOM     24  C   UNL     1      44.784   4.829  11.817  0.00  0.00    +0.000 C 
BRANCH  24  25
ATOM     25  C   UNL     1      44.756   3.375  11.313  0.00  0.00    +0.000 C 
BRANCH  25  26
ATOM     26  N   UNL     1      43.996   3.161  10.064  0.00  0.00    +0.000 NA
ATOM     27  C   UNL     1      44.513   1.981   9.343  0.00  0.00    +0.000 C 
ATOM     28  C   UNL     1      45.682   2.507   8.526  0.00  0.00    +0.000 C 
ATOM     29  C   UNL     1      45.218   3.884   8.100  0.00  0.00    +0.000 C 
ATOM     30  C   UNL     1      44.128   4.265   9.098  0.00  0.00    +0.000 C 
ENDBRANCH  25  26
ENDBRANCH  24  25
ENDBRANCH  23  24
ENDBRANCH  20  23
ENDBRANCH  16  17
ENDBRANCH   3  16
TORSDOF 8
ENDMDL
MODEL 5
REMARK VINA RESULT:    -6.219      2.090      3.731
REMARK INTER + INTRA:         -10.592
REMARK INTER:                  -9.329
REMARK INTRA:                  -1.263
REMARK UNBOUND:                -1.465
REMARK  Name = 
REMARK  9 active torsions:
REMARK  status: ('A' for Active; 'I' for Inactive)
REMARK    1  A    between atoms: C_1  and  O_2
REMARK    2  A    between atoms: O_2  and  C_3
REMARK    3  A    between atoms: C_10  and  C_11
REMARK    4  A    between atoms: N_13  and  C_14
REMARK    5  A    between atoms: C_14  and  C_15
REMARK    6  A    between atoms: C_18  and  O_19
REMARK    7  A    between atoms: O_19  and  C_20
REMARK    8  A    between atoms: C_20  and  C_21
REMARK    9  A    between atoms: C_21  and  N_22
REMARK                            x       y       z     vdW  Elec       q    Type
REMARK                         _______ _______ _______ _____ _____    ______ ____
ROOT
ATOM      1  C   UNL     1      48.674   6.073  16.077  0.00  0.00    +0.000 C 
ATOM      2  O   UNL     1      49.372   5.152  16.498  0.00  0.00    +0.000 OA
ATOM      3  N   UNL     1      47.564   5.824  15.321  0.00  0.00    +0.000 N 
ATOM      4  H   UNL     1      46.959   6.585  15.035  0.00  0.00    +0.000 HD
ENDROOT
BRANCH   1  12
ATOM      5  C   UNL     1      48.805   8.943  14.171  0.00  0.00    +0.000 A 
ATOM      6  N   UNL     1      48.931  10.194  13.682  0.00  0.00    +0.000 NA
ATOM      7  C   UNL     1      49.299  11.166  14.521  0.00  0.00    +0.000 A 
ATOM      8  N   UNL     1      49.567  11.044  15.817  0.00  0.00    +0.000 NA
ATOM      9  C   UNL     1      49.424   9.785  16.267  0.00  0.00    +0.000 A 
ATOM     10  S   UNL     1      49.733   9.445  17.901  0.00  0.00    +0.000 S 
ATOM     11  C   UNL     1      49.366   7.802  17.678  0.00  0.00    +0.000 A 
ATOM     12  C   UNL     1      49.001   7.477  16.376  0.00  0.00    +0.000 A 
ATOM     13  C   UNL     1      49.041   8.668  15.530  0.00  0.00    +0.000 A 
BRANCH   5  15
ATOM     14  C   UNL     1      49.457   7.361  12.580  0.00  0.00    +0.000 C 
ATOM     15  O   UNL     1      48.383   7.951  13.312  0.00  0.00    +0.000 OA
ENDBRANCH   5  15
ENDBRANCH   1  12
BRANCH   3  16
ATOM     16  C   UNL     1      47.162   4.481  14.983  0.00  0.00    +0.000 C 
BRANCH  16  17
ATOM     17  C   UNL     1      46.421   4.459  13.673  0.00  0.00    +0.000 A 
ATOM     18  C   UNL     1      45.997   5.651  13.071  0.00  0.00    +0.000 A 
ATOM     19  C   UNL     1      45.254   5.630  11.886  0.00  0.00    +0.000 A 
ATOM     20  C   UNL     1      44.933   4.414  11.285  0.00  0.00    +0.000 A 
ATOM     21  C   UNL     1      45.336   3.222  11.889  0.00  0.00    +0.000 A 
ATOM     22  C   UNL     1      46.075   3.241  13.073  0.00  0.00    +0.000 A 
BRANCH  20  23
ATOM     23  O   UNL     1      44.212   4.265  10.132  0.00  0.00    +0.000 OA
BRANCH  23  24
ATOM     24  C   UNL     1      44.146   2.937   9.595  0.00  0.00    +0.000 C 
BRANCH  24  25
ATOM     25  C   UNL     1      44.791   2.964   8.197  0.00  0.00    +0.000 C 
BRANCH  25  26
ATOM     26  N   UNL     1      46.263   2.847   8.186  0.00  0.00    +0.000 NA
ATOM     27  C   UNL     1      46.846   3.785   7.206  0.00  0.00    +0.000 C 
ATOM     28  C   UNL     1      46.791   3.046   5.880  0.00  0.00    +0.000 C 
ATOM     29  C   UNL     1      47.080   1.611   6.269  0.00  0.00    +0.000 C 
ATOM     30  C   UNL     1      46.745   1.524   7.754  0.00  0.00    +0.000 C 
ENDBRANCH  25  26
ENDBRANCH  24  25
ENDBRANCH  23  24
ENDBRANCH  20  23
ENDBRANCH  16  17
ENDBRANCH   3  16
TORSDOF 8
ENDMDL
MODEL 6
REMARK VINA RESULT:    -6.189      4.303      8.906
REMARK INTER + INTRA:         -10.548
REMARK INTER:                  -9.623
REMARK INTRA:                  -0.925
REMARK UNBOUND:                -1.465
REMARK  Name = 
REMARK  9 active torsions:
REMARK  status: ('A' for Active; 'I' for Inactive)
REMARK    1  A    between atoms: C_1  and  O_2
REMARK    2  A    between atoms: O_2  and  C_3
REMARK    3  A    between atoms: C_10  and  C_11
REMARK    4  A    between atoms: N_13  and  C_14
REMARK    5  A    between atoms: C_14  and  C_15
REMARK    6  A    between atoms: C_18  and  O_19
REMARK    7  A    between atoms: O_19  and  C_20
REMARK    8  A    between atoms: C_20  and  C_21
REMARK    9  A    between atoms: C_21  and  N_22
REMARK                            x       y       z     vdW  Elec       q    Type
REMARK                         _______ _______ _______ _____ _____    ______ ____
ROOT
ATOM      1  C   UNL     1      46.930   4.225  14.491  0.00  0.00    +0.000 C 
ATOM      2  O   UNL     1      47.291   3.171  13.971  0.00  0.00    +0.000 OA
ATOM      3  N   UNL     1      46.965   4.387  15.847  0.00  0.00    +0.000 N 
ATOM      4  H   UNL     1      46.728   5.281  16.262  0.00  0.00    +0.000 HD
ENDROOT
BRANCH   1  12
ATOM      5  C   UNL     1      44.108   4.758  12.582  0.00  0.00    +0.000 A 
ATOM      6  N   UNL     1      43.127   5.231  11.787  0.00  0.00    +0.000 NA
ATOM      7  C   UNL     1      43.263   6.459  11.279  0.00  0.00    +0.000 A 
ATOM      8  N   UNL     1      44.281   7.292  11.466  0.00  0.00    +0.000 NA
ATOM      9  C   UNL     1      45.234   6.787  12.268  0.00  0.00    +0.000 A 
ATOM     10  S   UNL     1      46.612   7.715  12.611  0.00  0.00    +0.000 S 
ATOM     11  C   UNL     1      47.259   6.484  13.586  0.00  0.00    +0.000 A 
ATOM     12  C   UNL     1      46.452   5.355  13.677  0.00  0.00    +0.000 A 
ATOM     13  C   UNL     1      45.240   5.537  12.882  0.00  0.00    +0.000 A 
BRANCH   5  15
ATOM     14  C   UNL     1      43.494   2.537  12.195  0.00  0.00    +0.000 C 
ATOM     15  O   UNL     1      43.943   3.507  13.140  0.00  0.00    +0.000 OA
ENDBRANCH   5  15
ENDBRANCH   1  12
BRANCH   3  16
ATOM     16  C   UNL     1      47.424   3.338  16.725  0.00  0.00    +0.000 C 
BRANCH  16  17
ATOM     17  C   UNL     1      48.887   3.506  17.038  0.00  0.00    +0.000 A 
ATOM     18  C   UNL     1      49.722   2.389  17.175  0.00  0.00    +0.000 A 
ATOM     19  C   UNL     1      51.067   2.540  17.528  0.00  0.00    +0.000 A 
ATOM     20  C   UNL     1      51.596   3.812  17.738  0.00  0.00    +0.000 A 
ATOM     21  C   UNL     1      50.765   4.929  17.621  0.00  0.00    +0.000 A 
ATOM     22  C   UNL     1      49.422   4.780  17.272  0.00  0.00    +0.000 A 
BRANCH  20  23
ATOM     23  O   UNL     1      52.889   4.086  18.088  0.00  0.00    +0.000 OA
BRANCH  23  24
ATOM     24  C   UNL     1      53.663   2.976  18.566  0.00  0.00    +0.000 C 
BRANCH  24  25
ATOM     25  C   UNL     1      54.713   2.641  17.492  0.00  0.00    +0.000 C 
BRANCH  25  26
ATOM     26  N   UNL     1      55.533   1.445  17.772  0.00  0.00    +0.000 NA
ATOM     27  C   UNL     1      55.697   0.635  16.548  0.00  0.00    +0.000 C 
ATOM     28  C   UNL     1      54.458  -0.243  16.494  0.00  0.00    +0.000 C 
ATOM     29  C   UNL     1      54.201  -0.571  17.950  0.00  0.00    +0.000 C 
ATOM     30  C   UNL     1      54.916   0.521  18.739  0.00  0.00    +0.000 C 
ENDBRANCH  25  26
ENDBRANCH  24  25
ENDBRANCH  23  24
ENDBRANCH  20  23
ENDBRANCH  16  17
ENDBRANCH   3  16
TORSDOF 8
ENDMDL
MODEL 7
REMARK VINA RESULT:    -6.068      3.030      5.000
REMARK INTER + INTRA:         -10.370
REMARK INTER:                  -9.139
REMARK INTRA:                  -1.231
REMARK UNBOUND:                -1.465
REMARK  Name = 
REMARK  9 active torsions:
REMARK  status: ('A' for Active; 'I' for Inactive)
REMARK    1  A    between atoms: C_1  and  O_2
REMARK    2  A    between atoms: O_2  and  C_3
REMARK    3  A    between atoms: C_10  and  C_11
REMARK    4  A    between atoms: N_13  and  C_14
REMARK    5  A    between atoms: C_14  and  C_15
REMARK    6  A    between atoms: C_18  and  O_19
REMARK    7  A    between atoms: O_19  and  C_20
REMARK    8  A    between atoms: C_20  and  C_21
REMARK    9  A    between atoms: C_21  and  N_22
REMARK                            x       y       z     vdW  Elec       q    Type
REMARK                         _______ _______ _______ _____ _____    ______ ____
ROOT
ATOM      1  C   UNL     1      49.710   2.501  16.868  0.00  0.00    +0.000 C 
ATOM      2  O   UNL     1      49.272   1.673  16.071  0.00  0.00    +0.000 OA
ATOM      3  N   UNL     1      48.917   3.507  17.343  0.00  0.00    +0.000 N 
ATOM      4  H   UNL     1      49.267   4.144  18.049  0.00  0.00    +0.000 HD
ENDROOT
BRANCH   1  12
ATOM      5  C   UNL     1      52.058   4.891  17.681  0.00  0.00    +0.000 A 
ATOM      6  N   UNL     1      53.146   5.592  18.061  0.00  0.00    +0.000 NA
ATOM      7  C   UNL     1      54.237   4.914  18.430  0.00  0.00    +0.000 A 
ATOM      8  N   UNL     1      54.383   3.594  18.465  0.00  0.00    +0.000 NA
ATOM      9  C   UNL     1      53.276   2.932  18.085  0.00  0.00    +0.000 A 
ATOM     10  S   UNL     1      53.286   1.235  18.064  0.00  0.00    +0.000 S 
ATOM     11  C   UNL     1      51.678   1.184  17.520  0.00  0.00    +0.000 A 
ATOM     12  C   UNL     1      51.100   2.437  17.348  0.00  0.00    +0.000 A 
ATOM     13  C   UNL     1      52.063   3.485  17.683  0.00  0.00    +0.000 A 
BRANCH   5  15
ATOM     14  C   UNL     1      50.706   6.731  18.177  0.00  0.00    +0.000 C 
ATOM     15  O   UNL     1      50.921   5.594  17.342  0.00  0.00    +0.000 OA
ENDBRANCH   5  15
ENDBRANCH   1  12
BRANCH   3  16
ATOM     16  C   UNL     1      47.541   3.645  16.934  0.00  0.00    +0.000 C 
BRANCH  16  17
ATOM     17  C   UNL     1      47.446   4.345  15.605  0.00  0.00    +0.000 A 
ATOM     18  C   UNL     1      47.997   5.622  15.430  0.00  0.00    +0.000 A 
ATOM     19  C   UNL     1      47.856   6.301  14.214  0.00  0.00    +0.000 A 
ATOM     20  C   UNL     1      47.170   5.706  13.157  0.00  0.00    +0.000 A 
ATOM     21  C   UNL     1      46.603   4.442  13.331  0.00  0.00    +0.000 A 
ATOM     22  C   UNL     1      46.740   3.764  14.544  0.00  0.00    +0.000 A 
BRANCH  20  23
ATOM     23  O   UNL     1      46.964   6.269  11.928  0.00  0.00    +0.000 OA
BRANCH  23  24
ATOM     24  C   UNL     1      45.629   6.183  11.408  0.00  0.00    +0.000 C 
BRANCH  24  25
ATOM     25  C   UNL     1      45.703   5.473  10.044  0.00  0.00    +0.000 C 
BRANCH  25  26
ATOM     26  N   UNL     1      44.439   4.861   9.588  0.00  0.00    +0.000 NA
ATOM     27  C   UNL     1      43.737   4.227  10.722  0.00  0.00    +0.000 C 
ATOM     28  C   UNL     1      44.352   2.842  10.835  0.00  0.00    +0.000 C 
ATOM     29  C   UNL     1      44.595   2.450   9.393  0.00  0.00    +0.000 C 
ATOM     30  C   UNL     1      44.630   3.765   8.621  0.00  0.00    +0.000 C 
ENDBRANCH  25  26
ENDBRANCH  24  25
ENDBRANCH  23  24
ENDBRANCH  20  23
ENDBRANCH  16  17
ENDBRANCH   3  16
TORSDOF 8
ENDMDL
MODEL 8
REMARK VINA RESULT:    -5.837      3.858      8.994
REMARK INTER + INTRA:         -10.032
REMARK INTER:                  -7.902
REMARK INTRA:                  -2.130
REMARK UNBOUND:                -1.465
REMARK  Name = 
REMARK  9 active torsions:
REMARK  status: ('A' for Active; 'I' for Inactive)
REMARK    1  A    between atoms: C_1  and  O_2
REMARK    2  A    between atoms: O_2  and  C_3
REMARK    3  A    between atoms: C_10  and  C_11
REMARK    4  A    between atoms: N_13  and  C_14
REMARK    5  A    between atoms: C_14  and  C_15
REMARK    6  A    between atoms: C_18  and  O_19
REMARK    7  A    between atoms: O_19  and  C_20
REMARK    8  A    between atoms: C_20  and  C_21
REMARK    9  A    between atoms: C_21  and  N_22
REMARK                            x       y       z     vdW  Elec       q    Type
REMARK                         _______ _______ _______ _____ _____    ______ ____
ROOT
ATOM      1  C   UNL     1      46.721   4.281  14.192  0.00  0.00    +0.000 C 
ATOM      2  O   UNL     1      47.241   3.246  13.779  0.00  0.00    +0.000 OA
ATOM      3  N   UNL     1      46.925   4.706  15.475  0.00  0.00    +0.000 N 
ATOM      4  H   UNL     1      46.547   5.593  15.785  0.00  0.00    +0.000 HD
ENDROOT
BRANCH   1  12
ATOM      5  C   UNL     1      46.792   7.594  13.240  0.00  0.00    +0.000 A 
ATOM      6  N   UNL     1      46.580   8.817  12.711  0.00  0.00    +0.000 NA
ATOM      7  C   UNL     1      45.527   8.983  11.907  0.00  0.00    +0.000 A 
ATOM      8  N   UNL     1      44.635   8.061  11.557  0.00  0.00    +0.000 NA
ATOM      9  C   UNL     1      44.885   6.856  12.099  0.00  0.00    +0.000 A 
ATOM     10  S   UNL     1      43.842   5.560  11.765  0.00  0.00    +0.000 S 
ATOM     11  C   UNL     1      44.759   4.509  12.734  0.00  0.00    +0.000 A 
ATOM     12  C   UNL     1      45.867   5.107  13.323  0.00  0.00    +0.000 A 
ATOM     13  C   UNL     1      45.938   6.517  12.945  0.00  0.00    +0.000 A 
BRANCH   5  15
ATOM     14  C   UNL     1      49.078   7.113  13.283  0.00  0.00    +0.000 C 
ATOM     15  O   UNL     1      47.905   7.417  14.035  0.00  0.00    +0.000 OA
ENDBRANCH   5  15
ENDBRANCH   1  12
BRANCH   3  16
ATOM     16  C   UNL     1      47.751   3.966  16.396  0.00  0.00    +0.000 C 
BRANCH  16  17
ATOM     17  C   UNL     1      48.084   4.801  17.604  0.00  0.00    +0.000 A 
ATOM     18  C   UNL     1      47.070   5.416  18.349  0.00  0.00    +0.000 A 
ATOM     19  C   UNL     1      47.380   6.243  19.434  0.00  0.00    +0.000 A 
ATOM     20  C   UNL     1      48.711   6.457  19.791  0.00  0.00    +0.000 A 
ATOM     21  C   UNL     1      49.727   5.862  19.041  0.00  0.00    +0.000 A 
ATOM     22  C   UNL     1      49.419   5.038  17.957  0.00  0.00    +0.000 A 
BRANCH  20  23
ATOM     23  O   UNL     1      49.137   7.243  20.825  0.00  0.00    +0.000 OA
BRANCH  23  24
ATOM     24  C   UNL     1      49.956   8.367  20.470  0.00  0.00    +0.000 C 
BRANCH  24  25
ATOM     25  C   UNL     1      49.019   9.521  20.071  0.00  0.00    +0.000 C 
BRANCH  25  26
ATOM     26  N   UNL     1      49.407  10.245  18.844  0.00  0.00    +0.000 NA
ATOM     27  C   UNL     1      48.214  10.560  18.033  0.00  0.00    +0.000 C 
ATOM     28  C   UNL     1      47.968   9.311  17.203  0.00  0.00    +0.000 C 
ATOM     29  C   UNL     1      49.366   8.827  16.879  0.00  0.00    +0.000 C 
ATOM     30  C   UNL     1      50.263   9.457  17.940  0.00  0.00    +0.000 C 
ENDBRANCH  25  26
ENDBRANCH  24  25
ENDBRANCH  23  24
ENDBRANCH  20  23
ENDBRANCH  16  17
ENDBRANCH   3  16
TORSDOF 8
ENDMDL
MODEL 9
REMARK VINA RESULT:    -5.711      3.833      9.062
REMARK INTER + INTRA:          -9.846
REMARK INTER:                  -7.893
REMARK INTRA:                  -1.954
REMARK UNBOUND:                -1.465
REMARK  Name = 
REMARK  9 active torsions:
REMARK  status: ('A' for Active; 'I' for Inactive)
REMARK    1  A    between atoms: C_1  and  O_2
REMARK    2  A    between atoms: O_2  and  C_3
REMARK    3  A    between atoms: C_10  and  C_11
REMARK    4  A    between atoms: N_13  and  C_14
REMARK    5  A    between atoms: C_14  and  C_15
REMARK    6  A    between atoms: C_18  and  O_19
REMARK    7  A    between atoms: O_19  and  C_20
REMARK    8  A    between atoms: C_20  and  C_21
REMARK    9  A    between atoms: C_21  and  N_22
REMARK                            x       y       z     vdW  Elec       q    Type
REMARK                         _______ _______ _______ _____ _____    ______ ____
ROOT
ATOM      1  C   UNL     1      46.626   4.205  14.118  0.00  0.00    +0.000 C 
ATOM      2  O   UNL     1      47.109   3.180  13.641  0.00  0.00    +0.000 OA
ATOM      3  N   UNL     1      46.797   4.514  15.438  0.00  0.00    +0.000 N 
ATOM      4  H   UNL     1      46.452   5.393  15.806  0.00  0.00    +0.000 HD
ENDROOT
BRANCH   1  12
ATOM      5  C   UNL     1      46.970   7.552  13.362  0.00  0.00    +0.000 A 
ATOM      6  N   UNL     1      46.862   8.816  12.903  0.00  0.00    +0.000 NA
ATOM      7  C   UNL     1      45.839   9.109  12.096  0.00  0.00    +0.000 A 
ATOM      8  N   UNL     1      44.886   8.282  11.682  0.00  0.00    +0.000 NA
ATOM      9  C   UNL     1      45.032   7.032  12.156  0.00  0.00    +0.000 A 
ATOM     10  S   UNL     1      43.897   5.843  11.732  0.00  0.00    +0.000 S 
ATOM     11  C   UNL     1      44.713   4.669  12.650  0.00  0.00    +0.000 A 
ATOM     12  C   UNL     1      45.854   5.144  13.287  0.00  0.00    +0.000 A 
ATOM     13  C   UNL     1      46.040   6.563  12.993  0.00  0.00    +0.000 A 
BRANCH   5  15
ATOM     14  C   UNL     1      49.294   7.336  13.466  0.00  0.00    +0.000 C 
ATOM     15  O   UNL     1      48.052   7.243  14.160  0.00  0.00    +0.000 OA
ENDBRANCH   5  15
ENDBRANCH   1  12
BRANCH   3  16
ATOM     16  C   UNL     1      47.544   3.658  16.326  0.00  0.00    +0.000 C 
BRANCH  16  17
ATOM     17  C   UNL     1      48.150   4.454  17.451  0.00  0.00    +0.000 A 
ATOM     18  C   UNL     1      48.529   5.790  17.258  0.00  0.00    +0.000 A 
ATOM     19  C   UNL     1      49.149   6.513  18.282  0.00  0.00    +0.000 A 
ATOM     20  C   UNL     1      49.389   5.910  19.516  0.00  0.00    +0.000 A 
ATOM     21  C   UNL     1      49.032   4.574  19.709  0.00  0.00    +0.000 A 
ATOM     22  C   UNL     1      48.415   3.850  18.687  0.00  0.00    +0.000 A 
BRANCH  20  23
ATOM     23  O   UNL     1      49.989   6.510  20.588  0.00  0.00    +0.000 OA
BRANCH  23  24
ATOM     24  C   UNL     1      51.237   5.945  21.014  0.00  0.00    +0.000 C 
BRANCH  24  25
ATOM     25  C   UNL     1      52.343   6.517  20.108  0.00  0.00    +0.000 C 
BRANCH  25  26
ATOM     26  N   UNL     1      53.288   5.518  19.569  0.00  0.00    +0.000 NA
ATOM     27  C   UNL     1      53.618   5.829  18.164  0.00  0.00    +0.000 C 
ATOM     28  C   UNL     1      52.502   5.193  17.352  0.00  0.00    +0.000 C 
ATOM     29  C   UNL     1      52.207   3.914  18.108  0.00  0.00    +0.000 C 
ATOM     30  C   UNL     1      52.737   4.153  19.519  0.00  0.00    +0.000 C 
ENDBRANCH  25  26
ENDBRANCH  24  25
ENDBRANCH  23  24
ENDBRANCH  20  23
ENDBRANCH  16  17
ENDBRANCH   3  16
TORSDOF 8
ENDMDL
