MODEL 1
REMARK VINA RESULT:    -8.316      0.000      0.000
REMARK INTER + INTRA:         -13.332
REMARK INTER:                 -12.205
REMARK INTRA:                  -1.128
REMARK UNBOUND:                -1.128
REMARK  Name = 
REMARK  8 active torsions:
REMARK  status: ('A' for Active; 'I' for Inactive)
REMARK    1  A    between atoms: C_2  and  C_3
REMARK    2  A    between atoms: C_3  and  N_4
REMARK    3  A    between atoms: C_3  and  C_26
REMARK    4  A    between atoms: N_4  and  C_5
REMARK    5  A    between atoms: C_5  and  C_6
REMARK    6  A    between atoms: C_9  and  C_10
REMARK    7  A    between atoms: C_10  and  N_11
REMARK    8  A    between atoms: C_12  and  C_14
REMARK                            x       y       z     vdW  Elec       q    Type
REMARK                         _______ _______ _______ _____ _____    ______ ____
ROOT
ATOM      1  C   UNL     1      45.191   6.451  11.251  0.00  0.00    +0.000 A 
ATOM      2  C   UNL     1      46.360   5.827  11.704  0.00  0.00    +0.000 A 
ATOM      3  C   UNL     1      47.186   6.461  12.634  0.00  0.00    +0.000 A 
ATOM      4  C   UNL     1      46.855   7.728  13.128  0.00  0.00    +0.000 A 
ATOM      5  C   UNL     1      45.691   8.357  12.666  0.00  0.00    +0.000 A 
ATOM      6  C   UNL     1      44.863   7.720  11.742  0.00  0.00    +0.000 A 
ENDROOT
BRANCH   1   7
ATOM      7  C   UNL     1      44.343   5.817  10.178  0.00  0.00    +0.000 C 
BRANCH   7   8
ATOM      8  N   UNL     1      45.152   5.172   9.134  0.00  0.00    +0.000 NA
ATOM      9  H   UNL     1      45.117   5.737   8.288  0.00  0.00    +0.000 HD
BRANCH   8  10
ATOM     10  C   UNL     1      44.648   3.812   8.811  0.00  0.00    +0.000 C 
BRANCH  10  11
ATOM     11  C   UNL     1      45.717   2.994   8.083  0.00  0.00    +0.000 A 
ATOM     12  C   UNL     1      46.516   3.534   7.061  0.00  0.00    +0.000 A 
ATOM     13  C   UNL     1      47.430   2.738   6.371  0.00  0.00    +0.000 A 
ATOM     14  C   UNL     1      47.559   1.387   6.686  0.00  0.00    +0.000 A 
ATOM     15  C   UNL     1      46.775   0.829   7.693  0.00  0.00    +0.000 A 
ATOM     16  C   UNL     1      45.865   1.626   8.389  0.00  0.00    +0.000 A 
ENDBRANCH  10  11
BRANCH  10  18
ATOM     17  N   UNL     1      43.611   2.642  10.955  0.00  0.00    +0.000 NA
ATOM     18  C   UNL     1      44.052   3.137  10.001  0.00  0.00    +0.000 C 
ENDBRANCH  10  18
ENDBRANCH   8  10
ENDBRANCH   7   8
ENDBRANCH   1   7
BRANCH   4  19
ATOM     19  C   UNL     1      47.757   8.446  14.097  0.00  0.00    +0.000 C 
BRANCH  19  20
ATOM     20  N   UNL     1      48.012   7.634  15.259  0.00  0.00    +0.000 N 
ATOM     21  C   UNL     1      49.197   6.960  15.406  0.00  0.00    +0.000 C 
ATOM     22  O   UNL     1      50.103   7.051  14.583  0.00  0.00    +0.000 OA
ATOM     23  H   UNL     1      47.204   7.337  15.799  0.00  0.00    +0.000 HD
BRANCH  21  24
ATOM     24  C   UNL     1      49.351   6.172  16.632  0.00  0.00    +0.000 A 
ATOM     25  C   UNL     1      50.312   6.532  17.566  0.00  0.00    +0.000 A 
ATOM     26  S   UNL     1      50.344   5.523  18.939  0.00  0.00    +0.000 S 
ATOM     27  C   UNL     1      49.104   4.541  18.319  0.00  0.00    +0.000 A 
ATOM     28  N   UNL     1      48.665   3.448  18.994  0.00  0.00    +0.000 NA
ATOM     29  C   UNL     1      47.733   2.785  18.397  0.00  0.00    +0.000 A 
ATOM     30  N   UNL     1      47.194   3.121  17.180  0.00  0.00    +0.000 N 
ATOM     31  C   UNL     1      47.585   4.229  16.470  0.00  0.00    +0.000 A 
ATOM     32  O   UNL     1      47.052   4.524  15.409  0.00  0.00    +0.000 OA
ATOM     33  C   UNL     1      48.647   4.998  17.090  0.00  0.00    +0.000 A 
ATOM     34  H   UNL     1      46.454   2.568  16.774  0.00  0.00    +0.000 HD
ENDBRANCH  21  24
ENDBRANCH  19  20
ENDBRANCH   4  19
TORSDOF 8
ENDMDL
MODEL 2
REMARK VINA RESULT:    -7.232      2.128      2.891
REMARK INTER + INTRA:         -11.742
REMARK INTER:                 -11.008
REMARK INTRA:                  -0.735
REMARK UNBOUND:                -1.128
REMARK  Name = 
REMARK  8 active torsions:
REMARK  status: ('A' for Active; 'I' for Inactive)
REMARK    1  A    between atoms: C_2  and  C_3
REMARK    2  A    between atoms: C_3  and  N_4
REMARK    3  A    between atoms: C_3  and  C_26
REMARK    4  A    between atoms: N_4  and  C_5
REMARK    5  A    between atoms: C_5  and  C_6
REMARK    6  A    between atoms: C_9  and  C_10
REMARK    7  A    between atoms: C_10  and  N_11
REMARK    8  A    between atoms: C_12  and  C_14
REMARK                            x       y       z     vdW  Elec       q    Type
REMARK                         _______ _______ _______ _____ _____    ______ ____
ROOT
ATOM      1  C   UNL     1      45.518   6.344  11.670  0.00  0.00    +0.000 A 
ATOM      2  C   UNL     1      46.367   5.508  12.405  0.00  0.00    +0.000 A 
ATOM      3  C   UNL     1      47.302   6.049  13.289  0.00  0.00    +0.000 A 
ATOM      4  C   UNL     1      47.402   7.436  13.454  0.00  0.00    +0.000 A 
ATOM      5  C   UNL     1      46.560   8.273  12.709  0.00  0.00    +0.000 A 
ATOM      6  C   UNL     1      45.622   7.731  11.832  0.00  0.00    +0.000 A 
ENDROOT
BRANCH   1   7
ATOM      7  C   UNL     1      44.572   5.775  10.644  0.00  0.00    +0.000 C 
BRANCH   7   8
ATOM      8  N   UNL     1      45.276   5.210   9.485  0.00  0.00    +0.000 NA
ATOM      9  H   UNL     1      45.247   5.879   8.718  0.00  0.00    +0.000 HD
BRANCH   8  10
ATOM     10  C   UNL     1      44.651   3.943   9.026  0.00  0.00    +0.000 C 
BRANCH  10  11
ATOM     11  C   UNL     1      45.634   3.123   8.188  0.00  0.00    +0.000 A 
ATOM     12  C   UNL     1      46.272   3.642   7.049  0.00  0.00    +0.000 A 
ATOM     13  C   UNL     1      47.106   2.841   6.268  0.00  0.00    +0.000 A 
ATOM     14  C   UNL     1      47.315   1.508   6.608  0.00  0.00    +0.000 A 
ATOM     15  C   UNL     1      46.690   0.970   7.731  0.00  0.00    +0.000 A 
ATOM     16  C   UNL     1      45.861   1.771   8.518  0.00  0.00    +0.000 A 
ENDBRANCH  10  11
BRANCH  10  18
ATOM     17  N   UNL     1      43.547   2.573  11.012  0.00  0.00    +0.000 NA
ATOM     18  C   UNL     1      44.015   3.193  10.148  0.00  0.00    +0.000 C 
ENDBRANCH  10  18
ENDBRANCH   8  10
ENDBRANCH   7   8
ENDBRANCH   1   7
BRANCH   4  19
ATOM     19  C   UNL     1      48.435   8.039  14.369  0.00  0.00    +0.000 C 
BRANCH  19  20
ATOM     20  N   UNL     1      49.100   7.017  15.136  0.00  0.00    +0.000 N 
ATOM     21  C   UNL     1      50.127   7.329  15.991  0.00  0.00    +0.000 C 
ATOM     22  O   UNL     1      50.493   8.485  16.172  0.00  0.00    +0.000 OA
ATOM     23  H   UNL     1      49.001   6.059  14.811  0.00  0.00    +0.000 HD
BRANCH  21  24
ATOM     24  C   UNL     1      50.723   6.210  16.727  0.00  0.00    +0.000 A 
ATOM     25  C   UNL     1      49.915   5.376  17.486  0.00  0.00    +0.000 A 
ATOM     26  S   UNL     1      50.765   4.119  18.260  0.00  0.00    +0.000 S 
ATOM     27  C   UNL     1      52.252   4.665  17.646  0.00  0.00    +0.000 A 
ATOM     28  N   UNL     1      53.418   4.046  17.962  0.00  0.00    +0.000 NA
ATOM     29  C   UNL     1      54.469   4.580  17.440  0.00  0.00    +0.000 A 
ATOM     30  N   UNL     1      54.461   5.682  16.622  0.00  0.00    +0.000 N 
ATOM     31  C   UNL     1      53.308   6.328  16.253  0.00  0.00    +0.000 A 
ATOM     32  O   UNL     1      53.332   7.282  15.486  0.00  0.00    +0.000 OA
ATOM     33  C   UNL     1      52.096   5.779  16.830  0.00  0.00    +0.000 A 
ATOM     34  H   UNL     1      55.320   6.041  16.232  0.00  0.00    +0.000 HD
ENDBRANCH  21  24
ENDBRANCH  19  20
ENDBRANCH   4  19
TORSDOF 8
ENDMDL
MODEL 3
REMARK VINA RESULT:    -7.222      3.067      8.691
REMARK INTER + INTRA:         -11.726
REMARK INTER:                  -9.885
REMARK INTRA:                  -1.842
REMARK UNBOUND:                -1.128
REMARK  Name = 
REMARK  8 active torsions:
REMARK  status: ('A' for Active; 'I' for Inactive)
REMARK    1  A    between atoms: C_2  and  C_3
REMARK    2  A    between atoms: C_3  and  N_4
REMARK    3  A    between atoms: C_3  and  C_26
REMARK    4  A    between atoms: N_4  and  C_5
REMARK    5  A    between atoms: C_5  and  C_6
REMARK    6  A    between atoms: C_9  and  C_10
REMARK    7  A    between atoms: C_10  and  N_11
REMARK    8  A    between atoms: C_12  and  C_14
REMARK                            x       y       z     vdW  Elec       q    Type
REMARK                         _______ _______ _______ _____ _____    ______ ____
ROOT
ATOM      1  C   UNL     1      48.934   7.820  16.180  0.00  0.00    +0.000 A 
ATOM      2  C   UNL     1      48.360   8.980  15.644  0.00  0.00    +0.000 A 
ATOM      3  C   UNL     1      47.819   8.972  14.358  0.00  0.00    +0.000 A 
ATOM      4  C   UNL     1      47.840   7.804  13.586  0.00  0.00    +0.000 A 
ATOM      5  C   UNL     1      48.425   6.647  14.119  0.00  0.00    +0.000 A 
ATOM      6  C   UNL     1      48.959   6.654  15.406  0.00  0.00    +0.000 A 
ENDROOT
BRANCH   1   7
ATOM      7  C   UNL     1      49.605   7.842  17.529  0.00  0.00    +0.000 C 
BRANCH   7   8
ATOM      8  N   UNL     1      48.689   7.466  18.616  0.00  0.00    +0.000 NA
ATOM      9  H   UNL     1      48.639   8.228  19.289  0.00  0.00    +0.000 HD
BRANCH   8  10
ATOM     10  C   UNL     1      49.151   6.244  19.324  0.00  0.00    +0.000 C 
BRANCH  10  11
ATOM     11  C   UNL     1      48.803   4.986  18.524  0.00  0.00    +0.000 A 
ATOM     12  C   UNL     1      49.773   4.048  18.134  0.00  0.00    +0.000 A 
ATOM     13  C   UNL     1      49.430   2.950  17.344  0.00  0.00    +0.000 A 
ATOM     14  C   UNL     1      48.114   2.775  16.925  0.00  0.00    +0.000 A 
ATOM     15  C   UNL     1      47.136   3.694  17.296  0.00  0.00    +0.000 A 
ATOM     16  C   UNL     1      47.476   4.789  18.093  0.00  0.00    +0.000 A 
ENDBRANCH  10  11
BRANCH  10  18
ATOM     17  N   UNL     1      51.686   6.459  20.078  0.00  0.00    +0.000 NA
ATOM     18  C   UNL     1      50.581   6.342  19.737  0.00  0.00    +0.000 C 
ENDBRANCH  10  18
ENDBRANCH   8  10
ENDBRANCH   7   8
ENDBRANCH   1   7
BRANCH   4  19
ATOM     19  C   UNL     1      47.302   7.790  12.180  0.00  0.00    +0.000 C 
BRANCH  19  20
ATOM     20  N   UNL     1      46.655   6.536  11.891  0.00  0.00    +0.000 N 
ATOM     21  C   UNL     1      45.300   6.470  11.685  0.00  0.00    +0.000 C 
ATOM     22  O   UNL     1      44.591   7.471  11.695  0.00  0.00    +0.000 OA
ATOM     23  H   UNL     1      47.159   5.690  12.138  0.00  0.00    +0.000 HD
BRANCH  21  24
ATOM     24  C   UNL     1      44.751   5.143  11.389  0.00  0.00    +0.000 A 
ATOM     25  C   UNL     1      43.973   4.493  12.336  0.00  0.00    +0.000 A 
ATOM     26  S   UNL     1      43.400   2.972  11.823  0.00  0.00    +0.000 S 
ATOM     27  C   UNL     1      44.205   3.105  10.333  0.00  0.00    +0.000 A 
ATOM     28  N   UNL     1      44.161   2.106   9.415  0.00  0.00    +0.000 NA
ATOM     29  C   UNL     1      44.833   2.335   8.338  0.00  0.00    +0.000 A 
ATOM     30  N   UNL     1      45.546   3.482   8.092  0.00  0.00    +0.000 N 
ATOM     31  C   UNL     1      45.602   4.530   8.976  0.00  0.00    +0.000 A 
ATOM     32  O   UNL     1      46.211   5.557   8.706  0.00  0.00    +0.000 OA
ATOM     33  C   UNL     1      44.878   4.314  10.215  0.00  0.00    +0.000 A 
ATOM     34  H   UNL     1      46.039   3.606   7.220  0.00  0.00    +0.000 HD
ENDBRANCH  21  24
ENDBRANCH  19  20
ENDBRANCH   4  19
TORSDOF 8
ENDMDL
MODEL 4
REMARK VINA RESULT:    -7.012      3.232      5.504
REMARK INTER + INTRA:         -11.419
REMARK INTER:                  -9.876
REMARK INTRA:                  -1.543
REMARK UNBOUND:                -1.128
REMARK  Name = 
REMARK  8 active torsions:
REMARK  status: ('A' for Active; 'I' for Inactive)
REMARK    1  A    between atoms: C_2  and  C_3
REMARK    2  A    between atoms: C_3  and  N_4
REMARK    3  A    between atoms: C_3  and  C_26
REMARK    4  A    between atoms: N_4  and  C_5
REMARK    5  A    between atoms: C_5  and  C_6
REMARK    6  A    between atoms: C_9  and  C_10
REMARK    7  A    between atoms: C_10  and  N_11
REMARK    8  A    between atoms: C_12  and  C_14
REMARK                            x       y       z     vdW  Elec       q    Type
REMARK                         _______ _______ _______ _____ _____    ______ ____
ROOT
ATOM      1  C   UNL     1      47.608   5.914  14.332  0.00  0.00    +0.000 A 
ATOM      2  C   UNL     1      47.065   4.629  14.208  0.00  0.00    +0.000 A 
ATOM      3  C   UNL     1      47.181   3.710  15.253  0.00  0.00    +0.000 A 
ATOM      4  C   UNL     1      47.838   4.061  16.438  0.00  0.00    +0.000 A 
ATOM      5  C   UNL     1      48.391   5.343  16.555  0.00  0.00    +0.000 A 
ATOM      6  C   UNL     1      48.270   6.263  15.515  0.00  0.00    +0.000 A 
ENDROOT
BRANCH   1   7
ATOM      7  C   UNL     1      47.572   6.881  13.176  0.00  0.00    +0.000 C 
BRANCH   7   8
ATOM      8  N   UNL     1      46.303   7.618  13.102  0.00  0.00    +0.000 NA
ATOM      9  H   UNL     1      45.703   7.327  13.871  0.00  0.00    +0.000 HD
BRANCH   8  10
ATOM     10  C   UNL     1      45.590   7.356  11.825  0.00  0.00    +0.000 C 
BRANCH  10  11
ATOM     11  C   UNL     1      44.913   5.983  11.851  0.00  0.00    +0.000 A 
ATOM     12  C   UNL     1      45.163   5.000  10.879  0.00  0.00    +0.000 A 
ATOM     13  C   UNL     1      44.474   3.787  10.894  0.00  0.00    +0.000 A 
ATOM     14  C   UNL     1      43.520   3.536  11.877  0.00  0.00    +0.000 A 
ATOM     15  C   UNL     1      43.254   4.497  12.850  0.00  0.00    +0.000 A 
ATOM     16  C   UNL     1      43.948   5.708  12.840  0.00  0.00    +0.000 A 
ENDBRANCH  10  11
BRANCH  10  18
ATOM     17  N   UNL     1      44.029   9.388  11.137  0.00  0.00    +0.000 NA
ATOM     18  C   UNL     1      44.691   8.483  11.442  0.00  0.00    +0.000 C 
ENDBRANCH  10  18
ENDBRANCH   8  10
ENDBRANCH   7   8
ENDBRANCH   1   7
BRANCH   4  19
ATOM     19  C   UNL     1      48.011   3.067  17.556  0.00  0.00    +0.000 C 
BRANCH  19  20
ATOM     20  N   UNL     1      49.405   2.896  17.878  0.00  0.00    +0.000 N 
ATOM     21  C   UNL     1      50.225   2.130  17.091  0.00  0.00    +0.000 C 
ATOM     22  O   UNL     1      49.824   1.595  16.061  0.00  0.00    +0.000 OA
ATOM     23  H   UNL     1      49.684   3.097  18.835  0.00  0.00    +0.000 HD
BRANCH  21  24
ATOM     24  C   UNL     1      51.627   2.034  17.509  0.00  0.00    +0.000 A 
ATOM     25  C   UNL     1      52.199   0.788  17.721  0.00  0.00    +0.000 A 
ATOM     26  S   UNL     1      53.837   0.857  18.185  0.00  0.00    +0.000 S 
ATOM     27  C   UNL     1      53.834   2.556  18.161  0.00  0.00    +0.000 A 
ATOM     28  N   UNL     1      54.937   3.269  18.504  0.00  0.00    +0.000 NA
ATOM     29  C   UNL     1      54.785   4.549  18.459  0.00  0.00    +0.000 A 
ATOM     30  N   UNL     1      53.623   5.186  18.097  0.00  0.00    +0.000 N 
ATOM     31  C   UNL     1      52.490   4.511  17.719  0.00  0.00    +0.000 A 
ATOM     32  O   UNL     1      51.485   5.109  17.359  0.00  0.00    +0.000 OA
ATOM     33  C   UNL     1      52.601   3.065  17.772  0.00  0.00    +0.000 A 
ATOM     34  H   UNL     1      53.575   6.193  18.067  0.00  0.00    +0.000 HD
ENDBRANCH  21  24
ENDBRANCH  19  20
ENDBRANCH   4  19
TORSDOF 8
ENDMDL
MODEL 5
REMARK VINA RESULT:    -6.575      2.004      2.173
REMARK INTER + INTRA:         -10.778
REMARK INTER:                  -9.867
REMARK INTRA:                  -0.910
REMARK UNBOUND:                -1.128
REMARK  Name = 
REMARK  8 active torsions:
REMARK  status: ('A' for Active; 'I' for Inactive)
REMARK    1  A    between atoms: C_2  and  C_3
REMARK    2  A    between atoms: C_3  and  N_4
REMARK    3  A    between atoms: C_3  and  C_26
REMARK    4  A    between atoms: N_4  and  C_5
REMARK    5  A    between atoms: C_5  and  C_6
REMARK    6  A    between atoms: C_9  and  C_10
REMARK    7  A    between atoms: C_10  and  N_11
REMARK    8  A    between atoms: C_12  and  C_14
REMARK                            x       y       z     vdW  Elec       q    Type
REMARK                         _______ _______ _______ _____ _____    ______ ____
ROOT
ATOM      1  C   UNL     1      45.868   6.779  12.569  0.00  0.00    +0.000 A 
ATOM      2  C   UNL     1      46.879   6.102  13.261  0.00  0.00    +0.000 A 
ATOM      3  C   UNL     1      47.817   6.810  14.014  0.00  0.00    +0.000 A 
ATOM      4  C   UNL     1      47.757   8.206  14.090  0.00  0.00    +0.000 A 
ATOM      5  C   UNL     1      46.752   8.884  13.388  0.00  0.00    +0.000 A 
ATOM      6  C   UNL     1      45.811   8.176  12.641  0.00  0.00    +0.000 A 
ENDROOT
BRANCH   1   7
ATOM      7  C   UNL     1      44.908   6.033  11.677  0.00  0.00    +0.000 C 
BRANCH   7   8
ATOM      8  N   UNL     1      45.244   4.607  11.564  0.00  0.00    +0.000 NA
ATOM      9  H   UNL     1      46.219   4.514  11.290  0.00  0.00    +0.000 HD
BRANCH   8  10
ATOM     10  C   UNL     1      44.404   3.924  10.546  0.00  0.00    +0.000 C 
BRANCH  10  11
ATOM     11  C   UNL     1      45.251   3.475   9.353  0.00  0.00    +0.000 A 
ATOM     12  C   UNL     1      45.746   4.377   8.396  0.00  0.00    +0.000 A 
ATOM     13  C   UNL     1      46.453   3.922   7.283  0.00  0.00    +0.000 A 
ATOM     14  C   UNL     1      46.675   2.560   7.103  0.00  0.00    +0.000 A 
ATOM     15  C   UNL     1      46.191   1.646   8.037  0.00  0.00    +0.000 A 
ATOM     16  C   UNL     1      45.489   2.100   9.155  0.00  0.00    +0.000 A 
ENDBRANCH  10  11
BRANCH  10  18
ATOM     17  N   UNL     1      42.935   1.992  11.618  0.00  0.00    +0.000 NA
ATOM     18  C   UNL     1      43.556   2.852  11.145  0.00  0.00    +0.000 C 
ENDBRANCH  10  18
ENDBRANCH   8  10
ENDBRANCH   7   8
ENDBRANCH   1   7
BRANCH   4  19
ATOM     19  C   UNL     1      48.788   8.989  14.861  0.00  0.00    +0.000 C 
BRANCH  19  20
ATOM     20  N   UNL     1      49.400   8.171  15.876  0.00  0.00    +0.000 N 
ATOM     21  C   UNL     1      49.105   8.349  17.203  0.00  0.00    +0.000 C 
ATOM     22  O   UNL     1      48.281   9.177  17.580  0.00  0.00    +0.000 OA
ATOM     23  H   UNL     1      50.255   7.684  15.621  0.00  0.00    +0.000 HD
BRANCH  21  24
ATOM     24  C   UNL     1      49.780   7.454  18.147  0.00  0.00    +0.000 A 
ATOM     25  C   UNL     1      51.164   7.464  18.236  0.00  0.00    +0.000 A 
ATOM     26  S   UNL     1      51.783   6.377  19.394  0.00  0.00    +0.000 S 
ATOM     27  C   UNL     1      50.228   5.821  19.790  0.00  0.00    +0.000 A 
ATOM     28  N   UNL     1      50.042   4.837  20.707  0.00  0.00    +0.000 NA
ATOM     29  C   UNL     1      48.811   4.502  20.894  0.00  0.00    +0.000 A 
ATOM     30  N   UNL     1      47.740   5.068  20.247  0.00  0.00    +0.000 N 
ATOM     31  C   UNL     1      47.873   6.081  19.331  0.00  0.00    +0.000 A 
ATOM     32  O   UNL     1      46.894   6.593  18.805  0.00  0.00    +0.000 OA
ATOM     33  C   UNL     1      49.242   6.482  19.068  0.00  0.00    +0.000 A 
ATOM     34  H   UNL     1      46.798   4.770  20.452  0.00  0.00    +0.000 HD
ENDBRANCH  21  24
ENDBRANCH  19  20
ENDBRANCH   4  19
TORSDOF 8
ENDMDL
MODEL 6
REMARK VINA RESULT:    -6.490      3.441      5.243
REMARK INTER + INTRA:         -10.652
REMARK INTER:                  -9.118
REMARK INTRA:                  -1.534
REMARK UNBOUND:                -1.128
REMARK  Name = 
REMARK  8 active torsions:
REMARK  status: ('A' for Active; 'I' for Inactive)
REMARK    1  A    between atoms: C_2  and  C_3
REMARK    2  A    between atoms: C_3  and  N_4
REMARK    3  A    between atoms: C_3  and  C_26
REMARK    4  A    between atoms: N_4  and  C_5
REMARK    5  A    between atoms: C_5  and  C_6
REMARK    6  A    between atoms: C_9  and  C_10
REMARK    7  A    between atoms: C_10  and  N_11
REMARK    8  A    between atoms: C_12  and  C_14
REMARK                            x       y       z     vdW  Elec       q    Type
REMARK                         _______ _______ _______ _____ _____    ______ ____
ROOT
ATOM      1  C   UNL     1      47.485   6.259  13.863  0.00  0.00    +0.000 A 
ATOM      2  C   UNL     1      46.887   5.009  14.070  0.00  0.00    +0.000 A 
ATOM      3  C   UNL     1      47.179   4.266  15.215  0.00  0.00    +0.000 A 
ATOM      4  C   UNL     1      48.070   4.761  16.174  0.00  0.00    +0.000 A 
ATOM      5  C   UNL     1      48.678   6.006  15.960  0.00  0.00    +0.000 A 
ATOM      6  C   UNL     1      48.381   6.751  14.820  0.00  0.00    +0.000 A 
ENDROOT
BRANCH   1   7
ATOM      7  C   UNL     1      47.252   7.026  12.587  0.00  0.00    +0.000 C 
BRANCH   7   8
ATOM      8  N   UNL     1      45.977   7.758  12.599  0.00  0.00    +0.000 NA
ATOM      9  H   UNL     1      45.465   7.522  13.447  0.00  0.00    +0.000 HD
BRANCH   8  10
ATOM     10  C   UNL     1      45.132   7.407  11.429  0.00  0.00    +0.000 C 
BRANCH  10  11
ATOM     11  C   UNL     1      44.511   6.018  11.601  0.00  0.00    +0.000 A 
ATOM     12  C   UNL     1      43.664   5.698  12.674  0.00  0.00    +0.000 A 
ATOM     13  C   UNL     1      43.175   4.402  12.838  0.00  0.00    +0.000 A 
ATOM     14  C   UNL     1      43.528   3.402  11.935  0.00  0.00    +0.000 A 
ATOM     15  C   UNL     1      44.369   3.696  10.865  0.00  0.00    +0.000 A 
ATOM     16  C   UNL     1      44.853   4.994  10.695  0.00  0.00    +0.000 A 
ENDBRANCH  10  11
BRANCH  10  18
ATOM     17  N   UNL     1      43.424   9.357  10.862  0.00  0.00    +0.000 NA
ATOM     18  C   UNL     1      44.156   8.487  11.098  0.00  0.00    +0.000 C 
ENDBRANCH  10  18
ENDBRANCH   8  10
ENDBRANCH   7   8
ENDBRANCH   1   7
BRANCH   4  19
ATOM     19  C   UNL     1      48.431   3.953  17.392  0.00  0.00    +0.000 C 
BRANCH  19  20
ATOM     20  N   UNL     1      49.837   3.643  17.404  0.00  0.00    +0.000 N 
ATOM     21  C   UNL     1      50.650   4.079  18.419  0.00  0.00    +0.000 C 
ATOM     22  O   UNL     1      50.213   4.711  19.376  0.00  0.00    +0.000 OA
ATOM     23  H   UNL     1      50.255   3.367  16.520  0.00  0.00    +0.000 HD
BRANCH  21  24
ATOM     24  C   UNL     1      52.062   3.696  18.333  0.00  0.00    +0.000 A 
ATOM     25  C   UNL     1      53.048   4.624  18.638  0.00  0.00    +0.000 A 
ATOM     26  S   UNL     1      54.631   4.010  18.505  0.00  0.00    +0.000 S 
ATOM     27  C   UNL     1      54.063   2.492  17.994  0.00  0.00    +0.000 A 
ATOM     28  N   UNL     1      54.920   1.491  17.667  0.00  0.00    +0.000 NA
ATOM     29  C   UNL     1      54.350   0.401  17.278  0.00  0.00    +0.000 A 
ATOM     30  N   UNL     1      52.991   0.219  17.190  0.00  0.00    +0.000 N 
ATOM     31  C   UNL     1      52.085   1.191  17.531  0.00  0.00    +0.000 A 
ATOM     32  O   UNL     1      50.880   0.980  17.482  0.00  0.00    +0.000 OA
ATOM     33  C   UNL     1      52.675   2.446  17.956  0.00  0.00    +0.000 A 
ATOM     34  H   UNL     1      52.608  -0.666  16.892  0.00  0.00    +0.000 HD
ENDBRANCH  21  24
ENDBRANCH  19  20
ENDBRANCH   4  19
TORSDOF 8
ENDMDL
MODEL 7
REMARK VINA RESULT:    -6.108      3.682      9.220
REMARK INTER + INTRA:         -10.092
REMARK INTER:                  -8.866
REMARK INTRA:                  -1.226
REMARK UNBOUND:                -1.128
REMARK  Name = 
REMARK  8 active torsions:
REMARK  status: ('A' for Active; 'I' for Inactive)
REMARK    1  A    between atoms: C_2  and  C_3
REMARK    2  A    between atoms: C_3  and  N_4
REMARK    3  A    between atoms: C_3  and  C_26
REMARK    4  A    between atoms: N_4  and  C_5
REMARK    5  A    between atoms: C_5  and  C_6
REMARK    6  A    between atoms: C_9  and  C_10
REMARK    7  A    between atoms: C_10  and  N_11
REMARK    8  A    between atoms: C_12  and  C_14
REMARK                            x       y       z     vdW  Elec       q    Type
REMARK                         _______ _______ _______ _____ _____    ______ ____
ROOT
ATOM      1  C   UNL     1      46.576   6.781  13.274  0.00  0.00    +0.000 A 
ATOM      2  C   UNL     1      45.317   7.008  12.703  0.00  0.00    +0.000 A 
ATOM      3  C   UNL     1      44.523   5.935  12.293  0.00  0.00    +0.000 A 
ATOM      4  C   UNL     1      44.973   4.619  12.451  0.00  0.00    +0.000 A 
ATOM      5  C   UNL     1      46.238   4.394  13.012  0.00  0.00    +0.000 A 
ATOM      6  C   UNL     1      47.027   5.465  13.427  0.00  0.00    +0.000 A 
ENDROOT
BRANCH   1   7
ATOM      7  C   UNL     1      47.480   7.933  13.631  0.00  0.00    +0.000 C 
BRANCH   7   8
ATOM      8  N   UNL     1      48.888   7.526  13.742  0.00  0.00    +0.000 NA
ATOM      9  H   UNL     1      48.944   6.509  13.729  0.00  0.00    +0.000 HD
BRANCH   8  10
ATOM     10  C   UNL     1      49.503   8.013  15.004  0.00  0.00    +0.000 C 
BRANCH  10  11
ATOM     11  C   UNL     1      49.775   6.850  15.961  0.00  0.00    +0.000 A 
ATOM     12  C   UNL     1      48.745   6.148  16.609  0.00  0.00    +0.000 A 
ATOM     13  C   UNL     1      49.034   5.141  17.530  0.00  0.00    +0.000 A 
ATOM     14  C   UNL     1      50.357   4.821  17.824  0.00  0.00    +0.000 A 
ATOM     15  C   UNL     1      51.395   5.505  17.197  0.00  0.00    +0.000 A 
ATOM     16  C   UNL     1      51.107   6.508  16.270  0.00  0.00    +0.000 A 
ENDBRANCH  10  11
BRANCH  10  18
ATOM     17  N   UNL     1      51.569   9.605  14.519  0.00  0.00    +0.000 NA
ATOM     18  C   UNL     1      50.677   8.897  14.751  0.00  0.00    +0.000 C 
ENDBRANCH  10  18
ENDBRANCH   8  10
ENDBRANCH   7   8
ENDBRANCH   1   7
BRANCH   4  19
ATOM     19  C   UNL     1      44.150   3.452  11.974  0.00  0.00    +0.000 C 
BRANCH  19  20
ATOM     20  N   UNL     1      44.864   2.692  10.981  0.00  0.00    +0.000 N 
ATOM     21  C   UNL     1      44.668   2.916   9.642  0.00  0.00    +0.000 C 
ATOM     22  O   UNL     1      43.916   3.794   9.233  0.00  0.00    +0.000 OA
ATOM     23  H   UNL     1      45.270   1.810  11.280  0.00  0.00    +0.000 HD
BRANCH  21  24
ATOM     24  C   UNL     1      45.456   2.091   8.721  0.00  0.00    +0.000 A 
ATOM     25  C   UNL     1      45.338   0.709   8.762  0.00  0.00    +0.000 A 
ATOM     26  S   UNL     1      46.308  -0.095   7.615  0.00  0.00    +0.000 S 
ATOM     27  C   UNL     1      46.954   1.370   7.047  0.00  0.00    +0.000 A 
ATOM     28  N   UNL     1      47.895   1.395   6.068  0.00  0.00    +0.000 NA
ATOM     29  C   UNL     1      48.310   2.574   5.751  0.00  0.00    +0.000 A 
ATOM     30  N   UNL     1      47.862   3.739   6.322  0.00  0.00    +0.000 N 
ATOM     31  C   UNL     1      46.896   3.769   7.296  0.00  0.00    +0.000 A 
ATOM     32  O   UNL     1      46.488   4.828   7.754  0.00  0.00    +0.000 OA
ATOM     33  C   UNL     1      46.410   2.465   7.706  0.00  0.00    +0.000 A 
ATOM     34  H   UNL     1      48.217   4.633   6.016  0.00  0.00    +0.000 HD
ENDBRANCH  21  24
ENDBRANCH  19  20
ENDBRANCH   4  19
TORSDOF 8
ENDMDL
