MODEL 1
REMARK VINA RESULT:    -8.474      0.000      0.000
REMARK INTER + INTRA:         -12.122
REMARK INTER:                 -11.446
REMARK INTRA:                  -0.676
REMARK UNBOUND:                -0.676
REMARK  Name = 
REMARK  7 active torsions:
REMARK  status: ('A' for Active; 'I' for Inactive)
REMARK    1  A    between atoms: N_1  and  C_2
REMARK    2  A    between atoms: C_2  and  C_3
REMARK    3  A    between atoms: C_7  and  C_8
REMARK    4  A    between atoms: C_8  and  N_9
REMARK    5  A    between atoms: N_9  and  C_10
REMARK    6  A    between atoms: C_13  and  C_14
REMARK    7  A    between atoms: C_14  and  O_16
REMARK                            x       y       z     vdW  Elec       q    Type
REMARK                         _______ _______ _______ _____ _____    ______ ____
ROOT
ATOM      1  N   UNL     1      43.756   4.803   9.758  0.00  0.00    +0.000 N 
ATOM      2  H   UNL     1      42.846   4.860   9.304  0.00  0.00    +0.000 HD
ENDROOT
BRANCH   1   3
ATOM      3  C   UNL     1      44.648   3.944   9.138  0.00  0.00    +0.000 A 
ATOM      4  C   UNL     1      45.589   4.345   8.183  0.00  0.00    +0.000 A 
ATOM      5  C   UNL     1      46.447   3.421   7.568  0.00  0.00    +0.000 A 
ATOM      6  C   UNL     1      46.335   2.060   7.861  0.00  0.00    +0.000 A 
ATOM      7  C   UNL     1      45.379   1.638   8.786  0.00  0.00    +0.000 A 
ATOM      8  C   UNL     1      44.545   2.572   9.409  0.00  0.00    +0.000 A 
BRANCH   6   9
ATOM      9  C   UNL     1      47.223   1.033   7.261  0.00  0.00    +0.000 C 
ATOM     10  O   UNL     1      48.095   1.305   6.452  0.00  0.00    +0.000 OA
BRANCH   9  11
ATOM     11  O   UNL     1      47.010  -0.221   7.711  0.00  0.00    +0.000 OA
ATOM     12  H   UNL     1      46.211  -0.333   8.260  0.00  0.00    +0.000 HD
ENDBRANCH   9  11
ENDBRANCH   6   9
ENDBRANCH   1   3
BRANCH   1  13
ATOM     13  C   UNL     1      43.696   5.050  11.191  0.00  0.00    +0.000 C 
BRANCH  13  18
ATOM     14  C   UNL     1      46.626   5.224  13.632  0.00  0.00    +0.000 A 
ATOM     15  C   UNL     1      47.442   6.191  13.036  0.00  0.00    +0.000 A 
ATOM     16  C   UNL     1      47.046   6.812  11.854  0.00  0.00    +0.000 A 
ATOM     17  C   UNL     1      45.840   6.459  11.246  0.00  0.00    +0.000 A 
ATOM     18  C   UNL     1      45.015   5.474  11.802  0.00  0.00    +0.000 A 
ATOM     19  C   UNL     1      45.415   4.880  13.012  0.00  0.00    +0.000 A 
BRANCH  14  20
ATOM     20  C   UNL     1      47.075   4.505  14.876  0.00  0.00    +0.000 C 
BRANCH  20  21
ATOM     21  N   UNL     1      47.464   3.137  14.560  0.00  0.00    +0.000 NA
ATOM     22  H   UNL     1      48.476   3.057  14.612  0.00  0.00    +0.000 HD
ATOM     23  H   UNL     1      47.211   2.938  13.594  0.00  0.00    +0.000 HD
ENDBRANCH  20  21
ENDBRANCH  14  20
ENDBRANCH  13  18
ENDBRANCH   1  13
TORSDOF 7
ENDMDL
MODEL 2
REMARK VINA RESULT:    -7.991      1.586      2.159
REMARK INTER + INTRA:         -11.470
REMARK INTER:                 -10.789
REMARK INTRA:                  -0.680
REMARK UNBOUND:                -0.676
REMARK  Name = 
REMARK  7 active torsions:
REMARK  status: ('A' for Active; 'I' for Inactive)
REMARK    1  A    between atoms: N_1  and  C_2
REMARK    2  A    between atoms: C_2  and  C_3
REMARK    3  A    between atoms: C_7  and  C_8
REMARK    4  A    between atoms: C_8  and  N_9
REMARK    5  A    between atoms: N_9  and  C_10
REMARK    6  A    between atoms: C_13  and  C_14
REMARK    7  A    between atoms: C_14  and  O_16
REMARK                            x       y       z     vdW  Elec       q    Type
REMARK                         _______ _______ _______ _____ _____    ______ ____
ROOT
ATOM      1  N   UNL     1      43.690   4.791   9.776  0.00  0.00    +0.000 N 
ATOM      2  H   UNL     1      42.854   4.978   9.226  0.00  0.00    +0.000 HD
ENDROOT
BRANCH   1   3
ATOM      3  C   UNL     1      44.594   3.938   9.165  0.00  0.00    +0.000 A 
ATOM      4  C   UNL     1      45.554   4.349   8.233  0.00  0.00    +0.000 A 
ATOM      5  C   UNL     1      46.424   3.431   7.626  0.00  0.00    +0.000 A 
ATOM      6  C   UNL     1      46.306   2.066   7.904  0.00  0.00    +0.000 A 
ATOM      7  C   UNL     1      45.332   1.635   8.806  0.00  0.00    +0.000 A 
ATOM      8  C   UNL     1      44.486   2.564   9.421  0.00  0.00    +0.000 A 
BRANCH   6   9
ATOM      9  C   UNL     1      47.206   1.045   7.312  0.00  0.00    +0.000 C 
ATOM     10  O   UNL     1      48.097   1.326   6.527  0.00  0.00    +0.000 OA
BRANCH   9  11
ATOM     11  O   UNL     1      46.979  -0.214   7.741  0.00  0.00    +0.000 OA
ATOM     12  H   UNL     1      46.718  -0.291   8.677  0.00  0.00    +0.000 HD
ENDBRANCH   9  11
ENDBRANCH   6   9
ENDBRANCH   1   3
BRANCH   1  13
ATOM     13  C   UNL     1      43.460   4.874  11.211  0.00  0.00    +0.000 C 
BRANCH  13  18
ATOM     14  C   UNL     1      46.082   7.087  12.886  0.00  0.00    +0.000 A 
ATOM     15  C   UNL     1      46.931   6.140  13.469  0.00  0.00    +0.000 A 
ATOM     16  C   UNL     1      46.679   4.779  13.309  0.00  0.00    +0.000 A 
ATOM     17  C   UNL     1      45.567   4.352  12.582  0.00  0.00    +0.000 A 
ATOM     18  C   UNL     1      44.681   5.275  12.011  0.00  0.00    +0.000 A 
ATOM     19  C   UNL     1      44.968   6.644  12.156  0.00  0.00    +0.000 A 
BRANCH  14  20
ATOM     20  C   UNL     1      46.312   8.558  13.105  0.00  0.00    +0.000 C 
BRANCH  20  21
ATOM     21  N   UNL     1      45.087   9.307  12.859  0.00  0.00    +0.000 NA
ATOM     22  H   UNL     1      45.073   9.614  11.889  0.00  0.00    +0.000 HD
ATOM     23  H   UNL     1      45.097  10.152  13.427  0.00  0.00    +0.000 HD
ENDBRANCH  20  21
ENDBRANCH  14  20
ENDBRANCH  13  18
ENDBRANCH   1  13
TORSDOF 7
ENDMDL
MODEL 3
REMARK VINA RESULT:    -7.349      3.561      6.554
REMARK INTER + INTRA:         -10.603
REMARK INTER:                 -10.064
REMARK INTRA:                  -0.539
REMARK UNBOUND:                -0.676
REMARK  Name = 
REMARK  7 active torsions:
REMARK  status: ('A' for Active; 'I' for Inactive)
REMARK    1  A    between atoms: N_1  and  C_2
REMARK    2  A    between atoms: C_2  and  C_3
REMARK    3  A    between atoms: C_7  and  C_8
REMARK    4  A    between atoms: C_8  and  N_9
REMARK    5  A    between atoms: N_9  and  C_10
REMARK    6  A    between atoms: C_13  and  C_14
REMARK    7  A    between atoms: C_14  and  O_16
REMARK                            x       y       z     vdW  Elec       q    Type
REMARK                         _______ _______ _______ _____ _____    ______ ____
ROOT
ATOM      1  N   UNL     1      44.936   5.338   9.722  0.00  0.00    +0.000 N 
ATOM      2  H   UNL     1      45.473   5.921   9.084  0.00  0.00    +0.000 HD
ENDROOT
BRANCH   1   3
ATOM      3  C   UNL     1      45.471   5.248  10.997  0.00  0.00    +0.000 A 
ATOM      4  C   UNL     1      46.438   6.121  11.506  0.00  0.00    +0.000 A 
ATOM      5  C   UNL     1      46.963   5.959  12.796  0.00  0.00    +0.000 A 
ATOM      6  C   UNL     1      46.565   4.876  13.583  0.00  0.00    +0.000 A 
ATOM      7  C   UNL     1      45.625   3.975  13.079  0.00  0.00    +0.000 A 
ATOM      8  C   UNL     1      45.093   4.161  11.799  0.00  0.00    +0.000 A 
BRANCH   6   9
ATOM      9  C   UNL     1      47.066   4.657  14.963  0.00  0.00    +0.000 C 
ATOM     10  O   UNL     1      46.986   3.581  15.533  0.00  0.00    +0.000 OA
BRANCH   9  11
ATOM     11  O   UNL     1      47.649   5.739  15.522  0.00  0.00    +0.000 OA
ATOM     12  H   UNL     1      47.751   5.699  16.491  0.00  0.00    +0.000 HD
ENDBRANCH   9  11
ENDBRANCH   6   9
ENDBRANCH   1   3
BRANCH   1  13
ATOM     13  C   UNL     1      44.202   4.277   9.049  0.00  0.00    +0.000 C 
BRANCH  13  18
ATOM     14  C   UNL     1      46.617   2.599   6.614  0.00  0.00    +0.000 A 
ATOM     15  C   UNL     1      46.743   1.319   7.167  0.00  0.00    +0.000 A 
ATOM     16  C   UNL     1      46.034   0.978   8.316  0.00  0.00    +0.000 A 
ATOM     17  C   UNL     1      45.208   1.918   8.935  0.00  0.00    +0.000 A 
ATOM     18  C   UNL     1      45.083   3.216   8.424  0.00  0.00    +0.000 A 
ATOM     19  C   UNL     1      45.782   3.533   7.246  0.00  0.00    +0.000 A 
BRANCH  14  20
ATOM     20  C   UNL     1      47.427   2.994   5.409  0.00  0.00    +0.000 C 
BRANCH  20  21
ATOM     21  N   UNL     1      48.506   2.041   5.186  0.00  0.00    +0.000 NA
ATOM     22  H   UNL     1      49.395   2.536   5.191  0.00  0.00    +0.000 HD
ATOM     23  H   UNL     1      48.406   1.643   4.254  0.00  0.00    +0.000 HD
ENDBRANCH  20  21
ENDBRANCH  14  20
ENDBRANCH  13  18
ENDBRANCH   1  13
TORSDOF 7
ENDMDL
MODEL 4
REMARK VINA RESULT:    -7.040      3.589      6.271
REMARK INTER + INTRA:         -10.186
REMARK INTER:                  -9.640
REMARK INTRA:                  -0.546
REMARK UNBOUND:                -0.676
REMARK  Name = 
REMARK  7 active torsions:
REMARK  status: ('A' for Active; 'I' for Inactive)
REMARK    1  A    between atoms: N_1  and  C_2
REMARK    2  A    between atoms: C_2  and  C_3
REMARK    3  A    between atoms: C_7  and  C_8
REMARK    4  A    between atoms: C_8  and  N_9
REMARK    5  A    between atoms: N_9  and  C_10
REMARK    6  A    between atoms: C_13  and  C_14
REMARK    7  A    between atoms: C_14  and  O_16
REMARK                            x       y       z     vdW  Elec       q    Type
REMARK                         _______ _______ _______ _____ _____    ______ ____
ROOT
ATOM      1  N   UNL     1      43.923   3.863  11.252  0.00  0.00    +0.000 N 
ATOM      2  H   UNL     1      43.272   4.593  10.970  0.00  0.00    +0.000 HD
ENDROOT
BRANCH   1   3
ATOM      3  C   UNL     1      44.980   4.312  12.026  0.00  0.00    +0.000 A 
ATOM      4  C   UNL     1      45.752   3.489  12.855  0.00  0.00    +0.000 A 
ATOM      5  C   UNL     1      46.792   4.009  13.638  0.00  0.00    +0.000 A 
ATOM      6  C   UNL     1      47.042   5.383  13.647  0.00  0.00    +0.000 A 
ATOM      7  C   UNL     1      46.260   6.224  12.852  0.00  0.00    +0.000 A 
ATOM      8  C   UNL     1      45.240   5.689  12.059  0.00  0.00    +0.000 A 
BRANCH   6   9
ATOM      9  C   UNL     1      48.139   5.996  14.437  0.00  0.00    +0.000 C 
ATOM     10  O   UNL     1      49.092   6.556  13.921  0.00  0.00    +0.000 OA
BRANCH   9  11
ATOM     11  O   UNL     1      47.977   5.912  15.775  0.00  0.00    +0.000 OA
ATOM     12  H   UNL     1      47.374   5.206  16.075  0.00  0.00    +0.000 HD
ENDBRANCH   9  11
ENDBRANCH   6   9
ENDBRANCH   1   3
BRANCH   1  13
ATOM     13  C   UNL     1      43.993   2.761  10.305  0.00  0.00    +0.000 C 
BRANCH  13  18
ATOM     14  C   UNL     1      46.602   1.964   7.635  0.00  0.00    +0.000 A 
ATOM     15  C   UNL     1      46.879   3.232   7.113  0.00  0.00    +0.000 A 
ATOM     16  C   UNL     1      46.245   4.359   7.632  0.00  0.00    +0.000 A 
ATOM     17  C   UNL     1      45.314   4.227   8.663  0.00  0.00    +0.000 A 
ATOM     18  C   UNL     1      44.992   2.968   9.186  0.00  0.00    +0.000 A 
ATOM     19  C   UNL     1      45.665   1.846   8.672  0.00  0.00    +0.000 A 
BRANCH  14  20
ATOM     20  C   UNL     1      47.237   0.736   7.038  0.00  0.00    +0.000 C 
BRANCH  20  21
ATOM     21  N   UNL     1      46.795  -0.458   7.744  0.00  0.00    +0.000 NA
ATOM     22  H   UNL     1      46.132  -0.965   7.162  0.00  0.00    +0.000 HD
ATOM     23  H   UNL     1      46.287  -0.177   8.580  0.00  0.00    +0.000 HD
ENDBRANCH  20  21
ENDBRANCH  14  20
ENDBRANCH  13  18
ENDBRANCH   1  13
TORSDOF 7
ENDMDL
MODEL 5
REMARK VINA RESULT:    -7.014      3.936      6.554
REMARK INTER + INTRA:         -10.151
REMARK INTER:                  -9.665
REMARK INTRA:                  -0.486
REMARK UNBOUND:                -0.676
REMARK  Name = 
REMARK  7 active torsions:
REMARK  status: ('A' for Active; 'I' for Inactive)
REMARK    1  A    between atoms: N_1  and  C_2
REMARK    2  A    between atoms: C_2  and  C_3
REMARK    3  A    between atoms: C_7  and  C_8
REMARK    4  A    between atoms: C_8  and  N_9
REMARK    5  A    between atoms: N_9  and  C_10
REMARK    6  A    between atoms: C_13  and  C_14
REMARK    7  A    between atoms: C_14  and  O_16
REMARK                            x       y       z     vdW  Elec       q    Type
REMARK                         _______ _______ _______ _____ _____    ______ ____
ROOT
ATOM      1  N   UNL     1      44.646   3.242  11.604  0.00  0.00    +0.000 N 
ATOM      2  H   UNL     1      44.364   2.656  12.387  0.00  0.00    +0.000 HD
ENDROOT
BRANCH   1   3
ATOM      3  C   UNL     1      44.860   4.570  11.935  0.00  0.00    +0.000 A 
ATOM      4  C   UNL     1      44.039   5.624  11.519  0.00  0.00    +0.000 A 
ATOM      5  C   UNL     1      44.325   6.954  11.864  0.00  0.00    +0.000 A 
ATOM      6  C   UNL     1      45.481   7.255  12.589  0.00  0.00    +0.000 A 
ATOM      7  C   UNL     1      46.328   6.219  12.984  0.00  0.00    +0.000 A 
ATOM      8  C   UNL     1      46.019   4.896  12.652  0.00  0.00    +0.000 A 
BRANCH   6   9
ATOM      9  C   UNL     1      45.832   8.637  13.003  0.00  0.00    +0.000 C 
ATOM     10  O   UNL     1      45.423   9.626  12.417  0.00  0.00    +0.000 OA
BRANCH   9  11
ATOM     11  O   UNL     1      46.612   8.708  14.102  0.00  0.00    +0.000 OA
ATOM     12  H   UNL     1      47.531   8.992  13.939  0.00  0.00    +0.000 HD
ENDBRANCH   9  11
ENDBRANCH   6   9
ENDBRANCH   1   3
BRANCH   1  13
ATOM     13  C   UNL     1      44.131   2.774  10.325  0.00  0.00    +0.000 C 
BRANCH  13  18
ATOM     14  C   UNL     1      46.630   1.849   7.592  0.00  0.00    +0.000 A 
ATOM     15  C   UNL     1      46.929   3.099   7.038  0.00  0.00    +0.000 A 
ATOM     16  C   UNL     1      46.345   4.253   7.554  0.00  0.00    +0.000 A 
ATOM     17  C   UNL     1      45.443   4.169   8.616  0.00  0.00    +0.000 A 
ATOM     18  C   UNL     1      45.100   2.930   9.173  0.00  0.00    +0.000 A 
ATOM     19  C   UNL     1      45.723   1.779   8.660  0.00  0.00    +0.000 A 
BRANCH  14  20
ATOM     20  C   UNL     1      47.209   0.592   7.000  0.00  0.00    +0.000 C 
BRANCH  20  21
ATOM     21  N   UNL     1      46.781  -0.572   7.763  0.00  0.00    +0.000 NA
ATOM     22  H   UNL     1      46.961  -1.413   7.219  0.00  0.00    +0.000 HD
ATOM     23  H   UNL     1      45.773  -0.527   7.895  0.00  0.00    +0.000 HD
ENDBRANCH  20  21
ENDBRANCH  14  20
ENDBRANCH  13  18
ENDBRANCH   1  13
TORSDOF 7
ENDMDL
MODEL 6
REMARK VINA RESULT:    -6.009      3.928      6.718
REMARK INTER + INTRA:          -8.792
REMARK INTER:                  -8.302
REMARK INTRA:                  -0.491
REMARK UNBOUND:                -0.676
REMARK  Name = 
REMARK  7 active torsions:
REMARK  status: ('A' for Active; 'I' for Inactive)
REMARK    1  A    between atoms: N_1  and  C_2
REMARK    2  A    between atoms: C_2  and  C_3
REMARK    3  A    between atoms: C_7  and  C_8
REMARK    4  A    between atoms: C_8  and  N_9
REMARK    5  A    between atoms: N_9  and  C_10
REMARK    6  A    between atoms: C_13  and  C_14
REMARK    7  A    between atoms: C_14  and  O_16
REMARK                            x       y       z     vdW  Elec       q    Type
REMARK                         _______ _______ _______ _____ _____    ______ ____
ROOT
ATOM      1  N   UNL     1      44.850   6.449  10.699  0.00  0.00    +0.000 N 
ATOM      2  H   UNL     1      45.188   6.758   9.790  0.00  0.00    +0.000 HD
ENDROOT
BRANCH   1   3
ATOM      3  C   UNL     1      45.724   6.697  11.745  0.00  0.00    +0.000 A 
ATOM      4  C   UNL     1      45.960   7.967  12.286  0.00  0.00    +0.000 A 
ATOM      5  C   UNL     1      46.881   8.158  13.327  0.00  0.00    +0.000 A 
ATOM      6  C   UNL     1      47.627   7.080  13.808  0.00  0.00    +0.000 A 
ATOM      7  C   UNL     1      47.427   5.812  13.258  0.00  0.00    +0.000 A 
ATOM      8  C   UNL     1      46.491   5.631  12.236  0.00  0.00    +0.000 A 
BRANCH   6   9
ATOM      9  C   UNL     1      48.601   7.210  14.920  0.00  0.00    +0.000 C 
ATOM     10  O   UNL     1      49.733   6.757  14.863  0.00  0.00    +0.000 OA
BRANCH   9  11
ATOM     11  O   UNL     1      48.144   7.902  15.985  0.00  0.00    +0.000 OA
ATOM     12  H   UNL     1      48.625   7.744  16.818  0.00  0.00    +0.000 HD
ENDBRANCH   9  11
ENDBRANCH   6   9
ENDBRANCH   1   3
BRANCH   1  13
ATOM     13  C   UNL     1      43.951   5.308  10.618  0.00  0.00    +0.000 C 
BRANCH  13  18
ATOM     14  C   UNL     1      45.817   3.424   7.872  0.00  0.00    +0.000 A 
ATOM     15  C   UNL     1      45.530   2.091   8.188  0.00  0.00    +0.000 A 
ATOM     16  C   UNL     1      44.714   1.788   9.276  0.00  0.00    +0.000 A 
ATOM     17  C   UNL     1      44.194   2.812  10.069  0.00  0.00    +0.000 A 
ATOM     18  C   UNL     1      44.486   4.154   9.797  0.00  0.00    +0.000 A 
ATOM     19  C   UNL     1      45.285   4.443   8.676  0.00  0.00    +0.000 A 
BRANCH  14  20
ATOM     20  C   UNL     1      46.747   3.757   6.736  0.00  0.00    +0.000 C 
BRANCH  20  21
ATOM     21  N   UNL     1      47.949   2.937   6.806  0.00  0.00    +0.000 NA
ATOM     22  H   UNL     1      48.755   3.539   6.957  0.00  0.00    +0.000 HD
ATOM     23  H   UNL     1      48.093   2.487   5.905  0.00  0.00    +0.000 HD
ENDBRANCH  20  21
ENDBRANCH  14  20
ENDBRANCH  13  18
ENDBRANCH   1  13
TORSDOF 7
ENDMDL
MODEL 7
REMARK VINA RESULT:    -5.696      3.270      5.313
REMARK INTER + INTRA:          -8.370
REMARK INTER:                  -7.881
REMARK INTRA:                  -0.489
REMARK UNBOUND:                -0.676
REMARK  Name = 
REMARK  7 active torsions:
REMARK  status: ('A' for Active; 'I' for Inactive)
REMARK    1  A    between atoms: N_1  and  C_2
REMARK    2  A    between atoms: C_2  and  C_3
REMARK    3  A    between atoms: C_7  and  C_8
REMARK    4  A    between atoms: C_8  and  N_9
REMARK    5  A    between atoms: N_9  and  C_10
REMARK    6  A    between atoms: C_13  and  C_14
REMARK    7  A    between atoms: C_14  and  O_16
REMARK                            x       y       z     vdW  Elec       q    Type
REMARK                         _______ _______ _______ _____ _____    ______ ____
ROOT
ATOM      1  N   UNL     1      47.127   7.009  13.979  0.00  0.00    +0.000 N 
ATOM      2  H   UNL     1      46.608   7.529  14.684  0.00  0.00    +0.000 HD
ENDROOT
BRANCH   1   3
ATOM      3  C   UNL     1      46.338   6.214  13.164  0.00  0.00    +0.000 A 
ATOM      4  C   UNL     1      46.054   4.867  13.419  0.00  0.00    +0.000 A 
ATOM      5  C   UNL     1      45.271   4.106  12.539  0.00  0.00    +0.000 A 
ATOM      6  C   UNL     1      44.804   4.671  11.349  0.00  0.00    +0.000 A 
ATOM      7  C   UNL     1      45.106   6.004  11.063  0.00  0.00    +0.000 A 
ATOM      8  C   UNL     1      45.869   6.758  11.960  0.00  0.00    +0.000 A 
BRANCH   6   9
ATOM      9  C   UNL     1      43.956   3.927  10.385  0.00  0.00    +0.000 C 
ATOM     10  O   UNL     1      43.542   2.800  10.601  0.00  0.00    +0.000 OA
BRANCH   9  11
ATOM     11  O   UNL     1      43.651   4.615   9.265  0.00  0.00    +0.000 OA
ATOM     12  H   UNL     1      43.664   5.586   9.359  0.00  0.00    +0.000 HD
ENDBRANCH   9  11
ENDBRANCH   6   9
ENDBRANCH   1   3
BRANCH   1  13
ATOM     13  C   UNL     1      48.488   6.693  14.387  0.00  0.00    +0.000 C 
BRANCH  13  18
ATOM     14  C   UNL     1      48.358   4.702  17.641  0.00  0.00    +0.000 A 
ATOM     15  C   UNL     1      48.847   5.629  18.568  0.00  0.00    +0.000 A 
ATOM     16  C   UNL     1      49.200   6.912  18.157  0.00  0.00    +0.000 A 
ATOM     17  C   UNL     1      49.089   7.274  16.814  0.00  0.00    +0.000 A 
ATOM     18  C   UNL     1      48.632   6.359  15.856  0.00  0.00    +0.000 A 
ATOM     19  C   UNL     1      48.250   5.079  16.294  0.00  0.00    +0.000 A 
BRANCH  14  20
ATOM     20  C   UNL     1      48.032   3.295  18.066  0.00  0.00    +0.000 C 
BRANCH  20  21
ATOM     21  N   UNL     1      46.713   2.911  17.584  0.00  0.00    +0.000 NA
ATOM     22  H   UNL     1      46.292   3.700  17.099  0.00  0.00    +0.000 HD
ATOM     23  H   UNL     1      46.114   2.715  18.385  0.00  0.00    +0.000 HD
ENDBRANCH  20  21
ENDBRANCH  14  20
ENDBRANCH  13  18
ENDBRANCH   1  13
TORSDOF 7
ENDMDL
MODEL 8
REMARK VINA RESULT:    -5.528      3.163      5.127
REMARK INTER + INTRA:          -8.144
REMARK INTER:                  -7.693
REMARK INTRA:                  -0.450
REMARK UNBOUND:                -0.676
REMARK  Name = 
REMARK  7 active torsions:
REMARK  status: ('A' for Active; 'I' for Inactive)
REMARK    1  A    between atoms: N_1  and  C_2
REMARK    2  A    between atoms: C_2  and  C_3
REMARK    3  A    between atoms: C_7  and  C_8
REMARK    4  A    between atoms: C_8  and  N_9
REMARK    5  A    between atoms: N_9  and  C_10
REMARK    6  A    between atoms: C_13  and  C_14
REMARK    7  A    between atoms: C_14  and  O_16
REMARK                            x       y       z     vdW  Elec       q    Type
REMARK                         _______ _______ _______ _____ _____    ______ ____
ROOT
ATOM      1  N   UNL     1      46.589   5.828  14.230  0.00  0.00    +0.000 N 
ATOM      2  H   UNL     1      45.898   5.880  14.976  0.00  0.00    +0.000 HD
ENDROOT
BRANCH   1   3
ATOM      3  C   UNL     1      46.103   5.310  13.041  0.00  0.00    +0.000 A 
ATOM      4  C   UNL     1      45.901   6.065  11.880  0.00  0.00    +0.000 A 
ATOM      5  C   UNL     1      45.377   5.487  10.714  0.00  0.00    +0.000 A 
ATOM      6  C   UNL     1      44.990   4.145  10.710  0.00  0.00    +0.000 A 
ATOM      7  C   UNL     1      45.154   3.385  11.870  0.00  0.00    +0.000 A 
ATOM      8  C   UNL     1      45.698   3.967  13.019  0.00  0.00    +0.000 A 
BRANCH   6   9
ATOM      9  C   UNL     1      44.449   3.468   9.506  0.00  0.00    +0.000 C 
ATOM     10  O   UNL     1      44.285   2.260   9.444  0.00  0.00    +0.000 OA
BRANCH   9  11
ATOM     11  O   UNL     1      44.119   4.303   8.497  0.00  0.00    +0.000 OA
ATOM     12  H   UNL     1      43.217   4.190   8.145  0.00  0.00    +0.000 HD
ENDBRANCH   9  11
ENDBRANCH   6   9
ENDBRANCH   1   3
BRANCH   1  13
ATOM     13  C   UNL     1      47.948   5.657  14.719  0.00  0.00    +0.000 C 
BRANCH  13  18
ATOM     14  C   UNL     1      49.096   4.599  18.203  0.00  0.00    +0.000 A 
ATOM     15  C   UNL     1      48.330   3.449  18.424  0.00  0.00    +0.000 A 
ATOM     16  C   UNL     1      47.453   2.991  17.443  0.00  0.00    +0.000 A 
ATOM     17  C   UNL     1      47.318   3.688  16.241  0.00  0.00    +0.000 A 
ATOM     18  C   UNL     1      48.049   4.859  16.002  0.00  0.00    +0.000 A 
ATOM     19  C   UNL     1      48.953   5.289  16.990  0.00  0.00    +0.000 A 
BRANCH  14  20
ATOM     20  C   UNL     1      50.000   5.135  19.282  0.00  0.00    +0.000 C 
BRANCH  20  21
ATOM     21  N   UNL     1      49.676   4.526  20.565  0.00  0.00    +0.000 NA
ATOM     22  H   UNL     1      48.832   4.956  20.935  0.00  0.00    +0.000 HD
ATOM     23  H   UNL     1      50.420   4.739  21.227  0.00  0.00    +0.000 HD
ENDBRANCH  20  21
ENDBRANCH  14  20
ENDBRANCH  13  18
ENDBRANCH   1  13
TORSDOF 7
ENDMDL
