MODEL 1
REMARK VINA RESULT:    -8.912      0.000      0.000
REMARK INTER + INTRA:         -12.139
REMARK INTER:                 -11.516
REMARK INTRA:                  -0.623
REMARK UNBOUND:                -0.623
REMARK  Name = 
REMARK  5 active torsions:
REMARK  status: ('A' for Active; 'I' for Inactive)
REMARK    1  A    between atoms: C_2  and  C_4
REMARK    2  A    between atoms: C_7  and  O_8
REMARK    3  A    between atoms: O_8  and  C_9
REMARK    4  A    between atoms: C_9  and  C_10
REMARK    5  A    between atoms: C_14  and  C_15
REMARK                            x       y       z     vdW  Elec       q    Type
REMARK                         _______ _______ _______ _____ _____    ______ ____
ROOT
ATOM      1  C   UNL     1      43.817   4.657  11.214  0.00  0.00    +0.000 C 
ATOM      2  C   UNL     1      42.653   5.051  12.123  0.00  0.00    +0.000 C 
ATOM      3  C   UNL     1      43.050   5.958  11.001  0.00  0.00    +0.000 C 
ENDROOT
BRANCH   1   4
ATOM      4  C   UNL     1      45.211   4.709  11.866  0.00  0.00    +0.000 A 
ATOM      5  N   UNL     1      45.516   3.815  12.827  0.00  0.00    +0.000 NA
ATOM      6  C   UNL     1      46.556   4.087  13.632  0.00  0.00    +0.000 A 
ATOM      7  C   UNL     1      47.327   5.214  13.508  0.00  0.00    +0.000 A 
ATOM      8  C   UNL     1      47.023   6.051  12.454  0.00  0.00    +0.000 A 
ATOM      9  N   UNL     1      45.986   5.791  11.626  0.00  0.00    +0.000 NA
BRANCH   8  10
ATOM     10  C   UNL     1      47.729   7.318  12.190  0.00  0.00    +0.000 A 
ATOM     11  C   UNL     1      49.099   7.335  11.873  0.00  0.00    +0.000 A 
ATOM     12  C   UNL     1      49.755   8.534  11.606  0.00  0.00    +0.000 A 
ATOM     13  C   UNL     1      49.021   9.704  11.661  0.00  0.00    +0.000 A 
ATOM     14  F   UNL     1      49.643  10.861  11.400  0.00  0.00    +0.000 F 
ATOM     15  N   UNL     1      47.710   9.754  11.965  0.00  0.00    +0.000 NA
ATOM     16  C   UNL     1      47.106   8.566  12.224  0.00  0.00    +0.000 A 
ENDBRANCH   8  10
ENDBRANCH   1   4
BRANCH   1  17
ATOM     17  O   UNL     1      43.556   3.726  10.133  0.00  0.00    +0.000 OA
BRANCH  17  21
ATOM     18  C   UNL     1      46.488   2.690   7.504  0.00  0.00    +0.000 A 
ATOM     19  C   UNL     1      46.023   1.737   8.412  0.00  0.00    +0.000 A 
ATOM     20  C   UNL     1      45.084   2.118   9.360  0.00  0.00    +0.000 A 
ATOM     21  C   UNL     1      44.652   3.434   9.349  0.00  0.00    +0.000 A 
ATOM     22  N   UNL     1      45.190   4.404   8.581  0.00  0.00    +0.000 NA
ATOM     23  C   UNL     1      46.095   4.012   7.662  0.00  0.00    +0.000 A 
BRANCH  18  25
ATOM     24  N   UNL     1      47.249   3.217   5.281  0.00  0.00    +0.000 N 
ATOM     25  C   UNL     1      47.283   2.325   6.322  0.00  0.00    +0.000 C 
ATOM     26  O   UNL     1      47.998   1.334   6.301  0.00  0.00    +0.000 OA
ATOM     27  H   UNL     1      47.933   3.068   4.549  0.00  0.00    +0.000 HD
ATOM     28  H   UNL     1      46.900   4.158   5.404  0.00  0.00    +0.000 HD
ENDBRANCH  18  25
ENDBRANCH  17  21
ENDBRANCH   1  17
TORSDOF 5
ENDMDL
MODEL 2
REMARK VINA RESULT:    -8.531      3.517      7.251
REMARK INTER + INTRA:         -11.648
REMARK INTER:                 -11.039
REMARK INTRA:                  -0.609
REMARK UNBOUND:                -0.623
REMARK  Name = 
REMARK  5 active torsions:
REMARK  status: ('A' for Active; 'I' for Inactive)
REMARK    1  A    between atoms: C_2  and  C_4
REMARK    2  A    between atoms: C_7  and  O_8
REMARK    3  A    between atoms: O_8  and  C_9
REMARK    4  A    between atoms: C_9  and  C_10
REMARK    5  A    between atoms: C_14  and  C_15
REMARK                            x       y       z     vdW  Elec       q    Type
REMARK                         _______ _______ _______ _____ _____    ______ ____
ROOT
ATOM      1  C   UNL     1      46.141   7.302  11.983  0.00  0.00    +0.000 C 
ATOM      2  C   UNL     1      45.967   8.799  11.732  0.00  0.00    +0.000 C 
ATOM      3  C   UNL     1      45.658   8.238  13.085  0.00  0.00    +0.000 C 
ENDROOT
BRANCH   1   4
ATOM      4  C   UNL     1      45.121   6.391  11.275  0.00  0.00    +0.000 A 
ATOM      5  N   UNL     1      43.873   6.295  11.776  0.00  0.00    +0.000 NA
ATOM      6  C   UNL     1      43.121   5.249  11.395  0.00  0.00    +0.000 A 
ATOM      7  C   UNL     1      43.555   4.294  10.511  0.00  0.00    +0.000 A 
ATOM      8  C   UNL     1      44.807   4.489   9.966  0.00  0.00    +0.000 A 
ATOM      9  N   UNL     1      45.577   5.540  10.328  0.00  0.00    +0.000 NA
BRANCH   8  10
ATOM     10  C   UNL     1      45.441   3.548   9.024  0.00  0.00    +0.000 A 
ATOM     11  C   UNL     1      46.149   4.011   7.899  0.00  0.00    +0.000 A 
ATOM     12  C   UNL     1      46.760   3.117   7.024  0.00  0.00    +0.000 A 
ATOM     13  C   UNL     1      46.652   1.765   7.294  0.00  0.00    +0.000 A 
ATOM     14  F   UNL     1      47.243   0.899   6.460  0.00  0.00    +0.000 F 
ATOM     15  N   UNL     1      45.984   1.261   8.348  0.00  0.00    +0.000 NA
ATOM     16  C   UNL     1      45.396   2.162   9.176  0.00  0.00    +0.000 A 
ENDBRANCH   8  10
ENDBRANCH   1   4
BRANCH   1  17
ATOM     17  O   UNL     1      47.472   6.808  12.278  0.00  0.00    +0.000 OA
BRANCH  17  21
ATOM     18  C   UNL     1      47.408   4.794  15.818  0.00  0.00    +0.000 A 
ATOM     19  C   UNL     1      48.265   5.887  15.674  0.00  0.00    +0.000 A 
ATOM     20  C   UNL     1      48.344   6.518  14.441  0.00  0.00    +0.000 A 
ATOM     21  C   UNL     1      47.557   6.027  13.412  0.00  0.00    +0.000 A 
ATOM     22  N   UNL     1      46.836   4.890  13.484  0.00  0.00    +0.000 NA
ATOM     23  C   UNL     1      46.765   4.296  14.692  0.00  0.00    +0.000 A 
BRANCH  18  25
ATOM     24  N   UNL     1      47.096   5.105  18.185  0.00  0.00    +0.000 N 
ATOM     25  C   UNL     1      47.074   4.227  17.132  0.00  0.00    +0.000 C 
ATOM     26  O   UNL     1      46.714   3.066  17.266  0.00  0.00    +0.000 OA
ATOM     27  H   UNL     1      46.689   4.769  19.049  0.00  0.00    +0.000 HD
ATOM     28  H   UNL     1      47.107   6.105  18.037  0.00  0.00    +0.000 HD
ENDBRANCH  18  25
ENDBRANCH  17  21
ENDBRANCH   1  17
TORSDOF 5
ENDMDL
MODEL 3
REMARK VINA RESULT:    -7.938      2.821      4.047
REMARK INTER + INTRA:         -10.881
REMARK INTER:                 -11.543
REMARK INTRA:                   0.662
REMARK UNBOUND:                -0.623
REMARK  Name = 
REMARK  5 active torsions:
REMARK  status: ('A' for Active; 'I' for Inactive)
REMARK    1  A    between atoms: C_2  and  C_4
REMARK    2  A    between atoms: C_7  and  O_8
REMARK    3  A    between atoms: O_8  and  C_9
REMARK    4  A    between atoms: C_9  and  C_10
REMARK    5  A    between atoms: C_14  and  C_15
REMARK                            x       y       z     vdW  Elec       q    Type
REMARK                         _______ _______ _______ _____ _____    ______ ____
ROOT
ATOM      1  C   UNL     1      44.257   4.621  11.555  0.00  0.00    +0.000 C 
ATOM      2  C   UNL     1      43.985   3.278  12.230  0.00  0.00    +0.000 C 
ATOM      3  C   UNL     1      43.003   4.395  12.393  0.00  0.00    +0.000 C 
ENDROOT
BRANCH   1   4
ATOM      4  C   UNL     1      45.419   5.437  12.152  0.00  0.00    +0.000 A 
ATOM      5  N   UNL     1      46.108   6.274  11.352  0.00  0.00    +0.000 NA
ATOM      6  C   UNL     1      47.317   6.687  11.766  0.00  0.00    +0.000 A 
ATOM      7  C   UNL     1      47.867   6.315  12.966  0.00  0.00    +0.000 A 
ATOM      8  C   UNL     1      47.082   5.527  13.782  0.00  0.00    +0.000 A 
ATOM      9  N   UNL     1      45.858   5.108  13.388  0.00  0.00    +0.000 NA
BRANCH   8  10
ATOM     10  C   UNL     1      47.526   5.013  15.090  0.00  0.00    +0.000 A 
ATOM     11  C   UNL     1      48.368   5.773  15.923  0.00  0.00    +0.000 A 
ATOM     12  C   UNL     1      48.768   5.288  17.166  0.00  0.00    +0.000 A 
ATOM     13  C   UNL     1      48.313   4.042  17.556  0.00  0.00    +0.000 A 
ATOM     14  F   UNL     1      48.688   3.571  18.752  0.00  0.00    +0.000 F 
ATOM     15  N   UNL     1      47.512   3.266  16.802  0.00  0.00    +0.000 NA
ATOM     16  C   UNL     1      47.147   3.769  15.595  0.00  0.00    +0.000 A 
ENDBRANCH   8  10
ENDBRANCH   1   4
BRANCH   1  17
ATOM     17  O   UNL     1      43.916   4.763  10.153  0.00  0.00    +0.000 OA
BRANCH  17  21
ATOM     18  C   UNL     1      46.135   2.141   7.965  0.00  0.00    +0.000 A 
ATOM     19  C   UNL     1      46.251   3.508   7.707  0.00  0.00    +0.000 A 
ATOM     20  C   UNL     1      45.432   4.391   8.396  0.00  0.00    +0.000 A 
ATOM     21  C   UNL     1      44.541   3.863   9.316  0.00  0.00    +0.000 A 
ATOM     22  N   UNL     1      44.309   2.544   9.476  0.00  0.00    +0.000 NA
ATOM     23  C   UNL     1      45.119   1.702   8.803  0.00  0.00    +0.000 A 
BRANCH  18  25
ATOM     24  N   UNL     1      48.226   1.689   6.861  0.00  0.00    +0.000 N 
ATOM     25  C   UNL     1      47.118   1.164   7.474  0.00  0.00    +0.000 C 
ATOM     26  O   UNL     1      46.998  -0.036   7.676  0.00  0.00    +0.000 OA
ATOM     27  H   UNL     1      48.986   1.040   6.692  0.00  0.00    +0.000 HD
ATOM     28  H   UNL     1      48.465   2.667   6.949  0.00  0.00    +0.000 HD
ENDBRANCH  18  25
ENDBRANCH  17  21
ENDBRANCH   1  17
TORSDOF 5
ENDMDL
MODEL 4
REMARK VINA RESULT:    -7.775      1.624      2.227
REMARK INTER + INTRA:         -10.671
REMARK INTER:                 -10.887
REMARK INTRA:                   0.216
REMARK UNBOUND:                -0.623
REMARK  Name = 
REMARK  5 active torsions:
REMARK  status: ('A' for Active; 'I' for Inactive)
REMARK    1  A    between atoms: C_2  and  C_4
REMARK    2  A    between atoms: C_7  and  O_8
REMARK    3  A    between atoms: O_8  and  C_9
REMARK    4  A    between atoms: C_9  and  C_10
REMARK    5  A    between atoms: C_14  and  C_15
REMARK                            x       y       z     vdW  Elec       q    Type
REMARK                         _______ _______ _______ _____ _____    ______ ____
ROOT
ATOM      1  C   UNL     1      44.208   4.202  11.387  0.00  0.00    +0.000 C 
ATOM      2  C   UNL     1      44.901   3.142  12.242  0.00  0.00    +0.000 C 
ATOM      3  C   UNL     1      43.424   3.344  12.373  0.00  0.00    +0.000 C 
ENDROOT
BRANCH   1   4
ATOM      4  C   UNL     1      44.529   5.662  11.757  0.00  0.00    +0.000 A 
ATOM      5  N   UNL     1      43.682   6.636  11.369  0.00  0.00    +0.000 NA
ATOM      6  C   UNL     1      44.136   7.900  11.364  0.00  0.00    +0.000 A 
ATOM      7  C   UNL     1      45.406   8.243  11.752  0.00  0.00    +0.000 A 
ATOM      8  C   UNL     1      46.201   7.218  12.220  0.00  0.00    +0.000 A 
ATOM      9  N   UNL     1      45.760   5.940  12.242  0.00  0.00    +0.000 NA
BRANCH   8  10
ATOM     10  C   UNL     1      47.600   7.402  12.649  0.00  0.00    +0.000 A 
ATOM     11  C   UNL     1      48.483   8.218  11.918  0.00  0.00    +0.000 A 
ATOM     12  C   UNL     1      49.798   8.402  12.340  0.00  0.00    +0.000 A 
ATOM     13  C   UNL     1      50.206   7.763  13.496  0.00  0.00    +0.000 A 
ATOM     14  F   UNL     1      51.467   7.939  13.912  0.00  0.00    +0.000 F 
ATOM     15  N   UNL     1      49.411   6.965  14.234  0.00  0.00    +0.000 NA
ATOM     16  C   UNL     1      48.138   6.805  13.788  0.00  0.00    +0.000 A 
ENDBRANCH   8  10
ENDBRANCH   1   4
BRANCH   1  17
ATOM     17  O   UNL     1      43.861   3.860  10.021  0.00  0.00    +0.000 OA
BRANCH  17  21
ATOM     18  C   UNL     1      46.705   2.687   7.353  0.00  0.00    +0.000 A 
ATOM     19  C   UNL     1      46.119   1.731   8.184  0.00  0.00    +0.000 A 
ATOM     20  C   UNL     1      45.212   2.147   9.148  0.00  0.00    +0.000 A 
ATOM     21  C   UNL     1      44.931   3.501   9.229  0.00  0.00    +0.000 A 
ATOM     22  N   UNL     1      45.589   4.456   8.539  0.00  0.00    +0.000 NA
ATOM     23  C   UNL     1      46.461   4.031   7.603  0.00  0.00    +0.000 A 
BRANCH  18  25
ATOM     24  N   UNL     1      47.281   3.112   5.054  0.00  0.00    +0.000 N 
ATOM     25  C   UNL     1      47.475   2.319   6.156  0.00  0.00    +0.000 C 
ATOM     26  O   UNL     1      48.301   1.418   6.166  0.00  0.00    +0.000 OA
ATOM     27  H   UNL     1      47.939   2.983   4.295  0.00  0.00    +0.000 HD
ATOM     28  H   UNL     1      46.830   4.014   5.126  0.00  0.00    +0.000 HD
ENDBRANCH  18  25
ENDBRANCH  17  21
ENDBRANCH   1  17
TORSDOF 5
ENDMDL
MODEL 5
REMARK VINA RESULT:    -7.248      3.794      7.521
REMARK INTER + INTRA:          -9.990
REMARK INTER:                  -9.607
REMARK INTRA:                  -0.382
REMARK UNBOUND:                -0.623
REMARK  Name = 
REMARK  5 active torsions:
REMARK  status: ('A' for Active; 'I' for Inactive)
REMARK    1  A    between atoms: C_2  and  C_4
REMARK    2  A    between atoms: C_7  and  O_8
REMARK    3  A    between atoms: O_8  and  C_9
REMARK    4  A    between atoms: C_9  and  C_10
REMARK    5  A    between atoms: C_14  and  C_15
REMARK                            x       y       z     vdW  Elec       q    Type
REMARK                         _______ _______ _______ _____ _____    ______ ____
ROOT
ATOM      1  C   UNL     1      48.495   7.634  12.405  0.00  0.00    +0.000 C 
ATOM      2  C   UNL     1      49.433   8.657  11.766  0.00  0.00    +0.000 C 
ATOM      3  C   UNL     1      48.945   8.877  13.164  0.00  0.00    +0.000 C 
ENDROOT
BRANCH   1   4
ATOM      4  C   UNL     1      47.071   7.588  11.820  0.00  0.00    +0.000 A 
ATOM      5  N   UNL     1      46.185   8.536  12.185  0.00  0.00    +0.000 NA
ATOM      6  C   UNL     1      44.881   8.290  11.978  0.00  0.00    +0.000 A 
ATOM      7  C   UNL     1      44.417   7.137  11.398  0.00  0.00    +0.000 A 
ATOM      8  C   UNL     1      45.372   6.240  10.968  0.00  0.00    +0.000 A 
ATOM      9  N   UNL     1      46.691   6.472  11.158  0.00  0.00    +0.000 NA
BRANCH   8  10
ATOM     10  C   UNL     1      45.051   4.939  10.352  0.00  0.00    +0.000 A 
ATOM     11  C   UNL     1      45.568   4.584   9.093  0.00  0.00    +0.000 A 
ATOM     12  C   UNL     1      45.275   3.346   8.526  0.00  0.00    +0.000 A 
ATOM     13  C   UNL     1      44.464   2.480   9.235  0.00  0.00    +0.000 A 
ATOM     14  F   UNL     1      44.182   1.285   8.700  0.00  0.00    +0.000 F 
ATOM     15  N   UNL     1      43.934   2.765  10.440  0.00  0.00    +0.000 NA
ATOM     16  C   UNL     1      44.237   3.983  10.959  0.00  0.00    +0.000 A 
ENDBRANCH   8  10
ENDBRANCH   1   4
BRANCH   1  17
ATOM     17  O   UNL     1      49.079   6.440  12.987  0.00  0.00    +0.000 OA
BRANCH  17  21
ATOM     18  C   UNL     1      47.476   4.727  16.317  0.00  0.00    +0.000 A 
ATOM     19  C   UNL     1      46.880   4.490  15.077  0.00  0.00    +0.000 A 
ATOM     20  C   UNL     1      47.378   5.142  13.959  0.00  0.00    +0.000 A 
ATOM     21  C   UNL     1      48.455   5.996  14.134  0.00  0.00    +0.000 A 
ATOM     22  N   UNL     1      48.953   6.352  15.336  0.00  0.00    +0.000 NA
ATOM     23  C   UNL     1      48.460   5.703  16.410  0.00  0.00    +0.000 A 
BRANCH  18  25
ATOM     24  N   UNL     1      47.380   4.511  18.712  0.00  0.00    +0.000 N 
ATOM     25  C   UNL     1      47.183   3.904  17.499  0.00  0.00    +0.000 C 
ATOM     26  O   UNL     1      46.711   2.780  17.407  0.00  0.00    +0.000 OA
ATOM     27  H   UNL     1      47.006   4.022  19.517  0.00  0.00    +0.000 HD
ATOM     28  H   UNL     1      47.489   5.513  18.790  0.00  0.00    +0.000 HD
ENDBRANCH  18  25
ENDBRANCH  17  21
ENDBRANCH   1  17
TORSDOF 5
ENDMDL
MODEL 6
REMARK VINA RESULT:    -6.989      3.383      7.117
REMARK INTER + INTRA:          -9.654
REMARK INTER:                  -9.375
REMARK INTRA:                  -0.280
REMARK UNBOUND:                -0.623
REMARK  Name = 
REMARK  5 active torsions:
REMARK  status: ('A' for Active; 'I' for Inactive)
REMARK    1  A    between atoms: C_2  and  C_4
REMARK    2  A    between atoms: C_7  and  O_8
REMARK    3  A    between atoms: O_8  and  C_9
REMARK    4  A    between atoms: C_9  and  C_10
REMARK    5  A    between atoms: C_14  and  C_15
REMARK                            x       y       z     vdW  Elec       q    Type
REMARK                         _______ _______ _______ _____ _____    ______ ____
ROOT
ATOM      1  C   UNL     1      44.917   6.214  11.298  0.00  0.00    +0.000 C 
ATOM      2  C   UNL     1      43.820   7.275  11.383  0.00  0.00    +0.000 C 
ATOM      3  C   UNL     1      44.298   6.607  12.635  0.00  0.00    +0.000 C 
ENDROOT
BRANCH   1   4
ATOM      4  C   UNL     1      44.500   4.884  10.642  0.00  0.00    +0.000 A 
ATOM      5  N   UNL     1      43.677   4.055  11.315  0.00  0.00    +0.000 NA
ATOM      6  C   UNL     1      43.616   2.773  10.920  0.00  0.00    +0.000 A 
ATOM      7  C   UNL     1      44.332   2.279   9.859  0.00  0.00    +0.000 A 
ATOM      8  C   UNL     1      45.091   3.191   9.155  0.00  0.00    +0.000 A 
ATOM      9  N   UNL     1      45.159   4.489   9.531  0.00  0.00    +0.000 NA
BRANCH   8  10
ATOM     10  C   UNL     1      45.944   2.829   8.008  0.00  0.00    +0.000 A 
ATOM     11  C   UNL     1      46.241   3.764   6.999  0.00  0.00    +0.000 A 
ATOM     12  C   UNL     1      47.063   3.420   5.928  0.00  0.00    +0.000 A 
ATOM     13  C   UNL     1      47.576   2.137   5.887  0.00  0.00    +0.000 A 
ATOM     14  F   UNL     1      48.372   1.800   4.864  0.00  0.00    +0.000 F 
ATOM     15  N   UNL     1      47.323   1.197   6.818  0.00  0.00    +0.000 NA
ATOM     16  C   UNL     1      46.515   1.567   7.844  0.00  0.00    +0.000 A 
ENDBRANCH   8  10
ENDBRANCH   1   4
BRANCH   1  17
ATOM     17  O   UNL     1      46.295   6.660  11.221  0.00  0.00    +0.000 OA
BRANCH  17  21
ATOM     18  C   UNL     1      48.213   6.074  14.766  0.00  0.00    +0.000 A 
ATOM     19  C   UNL     1      48.477   7.234  14.035  0.00  0.00    +0.000 A 
ATOM     20  C   UNL     1      47.885   7.390  12.790  0.00  0.00    +0.000 A 
ATOM     21  C   UNL     1      47.052   6.379  12.339  0.00  0.00    +0.000 A 
ATOM     22  N   UNL     1      46.898   5.190  12.957  0.00  0.00    +0.000 NA
ATOM     23  C   UNL     1      47.475   5.061  14.169  0.00  0.00    +0.000 A 
BRANCH  18  25
ATOM     24  N   UNL     1      49.425   6.904  16.673  0.00  0.00    +0.000 N 
ATOM     25  C   UNL     1      48.589   5.936  16.180  0.00  0.00    +0.000 C 
ATOM     26  O   UNL     1      48.118   5.063  16.895  0.00  0.00    +0.000 OA
ATOM     27  H   UNL     1      49.536   6.921  17.681  0.00  0.00    +0.000 HD
ATOM     28  H   UNL     1      49.580   7.771  16.177  0.00  0.00    +0.000 HD
ENDBRANCH  18  25
ENDBRANCH  17  21
ENDBRANCH   1  17
TORSDOF 5
ENDMDL
MODEL 7
REMARK VINA RESULT:    -6.694      3.607      6.847
REMARK INTER + INTRA:          -9.273
REMARK INTER:                  -8.824
REMARK INTRA:                  -0.449
REMARK UNBOUND:                -0.623
REMARK  Name = 
REMARK  5 active torsions:
REMARK  status: ('A' for Active; 'I' for Inactive)
REMARK    1  A    between atoms: C_2  and  C_4
REMARK    2  A    between atoms: C_7  and  O_8
REMARK    3  A    between atoms: O_8  and  C_9
REMARK    4  A    between atoms: C_9  and  C_10
REMARK    5  A    between atoms: C_14  and  C_15
REMARK                            x       y       z     vdW  Elec       q    Type
REMARK                         _______ _______ _______ _____ _____    ______ ____
ROOT
ATOM      1  C   UNL     1      46.164   5.951  13.189  0.00  0.00    +0.000 C 
ATOM      2  C   UNL     1      46.142   4.887  14.286  0.00  0.00    +0.000 C 
ATOM      3  C   UNL     1      47.354   5.027  13.419  0.00  0.00    +0.000 C 
ENDROOT
BRANCH   1   4
ATOM      4  C   UNL     1      45.230   5.686  11.994  0.00  0.00    +0.000 A 
ATOM      5  N   UNL     1      43.915   5.956  12.119  0.00  0.00    +0.000 NA
ATOM      6  C   UNL     1      43.070   5.393  11.241  0.00  0.00    +0.000 A 
ATOM      7  C   UNL     1      43.484   4.579  10.217  0.00  0.00    +0.000 A 
ATOM      8  C   UNL     1      44.847   4.406  10.084  0.00  0.00    +0.000 A 
ATOM      9  N   UNL     1      45.715   4.972  10.953  0.00  0.00    +0.000 NA
BRANCH   8  10
ATOM     10  C   UNL     1      45.463   3.543   9.061  0.00  0.00    +0.000 A 
ATOM     11  C   UNL     1      46.079   4.092   7.921  0.00  0.00    +0.000 A 
ATOM     12  C   UNL     1      46.675   3.271   6.967  0.00  0.00    +0.000 A 
ATOM     13  C   UNL     1      46.645   1.904   7.174  0.00  0.00    +0.000 A 
ATOM     14  F   UNL     1      47.221   1.108   6.265  0.00  0.00    +0.000 F 
ATOM     15  N   UNL     1      46.066   1.319   8.240  0.00  0.00    +0.000 NA
ATOM     16  C   UNL     1      45.490   2.151   9.145  0.00  0.00    +0.000 A 
ENDBRANCH   8  10
ENDBRANCH   1   4
BRANCH   1  17
ATOM     17  O   UNL     1      46.493   7.313  13.565  0.00  0.00    +0.000 OA
BRANCH  17  21
ATOM     18  C   UNL     1      50.226   8.186  12.190  0.00  0.00    +0.000 A 
ATOM     19  C   UNL     1      50.006   8.129  13.568  0.00  0.00    +0.000 A 
ATOM     20  C   UNL     1      48.717   7.913  14.031  0.00  0.00    +0.000 A 
ATOM     21  C   UNL     1      47.709   7.760  13.093  0.00  0.00    +0.000 A 
ATOM     22  N   UNL     1      47.870   7.956  11.768  0.00  0.00    +0.000 NA
ATOM     23  C   UNL     1      49.131   8.157  11.336  0.00  0.00    +0.000 A 
BRANCH  18  25
ATOM     24  N   UNL     1      51.837   7.124  10.750  0.00  0.00    +0.000 N 
ATOM     25  C   UNL     1      51.576   8.160  11.609  0.00  0.00    +0.000 C 
ATOM     26  O   UNL     1      52.388   9.053  11.811  0.00  0.00    +0.000 OA
ATOM     27  H   UNL     1      52.689   7.204  10.208  0.00  0.00    +0.000 HD
ATOM     28  H   UNL     1      51.093   6.560  10.362  0.00  0.00    +0.000 HD
ENDBRANCH  18  25
ENDBRANCH  17  21
ENDBRANCH   1  17
TORSDOF 5
ENDMDL
MODEL 8
REMARK VINA RESULT:    -6.554      5.279      7.642
REMARK INTER + INTRA:          -9.093
REMARK INTER:                  -9.020
REMARK INTRA:                  -0.072
REMARK UNBOUND:                -0.623
REMARK  Name = 
REMARK  5 active torsions:
REMARK  status: ('A' for Active; 'I' for Inactive)
REMARK    1  A    between atoms: C_2  and  C_4
REMARK    2  A    between atoms: C_7  and  O_8
REMARK    3  A    between atoms: O_8  and  C_9
REMARK    4  A    between atoms: C_9  and  C_10
REMARK    5  A    between atoms: C_14  and  C_15
REMARK                            x       y       z     vdW  Elec       q    Type
REMARK                         _______ _______ _______ _____ _____    ______ ____
ROOT
ATOM      1  C   UNL     1      49.087   7.117  14.988  0.00  0.00    +0.000 C 
ATOM      2  C   UNL     1      48.780   8.611  15.088  0.00  0.00    +0.000 C 
ATOM      3  C   UNL     1      50.185   8.163  14.835  0.00  0.00    +0.000 C 
ENDROOT
BRANCH   1   4
ATOM      4  C   UNL     1      48.980   6.331  16.308  0.00  0.00    +0.000 A 
ATOM      5  N   UNL     1      48.410   6.923  17.376  0.00  0.00    +0.000 NA
ATOM      6  C   UNL     1      48.648   6.397  18.588  0.00  0.00    +0.000 A 
ATOM      7  C   UNL     1      49.421   5.280  18.784  0.00  0.00    +0.000 A 
ATOM      8  C   UNL     1      49.908   4.666  17.649  0.00  0.00    +0.000 A 
ATOM      9  N   UNL     1      49.673   5.175  16.418  0.00  0.00    +0.000 NA
BRANCH   8  10
ATOM     10  C   UNL     1      50.779   3.477  17.675  0.00  0.00    +0.000 A 
ATOM     11  C   UNL     1      52.094   3.549  18.169  0.00  0.00    +0.000 A 
ATOM     12  C   UNL     1      52.904   2.417  18.208  0.00  0.00    +0.000 A 
ATOM     13  C   UNL     1      52.378   1.224  17.750  0.00  0.00    +0.000 A 
ATOM     14  F   UNL     1      53.149   0.129  17.790  0.00  0.00    +0.000 F 
ATOM     15  N   UNL     1      51.131   1.092  17.261  0.00  0.00    +0.000 NA
ATOM     16  C   UNL     1      50.372   2.218  17.233  0.00  0.00    +0.000 A 
ENDBRANCH   8  10
ENDBRANCH   1   4
BRANCH   1  17
ATOM     17  O   UNL     1      48.836   6.451  13.724  0.00  0.00    +0.000 OA
BRANCH  17  21
ATOM     18  C   UNL     1      45.260   4.647  12.984  0.00  0.00    +0.000 A 
ATOM     19  C   UNL     1      45.340   6.040  12.937  0.00  0.00    +0.000 A 
ATOM     20  C   UNL     1      46.539   6.653  13.271  0.00  0.00    +0.000 A 
ATOM     21  C   UNL     1      47.602   5.842  13.632  0.00  0.00    +0.000 A 
ATOM     22  N   UNL     1      47.509   4.510  13.825  0.00  0.00    +0.000 NA
ATOM     23  C   UNL     1      46.338   3.932  13.488  0.00  0.00    +0.000 A 
BRANCH  18  25
ATOM     24  N   UNL     1      44.235   2.540  12.431  0.00  0.00    +0.000 N 
ATOM     25  C   UNL     1      44.125   3.907  12.415  0.00  0.00    +0.000 C 
ATOM     26  O   UNL     1      43.109   4.469  12.030  0.00  0.00    +0.000 OA
ATOM     27  H   UNL     1      43.388   2.026  12.217  0.00  0.00    +0.000 HD
ATOM     28  H   UNL     1      44.928   2.073  13.000  0.00  0.00    +0.000 HD
ENDBRANCH  18  25
ENDBRANCH  17  21
ENDBRANCH   1  17
TORSDOF 5
ENDMDL
MODEL 9
REMARK VINA RESULT:    -6.480      5.373      8.434
REMARK INTER + INTRA:          -8.997
REMARK INTER:                  -8.278
REMARK INTRA:                  -0.719
REMARK UNBOUND:                -0.623
REMARK  Name = 
REMARK  5 active torsions:
REMARK  status: ('A' for Active; 'I' for Inactive)
REMARK    1  A    between atoms: C_2  and  C_4
REMARK    2  A    between atoms: C_7  and  O_8
REMARK    3  A    between atoms: O_8  and  C_9
REMARK    4  A    between atoms: C_9  and  C_10
REMARK    5  A    between atoms: C_14  and  C_15
REMARK                            x       y       z     vdW  Elec       q    Type
REMARK                         _______ _______ _______ _____ _____    ______ ____
ROOT
ATOM      1  C   UNL     1      49.327   7.979  17.396  0.00  0.00    +0.000 C 
ATOM      2  C   UNL     1      48.916   9.439  17.583  0.00  0.00    +0.000 C 
ATOM      3  C   UNL     1      47.931   8.353  17.884  0.00  0.00    +0.000 C 
ENDROOT
BRANCH   1   4
ATOM      4  C   UNL     1      49.513   7.527  15.936  0.00  0.00    +0.000 A 
ATOM      5  N   UNL     1      50.474   8.108  15.190  0.00  0.00    +0.000 NA
ATOM      6  C   UNL     1      50.393   7.988  13.855  0.00  0.00    +0.000 A 
ATOM      7  C   UNL     1      49.396   7.289  13.223  0.00  0.00    +0.000 A 
ATOM      8  C   UNL     1      48.489   6.644  14.038  0.00  0.00    +0.000 A 
ATOM      9  N   UNL     1      48.559   6.744  15.385  0.00  0.00    +0.000 NA
BRANCH   8  10
ATOM     10  C   UNL     1      47.340   5.873  13.529  0.00  0.00    +0.000 A 
ATOM     11  C   UNL     1      46.722   6.209  12.310  0.00  0.00    +0.000 A 
ATOM     12  C   UNL     1      45.649   5.465  11.827  0.00  0.00    +0.000 A 
ATOM     13  C   UNL     1      45.211   4.389  12.577  0.00  0.00    +0.000 A 
ATOM     14  F   UNL     1      44.183   3.665  12.116  0.00  0.00    +0.000 F 
ATOM     15  N   UNL     1      45.756   4.023  13.752  0.00  0.00    +0.000 NA
ATOM     16  C   UNL     1      46.797   4.774  14.195  0.00  0.00    +0.000 A 
ENDBRANCH   8  10
ENDBRANCH   1   4
BRANCH   1  17
ATOM     17  O   UNL     1      50.085   7.341  18.456  0.00  0.00    +0.000 OA
BRANCH  17  21
ATOM     18  C   UNL     1      50.295   3.358  17.630  0.00  0.00    +0.000 A 
ATOM     19  C   UNL     1      49.161   3.859  18.273  0.00  0.00    +0.000 A 
ATOM     20  C   UNL     1      49.130   5.201  18.627  0.00  0.00    +0.000 A 
ATOM     21  C   UNL     1      50.234   5.978  18.314  0.00  0.00    +0.000 A 
ATOM     22  N   UNL     1      51.393   5.488  17.828  0.00  0.00    +0.000 NA
ATOM     23  C   UNL     1      51.401   4.185  17.484  0.00  0.00    +0.000 A 
BRANCH  18  25
ATOM     24  N   UNL     1      51.101   1.090  17.621  0.00  0.00    +0.000 N 
ATOM     25  C   UNL     1      50.317   2.030  17.002  0.00  0.00    +0.000 C 
ATOM     26  O   UNL     1      49.615   1.753  16.040  0.00  0.00    +0.000 OA
ATOM     27  H   UNL     1      50.976   0.135  17.308  0.00  0.00    +0.000 HD
ATOM     28  H   UNL     1      51.447   1.227  18.561  0.00  0.00    +0.000 HD
ENDBRANCH  18  25
ENDBRANCH  17  21
ENDBRANCH   1  17
TORSDOF 5
ENDMDL
