MODEL 1
REMARK VINA RESULT:    -8.823      0.000      0.000
REMARK INTER + INTRA:         -11.493
REMARK INTER:                 -10.886
REMARK INTRA:                  -0.607
REMARK UNBOUND:                -0.607
REMARK  Name = 
REMARK  4 active torsions:
REMARK  status: ('A' for Active; 'I' for Inactive)
REMARK    1  A    between atoms: C_2  and  C_4
REMARK    2  A    between atoms: N_8  and  C_9
REMARK    3  A    between atoms: C_9  and  C_10
REMARK    4  A    between atoms: C_14  and  N_15
REMARK                            x       y       z     vdW  Elec       q    Type
REMARK                         _______ _______ _______ _____ _____    ______ ____
ROOT
ATOM      1  C   UNL     1      43.877   4.986  11.404  0.00  0.00    +0.000 C 
ATOM      2  C   UNL     1      42.700   5.085  12.365  0.00  0.00    +0.000 C 
ATOM      3  C   UNL     1      42.828   6.068  11.251  0.00  0.00    +0.000 C 
ENDROOT
BRANCH   1   8
ATOM      4  C   UNL     1      46.463   2.697   7.498  0.00  0.00    +0.000 A 
ATOM      5  C   UNL     1      46.091   4.035   7.624  0.00  0.00    +0.000 A 
ATOM      6  C   UNL     1      45.267   4.419   8.685  0.00  0.00    +0.000 A 
ATOM      7  C   UNL     1      44.827   3.464   9.593  0.00  0.00    +0.000 A 
ATOM      8  N   UNL     1      43.900   3.746  10.603  0.00  0.00    +0.000 N 
ATOM      9  N   UNL     1      45.188   2.171   9.485  0.00  0.00    +0.000 NA
ATOM     10  C   UNL     1      45.989   1.810   8.445  0.00  0.00    +0.000 A 
ATOM     11  H   UNL     1      43.825   2.882  11.140  0.00  0.00    +0.000 HD
BRANCH   4  13
ATOM     12  N   UNL     1      47.304   2.974   5.236  0.00  0.00    +0.000 N 
ATOM     13  C   UNL     1      47.274   2.203   6.365  0.00  0.00    +0.000 C 
ATOM     14  O   UNL     1      47.904   1.157   6.439  0.00  0.00    +0.000 OA
ATOM     15  H   UNL     1      47.913   2.662   4.489  0.00  0.00    +0.000 HD
ATOM     16  H   UNL     1      47.004   3.938   5.221  0.00  0.00    +0.000 HD
ENDBRANCH   4  13
ENDBRANCH   1   8
BRANCH   1  17
ATOM     17  C   UNL     1      45.268   5.390  11.887  0.00  0.00    +0.000 A 
ATOM     18  C   UNL     1      45.940   6.502  11.355  0.00  0.00    +0.000 A 
ATOM     19  C   UNL     1      47.119   6.977  11.927  0.00  0.00    +0.000 A 
ATOM     20  C   UNL     1      47.646   6.361  13.062  0.00  0.00    +0.000 A 
ATOM     21  C   UNL     1      47.017   5.234  13.604  0.00  0.00    +0.000 A 
ATOM     22  C   UNL     1      45.859   4.737  12.986  0.00  0.00    +0.000 A 
BRANCH  21  23
ATOM     23  N   UNL     1      47.498   4.646  14.810  0.00  0.00    +0.000 N 
ATOM     24  C   UNL     1      47.941   5.298  15.942  0.00  0.00    +0.000 A 
ATOM     25  C   UNL     1      48.225   4.320  16.864  0.00  0.00    +0.000 A 
ATOM     26  N   UNL     1      48.005   3.079  16.339  0.00  0.00    +0.000 NA
ATOM     27  C   UNL     1      47.576   3.302  15.116  0.00  0.00    +0.000 A 
ENDBRANCH  21  23
ENDBRANCH   1  17
TORSDOF 4
ENDMDL
MODEL 2
REMARK VINA RESULT:    -8.771      1.748      2.905
REMARK INTER + INTRA:         -11.430
REMARK INTER:                 -10.472
REMARK INTRA:                  -0.958
REMARK UNBOUND:                -0.607
REMARK  Name = 
REMARK  4 active torsions:
REMARK  status: ('A' for Active; 'I' for Inactive)
REMARK    1  A    between atoms: C_2  and  C_4
REMARK    2  A    between atoms: N_8  and  C_9
REMARK    3  A    between atoms: C_9  and  C_10
REMARK    4  A    between atoms: C_14  and  N_15
REMARK                            x       y       z     vdW  Elec       q    Type
REMARK                         _______ _______ _______ _____ _____    ______ ____
ROOT
ATOM      1  C   UNL     1      43.794   4.976  11.353  0.00  0.00    +0.000 C 
ATOM      2  C   UNL     1      42.435   5.250  11.983  0.00  0.00    +0.000 C 
ATOM      3  C   UNL     1      43.021   6.239  11.032  0.00  0.00    +0.000 C 
ENDROOT
BRANCH   1   8
ATOM      4  C   UNL     1      46.593   2.793   7.534  0.00  0.00    +0.000 A 
ATOM      5  C   UNL     1      46.276   4.138   7.716  0.00  0.00    +0.000 A 
ATOM      6  C   UNL     1      45.384   4.502   8.727  0.00  0.00    +0.000 A 
ATOM      7  C   UNL     1      44.821   3.519   9.531  0.00  0.00    +0.000 A 
ATOM      8  N   UNL     1      43.825   3.788  10.478  0.00  0.00    +0.000 N 
ATOM      9  N   UNL     1      45.127   2.217   9.371  0.00  0.00    +0.000 NA
ATOM     10  C   UNL     1      45.996   1.877   8.379  0.00  0.00    +0.000 A 
ATOM     11  H   UNL     1      43.663   2.898  10.949  0.00  0.00    +0.000 HD
BRANCH   4  13
ATOM     12  N   UNL     1      47.354   2.951   5.233  0.00  0.00    +0.000 N 
ATOM     13  C   UNL     1      47.474   2.325   6.443  0.00  0.00    +0.000 C 
ATOM     14  O   UNL     1      48.286   1.428   6.618  0.00  0.00    +0.000 OA
ATOM     15  H   UNL     1      48.004   2.670   4.509  0.00  0.00    +0.000 HD
ATOM     16  H   UNL     1      46.881   3.836   5.117  0.00  0.00    +0.000 HD
ENDBRANCH   4  13
ENDBRANCH   1   8
BRANCH   1  17
ATOM     17  C   UNL     1      45.050   5.096  12.213  0.00  0.00    +0.000 A 
ATOM     18  C   UNL     1      45.500   4.036  13.016  0.00  0.00    +0.000 A 
ATOM     19  C   UNL     1      46.742   4.082  13.646  0.00  0.00    +0.000 A 
ATOM     20  C   UNL     1      47.577   5.185  13.472  0.00  0.00    +0.000 A 
ATOM     21  C   UNL     1      47.151   6.272  12.699  0.00  0.00    +0.000 A 
ATOM     22  C   UNL     1      45.876   6.232  12.112  0.00  0.00    +0.000 A 
BRANCH  21  23
ATOM     23  N   UNL     1      48.025   7.368  12.446  0.00  0.00    +0.000 N 
ATOM     24  C   UNL     1      49.404   7.347  12.401  0.00  0.00    +0.000 A 
ATOM     25  C   UNL     1      49.798   8.615  12.047  0.00  0.00    +0.000 A 
ATOM     26  N   UNL     1      48.717   9.435  11.899  0.00  0.00    +0.000 NA
ATOM     27  C   UNL     1      47.676   8.669  12.144  0.00  0.00    +0.000 A 
ENDBRANCH  21  23
ENDBRANCH   1  17
TORSDOF 4
ENDMDL
MODEL 3
REMARK VINA RESULT:    -6.528      2.812      4.593
REMARK INTER + INTRA:          -8.661
REMARK INTER:                  -8.360
REMARK INTRA:                  -0.301
REMARK UNBOUND:                -0.607
REMARK  Name = 
REMARK  4 active torsions:
REMARK  status: ('A' for Active; 'I' for Inactive)
REMARK    1  A    between atoms: C_2  and  C_4
REMARK    2  A    between atoms: N_8  and  C_9
REMARK    3  A    between atoms: C_9  and  C_10
REMARK    4  A    between atoms: C_14  and  N_15
REMARK                            x       y       z     vdW  Elec       q    Type
REMARK                         _______ _______ _______ _____ _____    ______ ____
ROOT
ATOM      1  C   UNL     1      47.712   8.320  13.197  0.00  0.00    +0.000 C 
ATOM      2  C   UNL     1      47.824   9.831  13.048  0.00  0.00    +0.000 C 
ATOM      3  C   UNL     1      48.331   8.943  11.963  0.00  0.00    +0.000 C 
ENDROOT
BRANCH   1   8
ATOM      4  C   UNL     1      44.639   4.572  11.274  0.00  0.00    +0.000 A 
ATOM      5  C   UNL     1      45.618   5.314  10.614  0.00  0.00    +0.000 A 
ATOM      6  C   UNL     1      46.231   6.381  11.275  0.00  0.00    +0.000 A 
ATOM      7  C   UNL     1      45.852   6.692  12.575  0.00  0.00    +0.000 A 
ATOM      8  N   UNL     1      46.325   7.820  13.256  0.00  0.00    +0.000 N 
ATOM      9  N   UNL     1      44.914   5.976  13.225  0.00  0.00    +0.000 NA
ATOM     10  C   UNL     1      44.323   4.940  12.568  0.00  0.00    +0.000 A 
ATOM     11  H   UNL     1      45.930   7.745  14.193  0.00  0.00    +0.000 HD
BRANCH   4  13
ATOM     12  N   UNL     1      44.191   3.221   9.306  0.00  0.00    +0.000 N 
ATOM     13  C   UNL     1      43.898   3.475  10.618  0.00  0.00    +0.000 C 
ATOM     14  O   UNL     1      43.070   2.811  11.225  0.00  0.00    +0.000 OA
ATOM     15  H   UNL     1      43.727   2.427   8.882  0.00  0.00    +0.000 HD
ATOM     16  H   UNL     1      45.020   3.576   8.850  0.00  0.00    +0.000 HD
ENDBRANCH   4  13
ENDBRANCH   1   8
BRANCH   1  17
ATOM     17  C   UNL     1      48.630   7.600  14.182  0.00  0.00    +0.000 A 
ATOM     18  C   UNL     1      49.858   8.149  14.585  0.00  0.00    +0.000 A 
ATOM     19  C   UNL     1      50.599   7.583  15.622  0.00  0.00    +0.000 A 
ATOM     20  C   UNL     1      50.118   6.461  16.296  0.00  0.00    +0.000 A 
ATOM     21  C   UNL     1      48.910   5.872  15.905  0.00  0.00    +0.000 A 
ATOM     22  C   UNL     1      48.201   6.423  14.826  0.00  0.00    +0.000 A 
BRANCH  21  23
ATOM     23  N   UNL     1      48.368   4.776  16.638  0.00  0.00    +0.000 N 
ATOM     24  C   UNL     1      48.934   4.127  17.715  0.00  0.00    +0.000 A 
ATOM     25  C   UNL     1      48.012   3.198  18.132  0.00  0.00    +0.000 A 
ATOM     26  N   UNL     1      46.904   3.222  17.337  0.00  0.00    +0.000 NA
ATOM     27  C   UNL     1      47.142   4.168  16.455  0.00  0.00    +0.000 A 
ENDBRANCH  21  23
ENDBRANCH   1  17
TORSDOF 4
ENDMDL
MODEL 4
REMARK VINA RESULT:    -6.303      3.855      8.066
REMARK INTER + INTRA:          -8.384
REMARK INTER:                  -7.570
REMARK INTRA:                  -0.814
REMARK UNBOUND:                -0.607
REMARK  Name = 
REMARK  4 active torsions:
REMARK  status: ('A' for Active; 'I' for Inactive)
REMARK    1  A    between atoms: C_2  and  C_4
REMARK    2  A    between atoms: N_8  and  C_9
REMARK    3  A    between atoms: C_9  and  C_10
REMARK    4  A    between atoms: C_14  and  N_15
REMARK                            x       y       z     vdW  Elec       q    Type
REMARK                         _______ _______ _______ _____ _____    ______ ____
ROOT
ATOM      1  C   UNL     1      48.542   7.638  12.583  0.00  0.00    +0.000 C 
ATOM      2  C   UNL     1      49.503   7.847  11.420  0.00  0.00    +0.000 C 
ATOM      3  C   UNL     1      49.235   8.968  12.368  0.00  0.00    +0.000 C 
ENDROOT
BRANCH   1   8
ATOM      4  C   UNL     1      48.446   6.579  17.687  0.00  0.00    +0.000 A 
ATOM      5  C   UNL     1      48.642   7.809  17.061  0.00  0.00    +0.000 A 
ATOM      6  C   UNL     1      48.782   7.856  15.672  0.00  0.00    +0.000 A 
ATOM      7  C   UNL     1      48.732   6.679  14.937  0.00  0.00    +0.000 A 
ATOM      8  N   UNL     1      48.990   6.628  13.562  0.00  0.00    +0.000 N 
ATOM      9  N   UNL     1      48.534   5.485  15.531  0.00  0.00    +0.000 NA
ATOM     10  C   UNL     1      48.402   5.454  16.886  0.00  0.00    +0.000 A 
ATOM     11  H   UNL     1      48.815   5.659  13.297  0.00  0.00    +0.000 HD
BRANCH   4  13
ATOM     12  N   UNL     1      47.410   5.587  19.647  0.00  0.00    +0.000 N 
ATOM     13  C   UNL     1      48.359   6.441  19.156  0.00  0.00    +0.000 C 
ATOM     14  O   UNL     1      49.112   7.052  19.901  0.00  0.00    +0.000 OA
ATOM     15  H   UNL     1      47.399   5.448  20.651  0.00  0.00    +0.000 HD
ATOM     16  H   UNL     1      46.944   4.896  19.076  0.00  0.00    +0.000 HD
ENDBRANCH   4  13
ENDBRANCH   1   8
BRANCH   1  17
ATOM     17  C   UNL     1      47.044   7.549  12.303  0.00  0.00    +0.000 A 
ATOM     18  C   UNL     1      46.241   8.697  12.206  0.00  0.00    +0.000 A 
ATOM     19  C   UNL     1      44.921   8.622  11.765  0.00  0.00    +0.000 A 
ATOM     20  C   UNL     1      44.375   7.395  11.389  0.00  0.00    +0.000 A 
ATOM     21  C   UNL     1      45.138   6.226  11.497  0.00  0.00    +0.000 A 
ATOM     22  C   UNL     1      46.449   6.311  11.991  0.00  0.00    +0.000 A 
BRANCH  21  23
ATOM     23  N   UNL     1      44.621   4.979  11.040  0.00  0.00    +0.000 N 
ATOM     24  C   UNL     1      44.992   4.283   9.908  0.00  0.00    +0.000 A 
ATOM     25  C   UNL     1      44.281   3.108   9.928  0.00  0.00    +0.000 A 
ATOM     26  N   UNL     1      43.458   3.057  11.015  0.00  0.00    +0.000 NA
ATOM     27  C   UNL     1      43.678   4.183  11.658  0.00  0.00    +0.000 A 
ENDBRANCH  21  23
ENDBRANCH   1  17
TORSDOF 4
ENDMDL
MODEL 5
REMARK VINA RESULT:    -6.126      2.608      3.470
REMARK INTER + INTRA:          -8.166
REMARK INTER:                  -8.233
REMARK INTRA:                   0.067
REMARK UNBOUND:                -0.607
REMARK  Name = 
REMARK  4 active torsions:
REMARK  status: ('A' for Active; 'I' for Inactive)
REMARK    1  A    between atoms: C_2  and  C_4
REMARK    2  A    between atoms: N_8  and  C_9
REMARK    3  A    between atoms: C_9  and  C_10
REMARK    4  A    between atoms: C_14  and  N_15
REMARK                            x       y       z     vdW  Elec       q    Type
REMARK                         _______ _______ _______ _____ _____    ______ ____
ROOT
ATOM      1  C   UNL     1      43.949   4.806  11.799  0.00  0.00    +0.000 C 
ATOM      2  C   UNL     1      44.841   4.116  12.822  0.00  0.00    +0.000 C 
ATOM      3  C   UNL     1      43.418   4.409  13.161  0.00  0.00    +0.000 C 
ENDROOT
BRANCH   1   8
ATOM      4  C   UNL     1      46.366   3.233   7.454  0.00  0.00    +0.000 A 
ATOM      5  C   UNL     1      46.440   4.473   8.086  0.00  0.00    +0.000 A 
ATOM      6  C   UNL     1      45.594   4.745   9.164  0.00  0.00    +0.000 A 
ATOM      7  C   UNL     1      44.687   3.780   9.585  0.00  0.00    +0.000 A 
ATOM      8  N   UNL     1      43.722   4.021  10.569  0.00  0.00    +0.000 N 
ATOM      9  N   UNL     1      44.613   2.575   8.987  0.00  0.00    +0.000 NA
ATOM     10  C   UNL     1      45.443   2.325   7.936  0.00  0.00    +0.000 A 
ATOM     11  H   UNL     1      43.258   3.123  10.707  0.00  0.00    +0.000 HD
BRANCH   4  13
ATOM     12  N   UNL     1      48.490   2.574   6.479  0.00  0.00    +0.000 N 
ATOM     13  C   UNL     1      47.179   2.897   6.266  0.00  0.00    +0.000 C 
ATOM     14  O   UNL     1      46.697   2.894   5.143  0.00  0.00    +0.000 OA
ATOM     15  H   UNL     1      49.024   2.283   5.669  0.00  0.00    +0.000 HD
ATOM     16  H   UNL     1      48.856   2.333   7.390  0.00  0.00    +0.000 HD
ENDBRANCH   4  13
ENDBRANCH   1   8
BRANCH   1  17
ATOM     17  C   UNL     1      44.159   6.289  11.508  0.00  0.00    +0.000 A 
ATOM     18  C   UNL     1      43.138   7.088  10.967  0.00  0.00    +0.000 A 
ATOM     19  C   UNL     1      43.270   8.473  10.882  0.00  0.00    +0.000 A 
ATOM     20  C   UNL     1      44.424   9.098  11.356  0.00  0.00    +0.000 A 
ATOM     21  C   UNL     1      45.473   8.332  11.878  0.00  0.00    +0.000 A 
ATOM     22  C   UNL     1      45.345   6.934  11.910  0.00  0.00    +0.000 A 
BRANCH  21  23
ATOM     23  N   UNL     1      46.620   8.962  12.441  0.00  0.00    +0.000 N 
ATOM     24  C   UNL     1      47.213  10.139  12.034  0.00  0.00    +0.000 A 
ATOM     25  C   UNL     1      48.232  10.384  12.922  0.00  0.00    +0.000 A 
ATOM     26  N   UNL     1      48.318   9.388  13.849  0.00  0.00    +0.000 NA
ATOM     27  C   UNL     1      47.350   8.553  13.539  0.00  0.00    +0.000 A 
ENDBRANCH  21  23
ENDBRANCH   1  17
TORSDOF 4
ENDMDL
MODEL 6
REMARK VINA RESULT:    -6.041      3.045      7.421
REMARK INTER + INTRA:          -8.061
REMARK INTER:                  -8.292
REMARK INTRA:                   0.231
REMARK UNBOUND:                -0.607
REMARK  Name = 
REMARK  4 active torsions:
REMARK  status: ('A' for Active; 'I' for Inactive)
REMARK    1  A    between atoms: C_2  and  C_4
REMARK    2  A    between atoms: N_8  and  C_9
REMARK    3  A    between atoms: C_9  and  C_10
REMARK    4  A    between atoms: C_14  and  N_15
REMARK                            x       y       z     vdW  Elec       q    Type
REMARK                         _______ _______ _______ _____ _____    ______ ____
ROOT
ATOM      1  C   UNL     1      48.337   7.605  12.718  0.00  0.00    +0.000 C 
ATOM      2  C   UNL     1      49.487   7.011  11.917  0.00  0.00    +0.000 C 
ATOM      3  C   UNL     1      49.193   8.470  11.815  0.00  0.00    +0.000 C 
ENDROOT
BRANCH   1   8
ATOM      4  C   UNL     1      47.987   4.239  16.685  0.00  0.00    +0.000 A 
ATOM      5  C   UNL     1      47.139   4.375  15.587  0.00  0.00    +0.000 A 
ATOM      6  C   UNL     1      47.324   5.444  14.707  0.00  0.00    +0.000 A 
ATOM      7  C   UNL     1      48.345   6.357  14.941  0.00  0.00    +0.000 A 
ATOM      8  N   UNL     1      48.514   7.521  14.182  0.00  0.00    +0.000 N 
ATOM      9  N   UNL     1      49.176   6.230  15.994  0.00  0.00    +0.000 NA
ATOM     10  C   UNL     1      48.982   5.184  16.845  0.00  0.00    +0.000 A 
ATOM     11  H   UNL     1      49.368   7.947  14.541  0.00  0.00    +0.000 HD
BRANCH   4  13
ATOM     12  N   UNL     1      48.829   2.991  18.591  0.00  0.00    +0.000 N 
ATOM     13  C   UNL     1      47.811   3.176  17.697  0.00  0.00    +0.000 C 
ATOM     14  O   UNL     1      46.793   2.500  17.742  0.00  0.00    +0.000 OA
ATOM     15  H   UNL     1      48.674   2.305  19.320  0.00  0.00    +0.000 HD
ATOM     16  H   UNL     1      49.562   3.671  18.738  0.00  0.00    +0.000 HD
ENDBRANCH   4  13
ENDBRANCH   1   8
BRANCH   1  17
ATOM     17  C   UNL     1      46.902   7.311  12.290  0.00  0.00    +0.000 A 
ATOM     18  C   UNL     1      45.896   8.289  12.356  0.00  0.00    +0.000 A 
ATOM     19  C   UNL     1      44.641   8.076  11.789  0.00  0.00    +0.000 A 
ATOM     20  C   UNL     1      44.365   6.882  11.123  0.00  0.00    +0.000 A 
ATOM     21  C   UNL     1      45.335   5.874  11.061  0.00  0.00    +0.000 A 
ATOM     22  C   UNL     1      46.577   6.084  11.680  0.00  0.00    +0.000 A 
BRANCH  21  23
ATOM     23  N   UNL     1      45.096   4.684  10.314  0.00  0.00    +0.000 N 
ATOM     24  C   UNL     1      44.646   3.471  10.793  0.00  0.00    +0.000 A 
ATOM     25  C   UNL     1      44.494   2.657   9.696  0.00  0.00    +0.000 A 
ATOM     26  N   UNL     1      44.860   3.307   8.554  0.00  0.00    +0.000 NA
ATOM     27  C   UNL     1      45.216   4.510   8.950  0.00  0.00    +0.000 A 
ENDBRANCH  21  23
ENDBRANCH   1  17
TORSDOF 4
ENDMDL
