MODEL 1
REMARK VINA RESULT:    -8.475      0.000      0.000
REMARK INTER + INTRA:         -10.864
REMARK INTER:                 -10.209
REMARK INTRA:                  -0.655
REMARK UNBOUND:                -0.655
REMARK  Name = 
REMARK  4 active torsions:
REMARK  status: ('A' for Active; 'I' for Inactive)
REMARK    1  A    between atoms: C_2  and  C_4
REMARK    2  A    between atoms: N_8  and  C_9
REMARK    3  A    between atoms: C_9  and  C_10
REMARK    4  A    between atoms: C_13  and  O_14
REMARK                            x       y       z     vdW  Elec       q    Type
REMARK                         _______ _______ _______ _____ _____    ______ ____
ROOT
ATOM      1  C   UNL     1      46.539   2.655   7.518  0.00  0.00    +0.000 A 
ATOM      2  C   UNL     1      46.292   4.010   7.717  0.00  0.00    +0.000 A 
ATOM      3  C   UNL     1      45.433   4.407   8.744  0.00  0.00    +0.000 A 
ATOM      4  C   UNL     1      44.831   3.446   9.550  0.00  0.00    +0.000 A 
ATOM      5  N   UNL     1      43.900   3.744  10.546  0.00  0.00    +0.000 N 
ATOM      6  N   UNL     1      45.051   2.128   9.352  0.00  0.00    +0.000 NA
ATOM      7  C   UNL     1      45.888   1.758   8.349  0.00  0.00    +0.000 A 
ATOM      8  H   UNL     1      43.686   2.863  11.010  0.00  0.00    +0.000 HD
ENDROOT
BRANCH   1  10
ATOM      9  N   UNL     1      47.711   2.980   5.419  0.00  0.00    +0.000 N 
ATOM     10  C   UNL     1      47.434   2.140   6.460  0.00  0.00    +0.000 C 
ATOM     11  O   UNL     1      47.935   1.027   6.530  0.00  0.00    +0.000 OA
ATOM     12  H   UNL     1      48.405   2.657   4.751  0.00  0.00    +0.000 HD
ATOM     13  H   UNL     1      47.529   3.971   5.452  0.00  0.00    +0.000 HD
ENDBRANCH   1  10
BRANCH   5  14
ATOM     14  C   UNL     1      43.894   4.949  11.386  0.00  0.00    +0.000 C 
ATOM     15  C   UNL     1      42.603   5.155  12.178  0.00  0.00    +0.000 C 
ATOM     16  C   UNL     1      42.991   6.145  11.135  0.00  0.00    +0.000 C 
BRANCH  14  17
ATOM     17  C   UNL     1      45.214   5.233  12.105  0.00  0.00    +0.000 A 
ATOM     18  C   UNL     1      45.969   6.384  11.812  0.00  0.00    +0.000 A 
ATOM     19  C   UNL     1      47.116   6.714  12.542  0.00  0.00    +0.000 A 
ATOM     20  C   UNL     1      47.530   5.882  13.575  0.00  0.00    +0.000 A 
ATOM     21  C   UNL     1      46.840   4.712  13.859  0.00  0.00    +0.000 A 
ATOM     22  C   UNL     1      45.699   4.389  13.123  0.00  0.00    +0.000 A 
BRANCH  20  23
ATOM     23  O   UNL     1      48.610   6.188  14.347  0.00  0.00    +0.000 OA
ATOM     24  H   UNL     1      48.594   5.626  15.139  0.00  0.00    +0.000 HD
ENDBRANCH  20  23
ENDBRANCH  14  17
ENDBRANCH   5  14
TORSDOF 4
ENDMDL
MODEL 2
REMARK VINA RESULT:    -6.623      2.739      6.457
REMARK INTER + INTRA:          -8.633
REMARK INTER:                  -8.832
REMARK INTRA:                   0.199
REMARK UNBOUND:                -0.655
REMARK  Name = 
REMARK  4 active torsions:
REMARK  status: ('A' for Active; 'I' for Inactive)
REMARK    1  A    between atoms: C_2  and  C_4
REMARK    2  A    between atoms: N_8  and  C_9
REMARK    3  A    between atoms: C_9  and  C_10
REMARK    4  A    between atoms: C_13  and  O_14
REMARK                            x       y       z     vdW  Elec       q    Type
REMARK                         _______ _______ _______ _____ _____    ______ ____
ROOT
ATOM      1  C   UNL     1      48.000   5.666  14.975  0.00  0.00    +0.000 A 
ATOM      2  C   UNL     1      47.551   6.066  13.719  0.00  0.00    +0.000 A 
ATOM      3  C   UNL     1      46.742   5.204  12.974  0.00  0.00    +0.000 A 
ATOM      4  C   UNL     1      46.401   3.959  13.491  0.00  0.00    +0.000 A 
ATOM      5  N   UNL     1      45.667   3.004  12.786  0.00  0.00    +0.000 N 
ATOM      6  N   UNL     1      46.848   3.556  14.700  0.00  0.00    +0.000 NA
ATOM      7  C   UNL     1      47.634   4.404  15.412  0.00  0.00    +0.000 A 
ATOM      8  H   UNL     1      45.514   2.229  13.430  0.00  0.00    +0.000 HD
ENDROOT
BRANCH   1  10
ATOM      9  N   UNL     1      48.224   7.414  16.643  0.00  0.00    +0.000 N 
ATOM     10  C   UNL     1      48.855   6.508  15.836  0.00  0.00    +0.000 C 
ATOM     11  O   UNL     1      50.071   6.377  15.857  0.00  0.00    +0.000 OA
ATOM     12  H   UNL     1      48.810   7.915  17.303  0.00  0.00    +0.000 HD
ATOM     13  H   UNL     1      47.236   7.376  16.838  0.00  0.00    +0.000 HD
ENDBRANCH   1  10
BRANCH   5  14
ATOM     14  C   UNL     1      44.591   3.281  11.824  0.00  0.00    +0.000 C 
ATOM     15  C   UNL     1      43.482   4.183  12.365  0.00  0.00    +0.000 C 
ATOM     16  C   UNL     1      43.168   2.777  11.986  0.00  0.00    +0.000 C 
BRANCH  14  17
ATOM     17  C   UNL     1      45.066   3.531  10.392  0.00  0.00    +0.000 A 
ATOM     18  C   UNL     1      45.407   4.824   9.953  0.00  0.00    +0.000 A 
ATOM     19  C   UNL     1      45.952   5.048   8.684  0.00  0.00    +0.000 A 
ATOM     20  C   UNL     1      46.152   3.973   7.828  0.00  0.00    +0.000 A 
ATOM     21  C   UNL     1      45.781   2.691   8.207  0.00  0.00    +0.000 A 
ATOM     22  C   UNL     1      45.235   2.477   9.473  0.00  0.00    +0.000 A 
BRANCH  20  23
ATOM     23  O   UNL     1      46.727   4.134   6.603  0.00  0.00    +0.000 OA
ATOM     24  H   UNL     1      47.055   3.272   6.299  0.00  0.00    +0.000 HD
ENDBRANCH  20  23
ENDBRANCH  14  17
ENDBRANCH   5  14
TORSDOF 4
ENDMDL
MODEL 3
REMARK VINA RESULT:    -6.616      2.473      6.410
REMARK INTER + INTRA:          -8.625
REMARK INTER:                  -8.279
REMARK INTRA:                  -0.346
REMARK UNBOUND:                -0.655
REMARK  Name = 
REMARK  4 active torsions:
REMARK  status: ('A' for Active; 'I' for Inactive)
REMARK    1  A    between atoms: C_2  and  C_4
REMARK    2  A    between atoms: N_8  and  C_9
REMARK    3  A    between atoms: C_9  and  C_10
REMARK    4  A    between atoms: C_13  and  O_14
REMARK                            x       y       z     vdW  Elec       q    Type
REMARK                         _______ _______ _______ _____ _____    ______ ____
ROOT
ATOM      1  C   UNL     1      48.310   6.761  13.575  0.00  0.00    +0.000 A 
ATOM      2  C   UNL     1      47.375   5.782  13.901  0.00  0.00    +0.000 A 
ATOM      3  C   UNL     1      46.404   5.423  12.963  0.00  0.00    +0.000 A 
ATOM      4  C   UNL     1      46.378   6.049  11.722  0.00  0.00    +0.000 A 
ATOM      5  N   UNL     1      45.399   5.812  10.756  0.00  0.00    +0.000 N 
ATOM      6  N   UNL     1      47.269   7.013  11.405  0.00  0.00    +0.000 NA
ATOM      7  C   UNL     1      48.207   7.352  12.326  0.00  0.00    +0.000 A 
ATOM      8  H   UNL     1      45.669   6.352   9.936  0.00  0.00    +0.000 HD
ENDROOT
BRANCH   1  10
ATOM      9  N   UNL     1      50.588   7.508  13.945  0.00  0.00    +0.000 N 
ATOM     10  C   UNL     1      49.375   7.205  14.498  0.00  0.00    +0.000 C 
ATOM     11  O   UNL     1      49.173   7.333  15.696  0.00  0.00    +0.000 OA
ATOM     12  H   UNL     1      51.281   7.909  14.570  0.00  0.00    +0.000 HD
ATOM     13  H   UNL     1      50.717   7.658  12.957  0.00  0.00    +0.000 HD
ENDBRANCH   1  10
BRANCH   5  14
ATOM     14  C   UNL     1      44.727   4.529  10.507  0.00  0.00    +0.000 C 
ATOM     15  C   UNL     1      43.204   4.584  10.625  0.00  0.00    +0.000 C 
ATOM     16  C   UNL     1      43.985   3.746  11.577  0.00  0.00    +0.000 C 
BRANCH  14  17
ATOM     17  C   UNL     1      45.315   3.715   9.353  0.00  0.00    +0.000 A 
ATOM     18  C   UNL     1      45.950   4.346   8.267  0.00  0.00    +0.000 A 
ATOM     19  C   UNL     1      46.593   3.610   7.265  0.00  0.00    +0.000 A 
ATOM     20  C   UNL     1      46.597   2.223   7.334  0.00  0.00    +0.000 A 
ATOM     21  C   UNL     1      45.937   1.565   8.362  0.00  0.00    +0.000 A 
ATOM     22  C   UNL     1      45.295   2.307   9.355  0.00  0.00    +0.000 A 
BRANCH  20  23
ATOM     23  O   UNL     1      47.253   1.465   6.411  0.00  0.00    +0.000 OA
ATOM     24  H   UNL     1      47.020   0.533   6.553  0.00  0.00    +0.000 HD
ENDBRANCH  20  23
ENDBRANCH  14  17
ENDBRANCH   5  14
TORSDOF 4
ENDMDL
MODEL 4
REMARK VINA RESULT:    -5.990      2.669      6.355
REMARK INTER + INTRA:          -7.871
REMARK INTER:                  -7.790
REMARK INTRA:                  -0.080
REMARK UNBOUND:                -0.655
REMARK  Name = 
REMARK  4 active torsions:
REMARK  status: ('A' for Active; 'I' for Inactive)
REMARK    1  A    between atoms: C_2  and  C_4
REMARK    2  A    between atoms: N_8  and  C_9
REMARK    3  A    between atoms: C_9  and  C_10
REMARK    4  A    between atoms: C_13  and  O_14
REMARK                            x       y       z     vdW  Elec       q    Type
REMARK                         _______ _______ _______ _____ _____    ______ ____
ROOT
ATOM      1  C   UNL     1      45.821   8.737  12.027  0.00  0.00    +0.000 A 
ATOM      2  C   UNL     1      46.370   7.563  12.537  0.00  0.00    +0.000 A 
ATOM      3  C   UNL     1      45.726   6.346  12.299  0.00  0.00    +0.000 A 
ATOM      4  C   UNL     1      44.545   6.322  11.565  0.00  0.00    +0.000 A 
ATOM      5  N   UNL     1      43.794   5.167  11.347  0.00  0.00    +0.000 N 
ATOM      6  N   UNL     1      43.997   7.458  11.083  0.00  0.00    +0.000 NA
ATOM      7  C   UNL     1      44.633   8.633  11.322  0.00  0.00    +0.000 A 
ATOM      8  H   UNL     1      43.030   5.435  10.729  0.00  0.00    +0.000 HD
ENDROOT
BRANCH   1  10
ATOM      9  N   UNL     1      45.590  11.147  12.183  0.00  0.00    +0.000 N 
ATOM     10  C   UNL     1      46.430  10.069  12.223  0.00  0.00    +0.000 C 
ATOM     11  O   UNL     1      47.624  10.201  12.448  0.00  0.00    +0.000 OA
ATOM     12  H   UNL     1      45.999  12.046  12.419  0.00  0.00    +0.000 HD
ATOM     13  H   UNL     1      44.588  11.062  12.254  0.00  0.00    +0.000 HD
ENDBRANCH   1  10
BRANCH   5  14
ATOM     14  C   UNL     1      44.330   3.809  11.180  0.00  0.00    +0.000 C 
ATOM     15  C   UNL     1      43.453   2.709  11.779  0.00  0.00    +0.000 C 
ATOM     16  C   UNL     1      44.814   2.948  12.334  0.00  0.00    +0.000 C 
BRANCH  14  17
ATOM     17  C   UNL     1      44.965   3.537   9.815  0.00  0.00    +0.000 A 
ATOM     18  C   UNL     1      45.369   4.595   8.977  0.00  0.00    +0.000 A 
ATOM     19  C   UNL     1      46.055   4.361   7.781  0.00  0.00    +0.000 A 
ATOM     20  C   UNL     1      46.338   3.056   7.401  0.00  0.00    +0.000 A 
ATOM     21  C   UNL     1      45.912   1.986   8.175  0.00  0.00    +0.000 A 
ATOM     22  C   UNL     1      45.224   2.229   9.366  0.00  0.00    +0.000 A 
BRANCH  20  23
ATOM     23  O   UNL     1      47.049   2.780   6.271  0.00  0.00    +0.000 OA
ATOM     24  H   UNL     1      47.148   3.601   5.760  0.00  0.00    +0.000 HD
ENDBRANCH  20  23
ENDBRANCH  14  17
ENDBRANCH   5  14
TORSDOF 4
ENDMDL
MODEL 5
REMARK VINA RESULT:    -5.669      2.147      2.651
REMARK INTER + INTRA:          -7.484
REMARK INTER:                  -7.591
REMARK INTRA:                   0.107
REMARK UNBOUND:                -0.655
REMARK  Name = 
REMARK  4 active torsions:
REMARK  status: ('A' for Active; 'I' for Inactive)
REMARK    1  A    between atoms: C_2  and  C_4
REMARK    2  A    between atoms: N_8  and  C_9
REMARK    3  A    between atoms: C_9  and  C_10
REMARK    4  A    between atoms: C_13  and  O_14
REMARK                            x       y       z     vdW  Elec       q    Type
REMARK                         _______ _______ _______ _____ _____    ______ ____
ROOT
ATOM      1  C   UNL     1      46.271   3.636   7.402  0.00  0.00    +0.000 A 
ATOM      2  C   UNL     1      46.683   4.644   8.269  0.00  0.00    +0.000 A 
ATOM      3  C   UNL     1      45.817   5.077   9.277  0.00  0.00    +0.000 A 
ATOM      4  C   UNL     1      44.556   4.503   9.397  0.00  0.00    +0.000 A 
ATOM      5  N   UNL     1      43.598   4.926  10.319  0.00  0.00    +0.000 N 
ATOM      6  N   UNL     1      44.142   3.538   8.547  0.00  0.00    +0.000 NA
ATOM      7  C   UNL     1      44.994   3.128   7.573  0.00  0.00    +0.000 A 
ATOM      8  H   UNL     1      42.810   4.289  10.224  0.00  0.00    +0.000 HD
ENDROOT
BRANCH   1  10
ATOM      9  N   UNL     1      48.410   2.799   6.620  0.00  0.00    +0.000 N 
ATOM     10  C   UNL     1      47.116   3.111   6.309  0.00  0.00    +0.000 C 
ATOM     11  O   UNL     1      46.671   2.927   5.186  0.00  0.00    +0.000 OA
ATOM     12  H   UNL     1      48.952   2.345   5.892  0.00  0.00    +0.000 HD
ATOM     13  H   UNL     1      48.735   2.696   7.569  0.00  0.00    +0.000 HD
ENDBRANCH   1  10
BRANCH   5  14
ATOM     14  C   UNL     1      43.870   5.442  11.668  0.00  0.00    +0.000 C 
ATOM     15  C   UNL     1      44.493   4.419  12.617  0.00  0.00    +0.000 C 
ATOM     16  C   UNL     1      43.140   4.967  12.912  0.00  0.00    +0.000 C 
BRANCH  14  17
ATOM     17  C   UNL     1      44.422   6.868  11.706  0.00  0.00    +0.000 A 
ATOM     18  C   UNL     1      43.813   7.904  10.974  0.00  0.00    +0.000 A 
ATOM     19  C   UNL     1      44.237   9.232  11.092  0.00  0.00    +0.000 A 
ATOM     20  C   UNL     1      45.291   9.539  11.941  0.00  0.00    +0.000 A 
ATOM     21  C   UNL     1      45.950   8.537  12.640  0.00  0.00    +0.000 A 
ATOM     22  C   UNL     1      45.522   7.214  12.514  0.00  0.00    +0.000 A 
BRANCH  20  23
ATOM     23  O   UNL     1      45.707  10.823  12.128  0.00  0.00    +0.000 OA
ATOM     24  H   UNL     1      46.048  10.910  13.034  0.00  0.00    +0.000 HD
ENDBRANCH  20  23
ENDBRANCH  14  17
ENDBRANCH   5  14
TORSDOF 4
ENDMDL
