MODEL 1
REMARK VINA RESULT:    -8.081      0.000      0.000
REMARK INTER + INTRA:         -11.849
REMARK INTER:                 -10.915
REMARK INTRA:                  -0.934
REMARK UNBOUND:                -0.934
REMARK  Name = 
REMARK  7 active torsions:
REMARK  status: ('A' for Active; 'I' for Inactive)
REMARK    1  A    between atoms: C_1  and  C_2
REMARK    2  A    between atoms: C_5  and  C_6
REMARK    3  A    between atoms: N_8  and  C_9
REMARK    4  A    between atoms: C_9  and  C_10
REMARK    5  A    between atoms: C_13  and  C_14
REMARK    6  A    between atoms: C_14  and  N_15
REMARK    7  A    between atoms: C_16  and  C_18
REMARK                            x       y       z     vdW  Elec       q    Type
REMARK                         _______ _______ _______ _____ _____    ______ ____
ROOT
ATOM      1  C   UNL     1      44.892   6.220  11.326  0.00  0.00    +0.000 A 
ATOM      2  C   UNL     1      44.569   7.552  11.617  0.00  0.00    +0.000 A 
ATOM      3  C   UNL     1      45.393   8.324  12.447  0.00  0.00    +0.000 A 
ATOM      4  C   UNL     1      46.572   7.790  12.986  0.00  0.00    +0.000 A 
ATOM      5  C   UNL     1      46.897   6.460  12.689  0.00  0.00    +0.000 A 
ATOM      6  C   UNL     1      46.074   5.688  11.859  0.00  0.00    +0.000 A 
ENDROOT
BRANCH   1   7
ATOM      7  C   UNL     1      44.001   5.383  10.439  0.00  0.00    +0.000 C 
BRANCH   7  10
ATOM      8  C   UNL     1      44.683   3.220   9.439  0.00  0.00    +0.000 C 
ATOM      9  O   UNL     1      43.920   2.583  10.167  0.00  0.00    +0.000 OA
ATOM     10  N   UNL     1      44.772   4.594   9.514  0.00  0.00    +0.000 N 
ATOM     11  H   UNL     1      45.378   5.066   8.853  0.00  0.00    +0.000 HD
BRANCH   8  16
ATOM     12  C   UNL     1      47.838   2.294   5.264  0.00  0.00    +0.000 C 
ATOM     13  C   UNL     1      47.027   2.140   6.504  0.00  0.00    +0.000 A 
ATOM     14  C   UNL     1      46.837   1.019   7.284  0.00  0.00    +0.000 A 
ATOM     15  C   UNL     1      45.985   1.281   8.400  0.00  0.00    +0.000 A 
ATOM     16  C   UNL     1      45.548   2.594   8.445  0.00  0.00    +0.000 A 
ATOM     17  S   UNL     1      46.179   3.486   7.121  0.00  0.00    +0.000 S 
ENDBRANCH   8  16
ENDBRANCH   7  10
ENDBRANCH   1   7
BRANCH   4  18
ATOM     18  C   UNL     1      47.457   8.612  13.892  0.00  0.00    +0.000 C 
BRANCH  18  19
ATOM     19  N   UNL     1      47.858   7.869  15.062  0.00  0.00    +0.000 N 
ATOM     20  C   UNL     1      49.109   7.314  15.169  0.00  0.00    +0.000 C 
ATOM     21  O   UNL     1      49.960   7.456  14.295  0.00  0.00    +0.000 OA
ATOM     22  H   UNL     1      47.116   7.542  15.675  0.00  0.00    +0.000 HD
BRANCH  20  23
ATOM     23  C   UNL     1      49.404   6.592  16.415  0.00  0.00    +0.000 A 
ATOM     24  C   UNL     1      50.371   7.081  17.285  0.00  0.00    +0.000 A 
ATOM     25  S   UNL     1      50.551   6.153  18.705  0.00  0.00    +0.000 S 
ATOM     26  C   UNL     1      49.384   5.030  18.183  0.00  0.00    +0.000 A 
ATOM     27  N   UNL     1      49.072   3.943  18.938  0.00  0.00    +0.000 NA
ATOM     28  C   UNL     1      48.196   3.157  18.408  0.00  0.00    +0.000 A 
ATOM     29  N   UNL     1      47.597   3.365  17.192  0.00  0.00    +0.000 N 
ATOM     30  C   UNL     1      47.852   4.468  16.411  0.00  0.00    +0.000 A 
ATOM     31  O   UNL     1      47.259   4.652  15.354  0.00  0.00    +0.000 OA
ATOM     32  C   UNL     1      48.847   5.373  16.954  0.00  0.00    +0.000 A 
ATOM     33  H   UNL     1      46.908   2.718  16.836  0.00  0.00    +0.000 HD
ENDBRANCH  20  23
ENDBRANCH  18  19
ENDBRANCH   4  18
TORSDOF 6
ENDMDL
MODEL 2
REMARK VINA RESULT:    -7.567      2.249      2.545
REMARK INTER + INTRA:         -11.155
REMARK INTER:                 -10.243
REMARK INTRA:                  -0.912
REMARK UNBOUND:                -0.934
REMARK  Name = 
REMARK  7 active torsions:
REMARK  status: ('A' for Active; 'I' for Inactive)
REMARK    1  A    between atoms: C_1  and  C_2
REMARK    2  A    between atoms: C_5  and  C_6
REMARK    3  A    between atoms: N_8  and  C_9
REMARK    4  A    between atoms: C_9  and  C_10
REMARK    5  A    between atoms: C_13  and  C_14
REMARK    6  A    between atoms: C_14  and  N_15
REMARK    7  A    between atoms: C_16  and  C_18
REMARK                            x       y       z     vdW  Elec       q    Type
REMARK                         _______ _______ _______ _____ _____    ______ ____
ROOT
ATOM      1  C   UNL     1      45.700   4.488  12.856  0.00  0.00    +0.000 A 
ATOM      2  C   UNL     1      46.069   5.779  12.457  0.00  0.00    +0.000 A 
ATOM      3  C   UNL     1      46.962   6.540  13.225  0.00  0.00    +0.000 A 
ATOM      4  C   UNL     1      47.525   6.017  14.398  0.00  0.00    +0.000 A 
ATOM      5  C   UNL     1      47.160   4.723  14.792  0.00  0.00    +0.000 A 
ATOM      6  C   UNL     1      46.269   3.962  14.024  0.00  0.00    +0.000 A 
ENDROOT
BRANCH   1   7
ATOM      7  C   UNL     1      44.732   3.671  12.035  0.00  0.00    +0.000 C 
BRANCH   7  10
ATOM      8  C   UNL     1      44.953   3.369   9.585  0.00  0.00    +0.000 C 
ATOM      9  O   UNL     1      43.999   4.113   9.355  0.00  0.00    +0.000 OA
ATOM     10  N   UNL     1      45.371   3.109  10.873  0.00  0.00    +0.000 N 
ATOM     11  H   UNL     1      46.194   2.532  10.997  0.00  0.00    +0.000 HD
BRANCH   8  16
ATOM     12  C   UNL     1      47.867   2.319   5.266  0.00  0.00    +0.000 C 
ATOM     13  C   UNL     1      47.084   2.191   6.528  0.00  0.00    +0.000 A 
ATOM     14  C   UNL     1      46.810   1.062   7.270  0.00  0.00    +0.000 A 
ATOM     15  C   UNL     1      46.024   1.358   8.425  0.00  0.00    +0.000 A 
ATOM     16  C   UNL     1      45.720   2.704   8.537  0.00  0.00    +0.000 A 
ATOM     17  S   UNL     1      46.393   3.586   7.226  0.00  0.00    +0.000 S 
ENDBRANCH   8  16
ENDBRANCH   7  10
ENDBRANCH   1   7
BRANCH   4  18
ATOM     18  C   UNL     1      48.477   6.834  15.237  0.00  0.00    +0.000 C 
BRANCH  18  19
ATOM     19  N   UNL     1      49.553   6.028  15.760  0.00  0.00    +0.000 N 
ATOM     20  C   UNL     1      49.842   5.996  17.102  0.00  0.00    +0.000 C 
ATOM     21  O   UNL     1      49.176   6.618  17.925  0.00  0.00    +0.000 OA
ATOM     22  H   UNL     1      50.249   5.703  15.094  0.00  0.00    +0.000 HD
BRANCH  20  23
ATOM     23  C   UNL     1      50.954   5.127  17.515  0.00  0.00    +0.000 A 
ATOM     24  C   UNL     1      52.122   5.689  18.014  0.00  0.00    +0.000 A 
ATOM     25  S   UNL     1      53.287   4.538  18.494  0.00  0.00    +0.000 S 
ATOM     26  C   UNL     1      52.296   3.248  17.998  0.00  0.00    +0.000 A 
ATOM     27  N   UNL     1      52.717   1.959  18.107  0.00  0.00    +0.000 NA
ATOM     28  C   UNL     1      51.879   1.084  17.663  0.00  0.00    +0.000 A 
ATOM     29  N   UNL     1      50.653   1.379  17.126  0.00  0.00    +0.000 N 
ATOM     30  C   UNL     1      50.169   2.663  17.029  0.00  0.00    +0.000 A 
ATOM     31  O   UNL     1      49.046   2.890  16.594  0.00  0.00    +0.000 OA
ATOM     32  C   UNL     1      51.082   3.689  17.497  0.00  0.00    +0.000 A 
ATOM     33  H   UNL     1      50.037   0.647  16.806  0.00  0.00    +0.000 HD
ENDBRANCH  20  23
ENDBRANCH  18  19
ENDBRANCH   4  18
TORSDOF 6
ENDMDL
MODEL 3
REMARK VINA RESULT:    -7.394      5.053      9.589
REMARK INTER + INTRA:         -10.922
REMARK INTER:                 -10.135
REMARK INTRA:                  -0.787
REMARK UNBOUND:                -0.934
REMARK  Name = 
REMARK  7 active torsions:
REMARK  status: ('A' for Active; 'I' for Inactive)
REMARK    1  A    between atoms: C_1  and  C_2
REMARK    2  A    between atoms: C_5  and  C_6
REMARK    3  A    between atoms: N_8  and  C_9
REMARK    4  A    between atoms: C_9  and  C_10
REMARK    5  A    between atoms: C_13  and  C_14
REMARK    6  A    between atoms: C_14  and  N_15
REMARK    7  A    between atoms: C_16  and  C_18
REMARK                            x       y       z     vdW  Elec       q    Type
REMARK                         _______ _______ _______ _____ _____    ______ ____
ROOT
ATOM      1  C   UNL     1      51.430   3.093  17.713  0.00  0.00    +0.000 A 
ATOM      2  C   UNL     1      50.714   2.026  17.154  0.00  0.00    +0.000 A 
ATOM      3  C   UNL     1      49.337   2.134  16.913  0.00  0.00    +0.000 A 
ATOM      4  C   UNL     1      48.650   3.322  17.200  0.00  0.00    +0.000 A 
ATOM      5  C   UNL     1      49.368   4.390  17.751  0.00  0.00    +0.000 A 
ATOM      6  C   UNL     1      50.744   4.283  17.993  0.00  0.00    +0.000 A 
ENDROOT
BRANCH   1   7
ATOM      7  C   UNL     1      52.911   2.975  17.983  0.00  0.00    +0.000 C 
BRANCH   7  10
ATOM      8  C   UNL     1      54.112   0.834  18.317  0.00  0.00    +0.000 C 
ATOM      9  O   UNL     1      54.305   1.068  19.511  0.00  0.00    +0.000 OA
ATOM     10  N   UNL     1      53.433   1.720  17.508  0.00  0.00    +0.000 N 
ATOM     11  H   UNL     1      53.259   1.448  16.548  0.00  0.00    +0.000 HD
BRANCH   8  16
ATOM     12  C   UNL     1      55.622  -4.151  17.259  0.00  0.00    +0.000 C 
ATOM     13  C   UNL     1      55.278  -2.706  17.139  0.00  0.00    +0.000 A 
ATOM     14  C   UNL     1      55.296  -1.898  16.022  0.00  0.00    +0.000 A 
ATOM     15  C   UNL     1      54.892  -0.561  16.321  0.00  0.00    +0.000 A 
ATOM     16  C   UNL     1      54.573  -0.383  17.657  0.00  0.00    +0.000 A 
ATOM     17  S   UNL     1      54.778  -1.849  18.528  0.00  0.00    +0.000 S 
ENDBRANCH   8  16
ENDBRANCH   7  10
ENDBRANCH   1   7
BRANCH   4  18
ATOM     18  C   UNL     1      47.165   3.441  16.954  0.00  0.00    +0.000 C 
BRANCH  18  19
ATOM     19  N   UNL     1      46.870   4.427  15.942  0.00  0.00    +0.000 N 
ATOM     20  C   UNL     1      46.979   4.139  14.604  0.00  0.00    +0.000 C 
ATOM     21  O   UNL     1      47.292   3.022  14.203  0.00  0.00    +0.000 OA
ATOM     22  H   UNL     1      46.843   5.398  16.241  0.00  0.00    +0.000 HD
BRANCH  20  23
ATOM     23  C   UNL     1      46.638   5.221  13.669  0.00  0.00    +0.000 A 
ATOM     24  C   UNL     1      47.565   6.221  13.402  0.00  0.00    +0.000 A 
ATOM     25  S   UNL     1      47.028   7.367  12.257  0.00  0.00    +0.000 S 
ATOM     26  C   UNL     1      45.515   6.601  12.119  0.00  0.00    +0.000 A 
ATOM     27  N   UNL     1      44.549   7.101  11.304  0.00  0.00    +0.000 NA
ATOM     28  C   UNL     1      43.440   6.441  11.321  0.00  0.00    +0.000 A 
ATOM     29  N   UNL     1      43.212   5.318  12.075  0.00  0.00    +0.000 N 
ATOM     30  C   UNL     1      44.171   4.755  12.885  0.00  0.00    +0.000 A 
ATOM     31  O   UNL     1      43.953   3.719  13.505  0.00  0.00    +0.000 OA
ATOM     32  C   UNL     1      45.431   5.472  12.917  0.00  0.00    +0.000 A 
ATOM     33  H   UNL     1      42.325   4.839  12.035  0.00  0.00    +0.000 HD
ENDBRANCH  20  23
ENDBRANCH  18  19
ENDBRANCH   4  18
TORSDOF 6
ENDMDL
MODEL 4
REMARK VINA RESULT:    -6.890      3.037      8.866
REMARK INTER + INTRA:         -10.241
REMARK INTER:                  -9.286
REMARK INTRA:                  -0.955
REMARK UNBOUND:                -0.934
REMARK  Name = 
REMARK  7 active torsions:
REMARK  status: ('A' for Active; 'I' for Inactive)
REMARK    1  A    between atoms: C_1  and  C_2
REMARK    2  A    between atoms: C_5  and  C_6
REMARK    3  A    between atoms: N_8  and  C_9
REMARK    4  A    between atoms: C_9  and  C_10
REMARK    5  A    between atoms: C_13  and  C_14
REMARK    6  A    between atoms: C_14  and  N_15
REMARK    7  A    between atoms: C_16  and  C_18
REMARK                            x       y       z     vdW  Elec       q    Type
REMARK                         _______ _______ _______ _____ _____    ______ ____
ROOT
ATOM      1  C   UNL     1      49.930   7.048  15.722  0.00  0.00    +0.000 A 
ATOM      2  C   UNL     1      50.448   7.780  14.645  0.00  0.00    +0.000 A 
ATOM      3  C   UNL     1      49.709   7.938  13.464  0.00  0.00    +0.000 A 
ATOM      4  C   UNL     1      48.424   7.390  13.343  0.00  0.00    +0.000 A 
ATOM      5  C   UNL     1      47.905   6.665  14.423  0.00  0.00    +0.000 A 
ATOM      6  C   UNL     1      48.644   6.506  15.603  0.00  0.00    +0.000 A 
ENDROOT
BRANCH   1   7
ATOM      7  C   UNL     1      50.729   6.869  16.991  0.00  0.00    +0.000 C 
BRANCH   7  10
ATOM      8  C   UNL     1      50.775   4.529  17.807  0.00  0.00    +0.000 C 
ATOM      9  O   UNL     1      49.741   4.680  18.458  0.00  0.00    +0.000 OA
ATOM     10  N   UNL     1      51.315   5.555  17.061  0.00  0.00    +0.000 N 
ATOM     11  H   UNL     1      52.138   5.355  16.505  0.00  0.00    +0.000 HD
BRANCH   8  16
ATOM     12  C   UNL     1      54.552   0.803  18.133  0.00  0.00    +0.000 C 
ATOM     13  C   UNL     1      53.261   1.515  17.910  0.00  0.00    +0.000 A 
ATOM     14  C   UNL     1      52.052   1.007  17.487  0.00  0.00    +0.000 A 
ATOM     15  C   UNL     1      51.047   2.020  17.400  0.00  0.00    +0.000 A 
ATOM     16  C   UNL     1      51.515   3.272  17.761  0.00  0.00    +0.000 A 
ATOM     17  S   UNL     1      53.174   3.195  18.195  0.00  0.00    +0.000 S 
ENDBRANCH   8  16
ENDBRANCH   7  10
ENDBRANCH   1   7
BRANCH   4  18
ATOM     18  C   UNL     1      47.628   7.545  12.071  0.00  0.00    +0.000 C 
BRANCH  18  19
ATOM     19  N   UNL     1      46.905   6.340  11.744  0.00  0.00    +0.000 N 
ATOM     20  C   UNL     1      45.533   6.300  11.746  0.00  0.00    +0.000 C 
ATOM     21  O   UNL     1      44.854   7.295  11.986  0.00  0.00    +0.000 OA
ATOM     22  H   UNL     1      47.427   5.469  11.776  0.00  0.00    +0.000 HD
BRANCH  20  23
ATOM     23  C   UNL     1      44.911   5.018  11.383  0.00  0.00    +0.000 A 
ATOM     24  C   UNL     1      44.123   4.345  12.308  0.00  0.00    +0.000 A 
ATOM     25  S   UNL     1      43.438   2.902  11.707  0.00  0.00    +0.000 S 
ATOM     26  C   UNL     1      44.216   3.094  10.206  0.00  0.00    +0.000 A 
ATOM     27  N   UNL     1      44.073   2.169   9.220  0.00  0.00    +0.000 NA
ATOM     28  C   UNL     1      44.745   2.423   8.148  0.00  0.00    +0.000 A 
ATOM     29  N   UNL     1      45.542   3.524   7.969  0.00  0.00    +0.000 N 
ATOM     30  C   UNL     1      45.687   4.504   8.922  0.00  0.00    +0.000 A 
ATOM     31  O   UNL     1      46.365   5.504   8.710  0.00  0.00    +0.000 OA
ATOM     32  C   UNL     1      44.968   4.256  10.157  0.00  0.00    +0.000 A 
ATOM     33  H   UNL     1      46.034   3.672   7.100  0.00  0.00    +0.000 HD
ENDBRANCH  20  23
ENDBRANCH  18  19
ENDBRANCH   4  18
TORSDOF 6
ENDMDL
MODEL 5
REMARK VINA RESULT:    -6.881      2.992      8.468
REMARK INTER + INTRA:         -10.228
REMARK INTER:                  -9.335
REMARK INTRA:                  -0.893
REMARK UNBOUND:                -0.934
REMARK  Name = 
REMARK  7 active torsions:
REMARK  status: ('A' for Active; 'I' for Inactive)
REMARK    1  A    between atoms: C_1  and  C_2
REMARK    2  A    between atoms: C_5  and  C_6
REMARK    3  A    between atoms: N_8  and  C_9
REMARK    4  A    between atoms: C_9  and  C_10
REMARK    5  A    between atoms: C_13  and  C_14
REMARK    6  A    between atoms: C_14  and  N_15
REMARK    7  A    between atoms: C_16  and  C_18
REMARK                            x       y       z     vdW  Elec       q    Type
REMARK                         _______ _______ _______ _____ _____    ______ ____
ROOT
ATOM      1  C   UNL     1      50.077   7.148  15.818  0.00  0.00    +0.000 A 
ATOM      2  C   UNL     1      50.765   7.936  14.886  0.00  0.00    +0.000 A 
ATOM      3  C   UNL     1      50.199   8.229  13.637  0.00  0.00    +0.000 A 
ATOM      4  C   UNL     1      48.921   7.760  13.301  0.00  0.00    +0.000 A 
ATOM      5  C   UNL     1      48.232   6.978  14.237  0.00  0.00    +0.000 A 
ATOM      6  C   UNL     1      48.797   6.685  15.485  0.00  0.00    +0.000 A 
ENDROOT
BRANCH   1   7
ATOM      7  C   UNL     1      50.689   6.824  17.160  0.00  0.00    +0.000 C 
BRANCH   7  10
ATOM      8  C   UNL     1      50.604   4.436  17.818  0.00  0.00    +0.000 C 
ATOM      9  O   UNL     1      49.529   4.582  18.403  0.00  0.00    +0.000 OA
ATOM     10  N   UNL     1      51.228   5.488  17.183  0.00  0.00    +0.000 N 
ATOM     11  H   UNL     1      52.083   5.296  16.675  0.00  0.00    +0.000 HD
BRANCH   8  16
ATOM     12  C   UNL     1      54.217   0.556  18.193  0.00  0.00    +0.000 C 
ATOM     13  C   UNL     1      52.976   1.331  17.909  0.00  0.00    +0.000 A 
ATOM     14  C   UNL     1      51.797   0.903  17.337  0.00  0.00    +0.000 A 
ATOM     15  C   UNL     1      50.836   1.957  17.239  0.00  0.00    +0.000 A 
ATOM     16  C   UNL     1      51.305   3.159  17.741  0.00  0.00    +0.000 A 
ATOM     17  S   UNL     1      52.913   2.986  18.319  0.00  0.00    +0.000 S 
ENDBRANCH   8  16
ENDBRANCH   7  10
ENDBRANCH   1   7
BRANCH   4  18
ATOM     18  C   UNL     1      48.311   8.060  11.954  0.00  0.00    +0.000 C 
BRANCH  18  19
ATOM     19  N   UNL     1      47.595   6.923  11.429  0.00  0.00    +0.000 N 
ATOM     20  C   UNL     1      46.228   6.929  11.300  0.00  0.00    +0.000 C 
ATOM     21  O   UNL     1      45.553   7.915  11.587  0.00  0.00    +0.000 OA
ATOM     22  H   UNL     1      48.091   6.036  11.410  0.00  0.00    +0.000 HD
BRANCH  20  23
ATOM     23  C   UNL     1      45.614   5.717  10.739  0.00  0.00    +0.000 A 
ATOM     24  C   UNL     1      45.739   5.443   9.383  0.00  0.00    +0.000 A 
ATOM     25  S   UNL     1      45.013   3.974   8.909  0.00  0.00    +0.000 S 
ATOM     26  C   UNL     1      44.455   3.677  10.489  0.00  0.00    +0.000 A 
ATOM     27  N   UNL     1      43.718   2.571  10.775  0.00  0.00    +0.000 NA
ATOM     28  C   UNL     1      43.332   2.488  12.004  0.00  0.00    +0.000 A 
ATOM     29  N   UNL     1      43.624   3.410  12.977  0.00  0.00    +0.000 N 
ATOM     30  C   UNL     1      44.397   4.524  12.743  0.00  0.00    +0.000 A 
ATOM     31  O   UNL     1      44.686   5.300  13.648  0.00  0.00    +0.000 OA
ATOM     32  C   UNL     1      44.839   4.674  11.370  0.00  0.00    +0.000 A 
ATOM     33  H   UNL     1      43.303   3.283  13.925  0.00  0.00    +0.000 HD
ENDBRANCH  20  23
ENDBRANCH  18  19
ENDBRANCH   4  18
TORSDOF 6
ENDMDL
MODEL 6
REMARK VINA RESULT:    -6.738      3.569      5.465
REMARK INTER + INTRA:         -10.035
REMARK INTER:                  -9.236
REMARK INTRA:                  -0.799
REMARK UNBOUND:                -0.934
REMARK  Name = 
REMARK  7 active torsions:
REMARK  status: ('A' for Active; 'I' for Inactive)
REMARK    1  A    between atoms: C_1  and  C_2
REMARK    2  A    between atoms: C_5  and  C_6
REMARK    3  A    between atoms: N_8  and  C_9
REMARK    4  A    between atoms: C_9  and  C_10
REMARK    5  A    between atoms: C_13  and  C_14
REMARK    6  A    between atoms: C_14  and  N_15
REMARK    7  A    between atoms: C_16  and  C_18
REMARK                            x       y       z     vdW  Elec       q    Type
REMARK                         _______ _______ _______ _____ _____    ______ ____
ROOT
ATOM      1  C   UNL     1      47.779   5.834  14.842  0.00  0.00    +0.000 A 
ATOM      2  C   UNL     1      47.173   4.578  14.982  0.00  0.00    +0.000 A 
ATOM      3  C   UNL     1      47.456   3.765  16.087  0.00  0.00    +0.000 A 
ATOM      4  C   UNL     1      48.332   4.199  17.092  0.00  0.00    +0.000 A 
ATOM      5  C   UNL     1      48.931   5.458  16.954  0.00  0.00    +0.000 A 
ATOM      6  C   UNL     1      48.649   6.272  15.849  0.00  0.00    +0.000 A 
ENDROOT
BRANCH   1   7
ATOM      7  C   UNL     1      47.482   6.708  13.647  0.00  0.00    +0.000 C 
BRANCH   7  10
ATOM      8  C   UNL     1      45.751   5.952  12.043  0.00  0.00    +0.000 C 
ATOM      9  O   UNL     1      44.887   6.663  12.559  0.00  0.00    +0.000 OA
ATOM     10  N   UNL     1      47.044   5.926  12.519  0.00  0.00    +0.000 N 
ATOM     11  H   UNL     1      47.722   5.363  12.021  0.00  0.00    +0.000 HD
BRANCH   8  16
ATOM     12  C   UNL     1      44.459   1.846   8.925  0.00  0.00    +0.000 C 
ATOM     13  C   UNL     1      44.890   3.183   9.422  0.00  0.00    +0.000 A 
ATOM     14  C   UNL     1      45.256   4.301   8.702  0.00  0.00    +0.000 A 
ATOM     15  C   UNL     1      45.604   5.395   9.552  0.00  0.00    +0.000 A 
ATOM     16  C   UNL     1      45.493   5.086  10.897  0.00  0.00    +0.000 A 
ATOM     17  S   UNL     1      44.972   3.463  11.103  0.00  0.00    +0.000 S 
ENDBRANCH   8  16
ENDBRANCH   7  10
ENDBRANCH   1   7
BRANCH   4  18
ATOM     18  C   UNL     1      48.652   3.324  18.279  0.00  0.00    +0.000 C 
BRANCH  18  19
ATOM     19  N   UNL     1      50.064   3.037  18.365  0.00  0.00    +0.000 N 
ATOM     20  C   UNL     1      50.688   2.217  17.458  0.00  0.00    +0.000 C 
ATOM     21  O   UNL     1      50.087   1.721  16.508  0.00  0.00    +0.000 OA
ATOM     22  H   UNL     1      50.519   3.235  19.251  0.00  0.00    +0.000 HD
BRANCH  20  23
ATOM     23  C   UNL     1      52.133   2.012  17.642  0.00  0.00    +0.000 A 
ATOM     24  C   UNL     1      52.641   0.723  17.734  0.00  0.00    +0.000 A 
ATOM     25  S   UNL     1      54.339   0.664  17.893  0.00  0.00    +0.000 S 
ATOM     26  C   UNL     1      54.451   2.361  17.901  0.00  0.00    +0.000 A 
ATOM     27  N   UNL     1      55.653   2.983  18.041  0.00  0.00    +0.000 NA
ATOM     28  C   UNL     1      55.588   4.272  18.065  0.00  0.00    +0.000 A 
ATOM     29  N   UNL     1      54.430   4.997  17.954  0.00  0.00    +0.000 N 
ATOM     30  C   UNL     1      53.198   4.414  17.773  0.00  0.00    +0.000 A 
ATOM     31  O   UNL     1      52.187   5.093  17.622  0.00  0.00    +0.000 OA
ATOM     32  C   UNL     1      53.212   2.964  17.760  0.00  0.00    +0.000 A 
ATOM     33  H   UNL     1      54.447   6.006  17.967  0.00  0.00    +0.000 HD
ENDBRANCH  20  23
ENDBRANCH  18  19
ENDBRANCH   4  18
TORSDOF 6
ENDMDL
MODEL 7
REMARK VINA RESULT:    -6.677      4.797      7.789
REMARK INTER + INTRA:          -9.954
REMARK INTER:                  -9.079
REMARK INTRA:                  -0.875
REMARK UNBOUND:                -0.934
REMARK  Name = 
REMARK  7 active torsions:
REMARK  status: ('A' for Active; 'I' for Inactive)
REMARK    1  A    between atoms: C_1  and  C_2
REMARK    2  A    between atoms: C_5  and  C_6
REMARK    3  A    between atoms: N_8  and  C_9
REMARK    4  A    between atoms: C_9  and  C_10
REMARK    5  A    between atoms: C_13  and  C_14
REMARK    6  A    between atoms: C_14  and  N_15
REMARK    7  A    between atoms: C_16  and  C_18
REMARK                            x       y       z     vdW  Elec       q    Type
REMARK                         _______ _______ _______ _____ _____    ______ ____
ROOT
ATOM      1  C   UNL     1      50.682   8.922  11.297  0.00  0.00    +0.000 A 
ATOM      2  C   UNL     1      50.198   7.623  11.499  0.00  0.00    +0.000 A 
ATOM      3  C   UNL     1      48.855   7.403  11.836  0.00  0.00    +0.000 A 
ATOM      4  C   UNL     1      47.960   8.476  11.954  0.00  0.00    +0.000 A 
ATOM      5  C   UNL     1      48.445   9.773  11.744  0.00  0.00    +0.000 A 
ATOM      6  C   UNL     1      49.787   9.994  11.407  0.00  0.00    +0.000 A 
ENDROOT
BRANCH   1   7
ATOM      7  C   UNL     1      52.131   9.161  10.943  0.00  0.00    +0.000 C 
BRANCH   7  10
ATOM      8  C   UNL     1      53.046   7.887   9.024  0.00  0.00    +0.000 C 
ATOM      9  O   UNL     1      52.834   8.813   8.240  0.00  0.00    +0.000 OA
ATOM     10  N   UNL     1      52.731   7.988  10.362  0.00  0.00    +0.000 N 
ATOM     11  H   UNL     1      52.977   7.213  10.967  0.00  0.00    +0.000 HD
BRANCH   8  16
ATOM     12  C   UNL     1      54.315   3.440   6.405  0.00  0.00    +0.000 C 
ATOM     13  C   UNL     1      54.252   4.538   7.410  0.00  0.00    +0.000 A 
ATOM     14  C   UNL     1      54.978   4.694   8.572  0.00  0.00    +0.000 A 
ATOM     15  C   UNL     1      54.625   5.891   9.268  0.00  0.00    +0.000 A 
ATOM     16  C   UNL     1      53.641   6.618   8.619  0.00  0.00    +0.000 A 
ATOM     17  S   UNL     1      53.159   5.826   7.173  0.00  0.00    +0.000 S 
ENDBRANCH   8  16
ENDBRANCH   7  10
ENDBRANCH   1   7
BRANCH   4  18
ATOM     18  C   UNL     1      46.516   8.248  12.329  0.00  0.00    +0.000 C 
BRANCH  18  19
ATOM     19  N   UNL     1      46.096   6.898  12.040  0.00  0.00    +0.000 N 
ATOM     20  C   UNL     1      44.834   6.620  11.577  0.00  0.00    +0.000 C 
ATOM     21  O   UNL     1      44.015   7.507  11.349  0.00  0.00    +0.000 OA
ATOM     22  H   UNL     1      46.657   6.149  12.436  0.00  0.00    +0.000 HD
BRANCH  20  23
ATOM     23  C   UNL     1      44.529   5.208  11.306  0.00  0.00    +0.000 A 
ATOM     24  C   UNL     1      43.781   4.474  12.218  0.00  0.00    +0.000 A 
ATOM     25  S   UNL     1      43.476   2.870  11.724  0.00  0.00    +0.000 S 
ATOM     26  C   UNL     1      44.381   3.079  10.299  0.00  0.00    +0.000 A 
ATOM     27  N   UNL     1      44.548   2.056   9.419  0.00  0.00    +0.000 NA
ATOM     28  C   UNL     1      45.284   2.343   8.399  0.00  0.00    +0.000 A 
ATOM     29  N   UNL     1      45.863   3.565   8.174  0.00  0.00    +0.000 N 
ATOM     30  C   UNL     1      45.692   4.639   9.015  0.00  0.00    +0.000 A 
ATOM     31  O   UNL     1      46.178   5.735   8.757  0.00  0.00    +0.000 OA
ATOM     32  C   UNL     1      44.888   4.363  10.190  0.00  0.00    +0.000 A 
ATOM     33  H   UNL     1      46.420   3.731   7.348  0.00  0.00    +0.000 HD
ENDBRANCH  20  23
ENDBRANCH  18  19
ENDBRANCH   4  18
TORSDOF 6
ENDMDL
MODEL 8
REMARK VINA RESULT:    -6.405      2.571      3.317
REMARK INTER + INTRA:          -9.585
REMARK INTER:                  -8.690
REMARK INTRA:                  -0.895
REMARK UNBOUND:                -0.934
REMARK  Name = 
REMARK  7 active torsions:
REMARK  status: ('A' for Active; 'I' for Inactive)
REMARK    1  A    between atoms: C_1  and  C_2
REMARK    2  A    between atoms: C_5  and  C_6
REMARK    3  A    between atoms: N_8  and  C_9
REMARK    4  A    between atoms: C_9  and  C_10
REMARK    5  A    between atoms: C_13  and  C_14
REMARK    6  A    between atoms: C_14  and  N_15
REMARK    7  A    between atoms: C_16  and  C_18
REMARK                            x       y       z     vdW  Elec       q    Type
REMARK                         _______ _______ _______ _____ _____    ______ ____
ROOT
ATOM      1  C   UNL     1      45.777   5.561  12.778  0.00  0.00    +0.000 A 
ATOM      2  C   UNL     1      45.973   6.928  12.543  0.00  0.00    +0.000 A 
ATOM      3  C   UNL     1      46.937   7.648  13.262  0.00  0.00    +0.000 A 
ATOM      4  C   UNL     1      47.745   7.011  14.214  0.00  0.00    +0.000 A 
ATOM      5  C   UNL     1      47.553   5.643  14.442  0.00  0.00    +0.000 A 
ATOM      6  C   UNL     1      46.589   4.923  13.724  0.00  0.00    +0.000 A 
ENDROOT
BRANCH   1   7
ATOM      7  C   UNL     1      44.732   4.785  12.011  0.00  0.00    +0.000 C 
BRANCH   7  10
ATOM      8  C   UNL     1      44.764   3.919   9.690  0.00  0.00    +0.000 C 
ATOM      9  O   UNL     1      43.715   4.498   9.403  0.00  0.00    +0.000 OA
ATOM     10  N   UNL     1      45.323   4.017  10.946  0.00  0.00    +0.000 N 
ATOM     11  H   UNL     1      46.214   3.562  11.106  0.00  0.00    +0.000 HD
BRANCH   8  16
ATOM     12  C   UNL     1      47.822   2.205   5.694  0.00  0.00    +0.000 C 
ATOM     13  C   UNL     1      46.931   2.267   6.887  0.00  0.00    +0.000 A 
ATOM     14  C   UNL     1      46.433   1.235   7.653  0.00  0.00    +0.000 A 
ATOM     15  C   UNL     1      45.610   1.709   8.721  0.00  0.00    +0.000 A 
ATOM     16  C   UNL     1      45.504   3.089   8.744  0.00  0.00    +0.000 A 
ATOM     17  S   UNL     1      46.404   3.786   7.458  0.00  0.00    +0.000 S 
ENDBRANCH   8  16
ENDBRANCH   7  10
ENDBRANCH   1   7
BRANCH   4  18
ATOM     18  C   UNL     1      48.777   7.782  15.001  0.00  0.00    +0.000 C 
BRANCH  18  19
ATOM     19  N   UNL     1      49.819   6.919  15.503  0.00  0.00    +0.000 N 
ATOM     20  C   UNL     1      49.991   6.706  16.848  0.00  0.00    +0.000 C 
ATOM     21  O   UNL     1      49.244   7.205  17.687  0.00  0.00    +0.000 OA
ATOM     22  H   UNL     1      50.575   6.693  14.864  0.00  0.00    +0.000 HD
BRANCH  20  23
ATOM     23  C   UNL     1      51.078   5.795  17.237  0.00  0.00    +0.000 A 
ATOM     24  C   UNL     1      50.810   4.716  18.069  0.00  0.00    +0.000 A 
ATOM     25  S   UNL     1      52.170   3.733  18.377  0.00  0.00    +0.000 S 
ATOM     26  C   UNL     1      53.179   4.746  17.456  0.00  0.00    +0.000 A 
ATOM     27  N   UNL     1      54.508   4.485  17.330  0.00  0.00    +0.000 NA
ATOM     28  C   UNL     1      55.160   5.353  16.632  0.00  0.00    +0.000 A 
ATOM     29  N   UNL     1      54.601   6.457  16.041  0.00  0.00    +0.000 N 
ATOM     30  C   UNL     1      53.258   6.742  16.109  0.00  0.00    +0.000 A 
ATOM     31  O   UNL     1      52.781   7.708  15.523  0.00  0.00    +0.000 OA
ATOM     32  C   UNL     1      52.482   5.806  16.901  0.00  0.00    +0.000 A 
ATOM     33  H   UNL     1      55.164   7.094  15.496  0.00  0.00    +0.000 HD
ENDBRANCH  20  23
ENDBRANCH  18  19
ENDBRANCH   4  18
TORSDOF 6
ENDMDL
MODEL 9
REMARK VINA RESULT:    -6.380      1.723      2.086
REMARK INTER + INTRA:          -9.551
REMARK INTER:                  -8.611
REMARK INTRA:                  -0.940
REMARK UNBOUND:                -0.934
REMARK  Name = 
REMARK  7 active torsions:
REMARK  status: ('A' for Active; 'I' for Inactive)
REMARK    1  A    between atoms: C_1  and  C_2
REMARK    2  A    between atoms: C_5  and  C_6
REMARK    3  A    between atoms: N_8  and  C_9
REMARK    4  A    between atoms: C_9  and  C_10
REMARK    5  A    between atoms: C_13  and  C_14
REMARK    6  A    between atoms: C_14  and  N_15
REMARK    7  A    between atoms: C_16  and  C_18
REMARK                            x       y       z     vdW  Elec       q    Type
REMARK                         _______ _______ _______ _____ _____    ______ ____
ROOT
ATOM      1  C   UNL     1      45.893   4.867  12.931  0.00  0.00    +0.000 A 
ATOM      2  C   UNL     1      46.139   6.114  12.343  0.00  0.00    +0.000 A 
ATOM      3  C   UNL     1      47.046   7.013  12.921  0.00  0.00    +0.000 A 
ATOM      4  C   UNL     1      47.748   6.675  14.087  0.00  0.00    +0.000 A 
ATOM      5  C   UNL     1      47.505   5.424  14.670  0.00  0.00    +0.000 A 
ATOM      6  C   UNL     1      46.599   4.525  14.093  0.00  0.00    +0.000 A 
ENDROOT
BRANCH   1   7
ATOM      7  C   UNL     1      44.909   3.901  12.315  0.00  0.00    +0.000 C 
BRANCH   7  10
ATOM      8  C   UNL     1      44.895   3.445   9.880  0.00  0.00    +0.000 C 
ATOM      9  O   UNL     1      43.896   4.144   9.701  0.00  0.00    +0.000 OA
ATOM     10  N   UNL     1      45.449   3.284  11.131  0.00  0.00    +0.000 N 
ATOM     11  H   UNL     1      46.300   2.740  11.207  0.00  0.00    +0.000 HD
BRANCH   8  16
ATOM     12  C   UNL     1      47.789   2.220   5.593  0.00  0.00    +0.000 C 
ATOM     13  C   UNL     1      46.927   2.140   6.806  0.00  0.00    +0.000 A 
ATOM     14  C   UNL     1      46.400   1.027   7.425  0.00  0.00    +0.000 A 
ATOM     15  C   UNL     1      45.622   1.371   8.573  0.00  0.00    +0.000 A 
ATOM     16  C   UNL     1      45.577   2.736   8.802  0.00  0.00    +0.000 A 
ATOM     17  S   UNL     1      46.480   3.578   7.609  0.00  0.00    +0.000 S 
ENDBRANCH   8  16
ENDBRANCH   7  10
ENDBRANCH   1   7
BRANCH   4  18
ATOM     18  C   UNL     1      48.716   7.642  14.722  0.00  0.00    +0.000 C 
BRANCH  18  19
ATOM     19  N   UNL     1      49.207   7.151  15.987  0.00  0.00    +0.000 N 
ATOM     20  C   UNL     1      49.586   8.005  16.993  0.00  0.00    +0.000 C 
ATOM     21  O   UNL     1      49.489   9.224  16.882  0.00  0.00    +0.000 OA
ATOM     22  H   UNL     1      49.515   6.182  16.016  0.00  0.00    +0.000 HD
BRANCH  20  23
ATOM     23  C   UNL     1      50.057   7.385  18.241  0.00  0.00    +0.000 A 
ATOM     24  C   UNL     1      51.261   7.790  18.802  0.00  0.00    +0.000 A 
ATOM     25  S   UNL     1      51.631   7.007  20.272  0.00  0.00    +0.000 S 
ATOM     26  C   UNL     1      50.223   6.056  20.183  0.00  0.00    +0.000 A 
ATOM     27  N   UNL     1      49.942   5.131  21.139  0.00  0.00    +0.000 NA
ATOM     28  C   UNL     1      48.861   4.458  20.929  0.00  0.00    +0.000 A 
ATOM     29  N   UNL     1      48.030   4.631  19.852  0.00  0.00    +0.000 N 
ATOM     30  C   UNL     1      48.254   5.579  18.881  0.00  0.00    +0.000 A 
ATOM     31  O   UNL     1      47.463   5.746  17.959  0.00  0.00    +0.000 OA
ATOM     32  C   UNL     1      49.469   6.350  19.059  0.00  0.00    +0.000 A 
ATOM     33  H   UNL     1      47.191   4.080  19.750  0.00  0.00    +0.000 HD
ENDBRANCH  20  23
ENDBRANCH  18  19
ENDBRANCH   4  18
TORSDOF 6
ENDMDL
