MODEL 1
REMARK VINA RESULT:    -7.920      0.000      0.000
REMARK INTER + INTRA:         -11.504
REMARK INTER:                 -10.698
REMARK INTRA:                  -0.807
REMARK UNBOUND:                -0.807
REMARK  Name = 
REMARK  7 active torsions:
REMARK  status: ('A' for Active; 'I' for Inactive)
REMARK    1  A    between atoms: C_1  and  N_2
REMARK    2  A    between atoms: C_6  and  C_7
REMARK    3  A    between atoms: N_9  and  C_10
REMARK    4  A    between atoms: C_10  and  C_11
REMARK    5  A    between atoms: C_14  and  C_15
REMARK    6  A    between atoms: C_15  and  N_16
REMARK    7  A    between atoms: C_17  and  C_19
REMARK                            x       y       z     vdW  Elec       q    Type
REMARK                         _______ _______ _______ _____ _____    ______ ____
ROOT
ATOM      1  C   UNL     1      44.702   5.471  10.775  0.00  0.00    +0.000 A 
ATOM      2  C   UNL     1      44.152   5.857  12.006  0.00  0.00    +0.000 A 
ATOM      3  C   UNL     1      44.873   6.672  12.888  0.00  0.00    +0.000 A 
ATOM      4  C   UNL     1      46.152   7.135  12.548  0.00  0.00    +0.000 A 
ATOM      5  C   UNL     1      46.704   6.744  11.322  0.00  0.00    +0.000 A 
ATOM      6  C   UNL     1      45.985   5.929  10.441  0.00  0.00    +0.000 A 
ENDROOT
BRANCH   1   7
ATOM      7  C   UNL     1      43.937   4.574   9.835  0.00  0.00    +0.000 C 
BRANCH   7  10
ATOM      8  C   UNL     1      45.427   2.989   8.665  0.00  0.00    +0.000 C 
ATOM      9  O   UNL     1      45.432   2.200   9.606  0.00  0.00    +0.000 OA
ATOM     10  N   UNL     1      44.715   4.172   8.692  0.00  0.00    +0.000 N 
ATOM     11  H   UNL     1      44.813   4.783   7.885  0.00  0.00    +0.000 HD
BRANCH   8  17
ATOM     12  C   UNL     1      46.794   0.353   7.674  0.00  0.00    +0.000 C 
ATOM     13  N   UNL     1      46.750   1.618   6.982  0.00  0.00    +0.000 N 
ATOM     14  C   UNL     1      47.306   1.860   5.755  0.00  0.00    +0.000 A 
ATOM     15  C   UNL     1      47.035   3.180   5.492  0.00  0.00    +0.000 A 
ATOM     16  N   UNL     1      46.333   3.746   6.522  0.00  0.00    +0.000 NA
ATOM     17  C   UNL     1      46.158   2.784   7.421  0.00  0.00    +0.000 A 
ENDBRANCH   8  17
ENDBRANCH   7  10
ENDBRANCH   1   7
BRANCH   4  18
ATOM     18  C   UNL     1      46.932   8.022  13.482  0.00  0.00    +0.000 C 
BRANCH  18  19
ATOM     19  N   UNL     1      47.425   7.297  14.626  0.00  0.00    +0.000 N 
ATOM     20  C   UNL     1      48.707   6.820  14.706  0.00  0.00    +0.000 C 
ATOM     21  O   UNL     1      49.523   6.978  13.801  0.00  0.00    +0.000 OA
ATOM     22  H   UNL     1      46.733   6.993  15.303  0.00  0.00    +0.000 HD
BRANCH  20  23
ATOM     23  C   UNL     1      49.087   6.170  15.969  0.00  0.00    +0.000 A 
ATOM     24  C   UNL     1      50.152   6.677  16.704  0.00  0.00    +0.000 A 
ATOM     25  S   UNL     1      50.438   5.844  18.163  0.00  0.00    +0.000 S 
ATOM     26  C   UNL     1      49.180   4.743  17.844  0.00  0.00    +0.000 A 
ATOM     27  N   UNL     1      48.907   3.730  18.708  0.00  0.00    +0.000 NA
ATOM     28  C   UNL     1      47.952   2.945  18.327  0.00  0.00    +0.000 A 
ATOM     29  N   UNL     1      47.243   3.090  17.164  0.00  0.00    +0.000 N 
ATOM     30  C   UNL     1      47.442   4.138  16.294  0.00  0.00    +0.000 A 
ATOM     31  O   UNL     1      46.712   4.301  15.322  0.00  0.00    +0.000 OA
ATOM     32  C   UNL     1      48.532   5.023  16.654  0.00  0.00    +0.000 A 
ATOM     33  H   UNL     1      46.491   2.457  16.933  0.00  0.00    +0.000 HD
ENDBRANCH  20  23
ENDBRANCH  18  19
ENDBRANCH   4  18
TORSDOF 6
ENDMDL
MODEL 2
REMARK VINA RESULT:    -7.783      2.033      2.587
REMARK INTER + INTRA:         -11.320
REMARK INTER:                 -10.350
REMARK INTRA:                  -0.970
REMARK UNBOUND:                -0.807
REMARK  Name = 
REMARK  7 active torsions:
REMARK  status: ('A' for Active; 'I' for Inactive)
REMARK    1  A    between atoms: C_1  and  N_2
REMARK    2  A    between atoms: C_6  and  C_7
REMARK    3  A    between atoms: N_9  and  C_10
REMARK    4  A    between atoms: C_10  and  C_11
REMARK    5  A    between atoms: C_14  and  C_15
REMARK    6  A    between atoms: C_15  and  N_16
REMARK    7  A    between atoms: C_17  and  C_19
REMARK                            x       y       z     vdW  Elec       q    Type
REMARK                         _______ _______ _______ _____ _____    ______ ____
ROOT
ATOM      1  C   UNL     1      44.677   4.791  11.763  0.00  0.00    +0.000 A 
ATOM      2  C   UNL     1      44.073   5.998  11.383  0.00  0.00    +0.000 A 
ATOM      3  C   UNL     1      44.608   7.226  11.793  0.00  0.00    +0.000 A 
ATOM      4  C   UNL     1      45.770   7.272  12.574  0.00  0.00    +0.000 A 
ATOM      5  C   UNL     1      46.369   6.067  12.960  0.00  0.00    +0.000 A 
ATOM      6  C   UNL     1      45.835   4.840  12.551  0.00  0.00    +0.000 A 
ENDROOT
BRANCH   1   7
ATOM      7  C   UNL     1      44.088   3.468  11.344  0.00  0.00    +0.000 C 
BRANCH   7  10
ATOM      8  C   UNL     1      44.926   2.996   9.069  0.00  0.00    +0.000 C 
ATOM      9  O   UNL     1      44.208   3.852   8.558  0.00  0.00    +0.000 OA
ATOM     10  N   UNL     1      44.934   2.748  10.427  0.00  0.00    +0.000 N 
ATOM     11  H   UNL     1      45.525   1.986  10.748  0.00  0.00    +0.000 HD
BRANCH   8  17
ATOM     12  C   UNL     1      47.111   3.899   7.017  0.00  0.00    +0.000 C 
ATOM     13  N   UNL     1      46.813   2.548   7.426  0.00  0.00    +0.000 N 
ATOM     14  C   UNL     1      47.463   1.431   6.973  0.00  0.00    +0.000 A 
ATOM     15  C   UNL     1      46.854   0.379   7.611  0.00  0.00    +0.000 A 
ATOM     16  N   UNL     1      45.855   0.823   8.436  0.00  0.00    +0.000 NA
ATOM     17  C   UNL     1      45.843   2.146   8.322  0.00  0.00    +0.000 A 
ENDBRANCH   8  17
ENDBRANCH   7  10
ENDBRANCH   1   7
BRANCH   4  18
ATOM     18  C   UNL     1      46.362   8.587  13.011  0.00  0.00    +0.000 C 
BRANCH  18  19
ATOM     19  N   UNL     1      46.913   8.513  14.341  0.00  0.00    +0.000 N 
ATOM     20  C   UNL     1      48.105   9.095  14.683  0.00  0.00    +0.000 C 
ATOM     21  O   UNL     1      48.788   9.716  13.873  0.00  0.00    +0.000 OA
ATOM     22  H   UNL     1      46.471   7.860  14.979  0.00  0.00    +0.000 HD
BRANCH  20  23
ATOM     23  C   UNL     1      48.497   9.002  16.097  0.00  0.00    +0.000 A 
ATOM     24  C   UNL     1      48.551  10.158  16.868  0.00  0.00    +0.000 A 
ATOM     25  S   UNL     1      48.975   9.879  18.495  0.00  0.00    +0.000 S 
ATOM     26  C   UNL     1      49.152   8.210  18.220  0.00  0.00    +0.000 A 
ATOM     27  N   UNL     1      49.537   7.377  19.223  0.00  0.00    +0.000 NA
ATOM     28  C   UNL     1      49.669   6.140  18.869  0.00  0.00    +0.000 A 
ATOM     29  N   UNL     1      49.441   5.662  17.605  0.00  0.00    +0.000 N 
ATOM     30  C   UNL     1      48.986   6.458  16.578  0.00  0.00    +0.000 A 
ATOM     31  O   UNL     1      48.683   5.977  15.492  0.00  0.00    +0.000 OA
ATOM     32  C   UNL     1      48.864   7.864  16.911  0.00  0.00    +0.000 A 
ATOM     33  H   UNL     1      49.537   4.680  17.398  0.00  0.00    +0.000 HD
ENDBRANCH  20  23
ENDBRANCH  18  19
ENDBRANCH   4  18
TORSDOF 6
ENDMDL
MODEL 3
REMARK VINA RESULT:    -7.508      4.827      9.859
REMARK INTER + INTRA:         -10.948
REMARK INTER:                 -10.121
REMARK INTRA:                  -0.827
REMARK UNBOUND:                -0.807
REMARK  Name = 
REMARK  7 active torsions:
REMARK  status: ('A' for Active; 'I' for Inactive)
REMARK    1  A    between atoms: C_1  and  N_2
REMARK    2  A    between atoms: C_6  and  C_7
REMARK    3  A    between atoms: N_9  and  C_10
REMARK    4  A    between atoms: C_10  and  C_11
REMARK    5  A    between atoms: C_14  and  C_15
REMARK    6  A    between atoms: C_15  and  N_16
REMARK    7  A    between atoms: C_17  and  C_19
REMARK                            x       y       z     vdW  Elec       q    Type
REMARK                         _______ _______ _______ _____ _____    ______ ____
ROOT
ATOM      1  C   UNL     1      51.369   3.065  17.779  0.00  0.00    +0.000 A 
ATOM      2  C   UNL     1      50.687   2.019  17.141  0.00  0.00    +0.000 A 
ATOM      3  C   UNL     1      49.316   2.117  16.871  0.00  0.00    +0.000 A 
ATOM      4  C   UNL     1      48.603   3.274  17.215  0.00  0.00    +0.000 A 
ATOM      5  C   UNL     1      49.282   4.316  17.858  0.00  0.00    +0.000 A 
ATOM      6  C   UNL     1      50.651   4.218  18.128  0.00  0.00    +0.000 A 
ENDROOT
BRANCH   1   7
ATOM      7  C   UNL     1      52.839   2.950  18.093  0.00  0.00    +0.000 C 
BRANCH   7  10
ATOM      8  C   UNL     1      54.494   1.120  18.193  0.00  0.00    +0.000 C 
ATOM      9  O   UNL     1      55.369   1.797  17.659  0.00  0.00    +0.000 OA
ATOM     10  N   UNL     1      53.229   1.611  18.449  0.00  0.00    +0.000 N 
ATOM     11  H   UNL     1      52.559   0.960  18.849  0.00  0.00    +0.000 HD
BRANCH   8  17
ATOM     12  C   UNL     1      54.943  -1.387  16.373  0.00  0.00    +0.000 C 
ATOM     13  N   UNL     1      54.882  -1.363  17.814  0.00  0.00    +0.000 N 
ATOM     14  C   UNL     1      55.024  -2.459  18.623  0.00  0.00    +0.000 A 
ATOM     15  C   UNL     1      54.888  -1.980  19.903  0.00  0.00    +0.000 A 
ATOM     16  N   UNL     1      54.668  -0.629  19.895  0.00  0.00    +0.000 NA
ATOM     17  C   UNL     1      54.674  -0.261  18.618  0.00  0.00    +0.000 A 
ENDBRANCH   8  17
ENDBRANCH   7  10
ENDBRANCH   1   7
BRANCH   4  18
ATOM     18  C   UNL     1      47.131   3.397  16.918  0.00  0.00    +0.000 C 
BRANCH  18  19
ATOM     19  N   UNL     1      46.867   4.399  15.916  0.00  0.00    +0.000 N 
ATOM     20  C   UNL     1      46.944   4.143  14.572  0.00  0.00    +0.000 C 
ATOM     21  O   UNL     1      47.249   3.037  14.132  0.00  0.00    +0.000 OA
ATOM     22  H   UNL     1      46.793   5.357  16.241  0.00  0.00    +0.000 HD
BRANCH  20  23
ATOM     23  C   UNL     1      46.569   5.243  13.673  0.00  0.00    +0.000 A 
ATOM     24  C   UNL     1      47.484   6.259  13.420  0.00  0.00    +0.000 A 
ATOM     25  S   UNL     1      46.918   7.435  12.323  0.00  0.00    +0.000 S 
ATOM     26  C   UNL     1      45.411   6.658  12.183  0.00  0.00    +0.000 A 
ATOM     27  N   UNL     1      44.431   7.177  11.397  0.00  0.00    +0.000 NA
ATOM     28  C   UNL     1      43.325   6.508  11.410  0.00  0.00    +0.000 A 
ATOM     29  N   UNL     1      43.116   5.362  12.131  0.00  0.00    +0.000 N 
ATOM     30  C   UNL     1      44.101   4.766  12.886  0.00  0.00    +0.000 A 
ATOM     31  O   UNL     1      43.914   3.681  13.425  0.00  0.00    +0.000 OA
ATOM     32  C   UNL     1      45.349   5.501  12.940  0.00  0.00    +0.000 A 
ATOM     33  H   UNL     1      42.236   4.871  12.080  0.00  0.00    +0.000 HD
ENDBRANCH  20  23
ENDBRANCH  18  19
ENDBRANCH   4  18
TORSDOF 6
ENDMDL
MODEL 4
REMARK VINA RESULT:    -7.217      3.237      5.105
REMARK INTER + INTRA:         -10.555
REMARK INTER:                  -9.599
REMARK INTRA:                  -0.956
REMARK UNBOUND:                -0.807
REMARK  Name = 
REMARK  7 active torsions:
REMARK  status: ('A' for Active; 'I' for Inactive)
REMARK    1  A    between atoms: C_1  and  N_2
REMARK    2  A    between atoms: C_6  and  C_7
REMARK    3  A    between atoms: N_9  and  C_10
REMARK    4  A    between atoms: C_10  and  C_11
REMARK    5  A    between atoms: C_14  and  C_15
REMARK    6  A    between atoms: C_15  and  N_16
REMARK    7  A    between atoms: C_17  and  C_19
REMARK                            x       y       z     vdW  Elec       q    Type
REMARK                         _______ _______ _______ _____ _____    ______ ____
ROOT
ATOM      1  C   UNL     1      47.428   5.895  14.039  0.00  0.00    +0.000 A 
ATOM      2  C   UNL     1      48.280   6.386  15.039  0.00  0.00    +0.000 A 
ATOM      3  C   UNL     1      48.466   5.677  16.232  0.00  0.00    +0.000 A 
ATOM      4  C   UNL     1      47.820   4.451  16.441  0.00  0.00    +0.000 A 
ATOM      5  C   UNL     1      46.964   3.964  15.446  0.00  0.00    +0.000 A 
ATOM      6  C   UNL     1      46.777   4.672  14.254  0.00  0.00    +0.000 A 
ENDROOT
BRANCH   1   7
ATOM      7  C   UNL     1      47.207   6.670  12.764  0.00  0.00    +0.000 C 
BRANCH   7  10
ATOM      8  C   UNL     1      45.581   6.050  11.012  0.00  0.00    +0.000 C 
ATOM      9  O   UNL     1      44.822   6.971  11.301  0.00  0.00    +0.000 OA
ATOM     10  N   UNL     1      46.774   5.835  11.674  0.00  0.00    +0.000 N 
ATOM     11  H   UNL     1      47.310   5.018  11.395  0.00  0.00    +0.000 HD
BRANCH   8  17
ATOM     12  C   UNL     1      43.608   3.620  11.088  0.00  0.00    +0.000 C 
ATOM     13  N   UNL     1      44.449   4.018   9.985  0.00  0.00    +0.000 N 
ATOM     14  C   UNL     1      44.506   3.383   8.773  0.00  0.00    +0.000 A 
ATOM     15  C   UNL     1      45.431   4.087   8.043  0.00  0.00    +0.000 A 
ATOM     16  N   UNL     1      45.938   5.128   8.773  0.00  0.00    +0.000 NA
ATOM     17  C   UNL     1      45.327   5.083   9.953  0.00  0.00    +0.000 A 
ENDBRANCH   8  17
ENDBRANCH   7  10
ENDBRANCH   1   7
BRANCH   4  18
ATOM     18  C   UNL     1      48.022   3.672  17.715  0.00  0.00    +0.000 C 
BRANCH  18  19
ATOM     19  N   UNL     1      49.408   3.340  17.927  0.00  0.00    +0.000 N 
ATOM     20  C   UNL     1      50.065   2.391  17.189  0.00  0.00    +0.000 C 
ATOM     21  O   UNL     1      49.511   1.755  16.296  0.00  0.00    +0.000 OA
ATOM     22  H   UNL     1      49.840   3.709  18.768  0.00  0.00    +0.000 HD
BRANCH  20  23
ATOM     23  C   UNL     1      51.498   2.219  17.470  0.00  0.00    +0.000 A 
ATOM     24  C   UNL     1      52.029   0.936  17.546  0.00  0.00    +0.000 A 
ATOM     25  S   UNL     1      53.709   0.905  17.830  0.00  0.00    +0.000 S 
ATOM     26  C   UNL     1      53.783   2.603  17.911  0.00  0.00    +0.000 A 
ATOM     27  N   UNL     1      54.958   3.237  18.164  0.00  0.00    +0.000 NA
ATOM     28  C   UNL     1      54.866   4.524  18.235  0.00  0.00    +0.000 A 
ATOM     29  N   UNL     1      53.706   5.233  18.068  0.00  0.00    +0.000 N 
ATOM     30  C   UNL     1      52.508   4.636  17.746  0.00  0.00    +0.000 A 
ATOM     31  O   UNL     1      51.515   5.309  17.490  0.00  0.00    +0.000 OA
ATOM     32  C   UNL     1      52.547   3.188  17.697  0.00  0.00    +0.000 A 
ATOM     33  H   UNL     1      53.703   6.241  18.111  0.00  0.00    +0.000 HD
ENDBRANCH  20  23
ENDBRANCH  18  19
ENDBRANCH   4  18
TORSDOF 6
ENDMDL
MODEL 5
REMARK VINA RESULT:    -7.165      3.493      4.917
REMARK INTER + INTRA:         -10.486
REMARK INTER:                  -9.555
REMARK INTRA:                  -0.931
REMARK UNBOUND:                -0.807
REMARK  Name = 
REMARK  7 active torsions:
REMARK  status: ('A' for Active; 'I' for Inactive)
REMARK    1  A    between atoms: C_1  and  N_2
REMARK    2  A    between atoms: C_6  and  C_7
REMARK    3  A    between atoms: N_9  and  C_10
REMARK    4  A    between atoms: C_10  and  C_11
REMARK    5  A    between atoms: C_14  and  C_15
REMARK    6  A    between atoms: C_15  and  N_16
REMARK    7  A    between atoms: C_17  and  C_19
REMARK                            x       y       z     vdW  Elec       q    Type
REMARK                         _______ _______ _______ _____ _____    ______ ____
ROOT
ATOM      1  C   UNL     1      47.262   6.035  13.837  0.00  0.00    +0.000 A 
ATOM      2  C   UNL     1      48.215   6.639  14.670  0.00  0.00    +0.000 A 
ATOM      3  C   UNL     1      48.618   6.023  15.862  0.00  0.00    +0.000 A 
ATOM      4  C   UNL     1      48.090   4.780  16.235  0.00  0.00    +0.000 A 
ATOM      5  C   UNL     1      47.133   4.180  15.407  0.00  0.00    +0.000 A 
ATOM      6  C   UNL     1      46.730   4.795  14.217  0.00  0.00    +0.000 A 
ENDROOT
BRANCH   1   7
ATOM      7  C   UNL     1      46.810   6.709  12.566  0.00  0.00    +0.000 C 
BRANCH   7  10
ATOM      8  C   UNL     1      45.201   5.701  10.987  0.00  0.00    +0.000 C 
ATOM      9  O   UNL     1      44.289   6.443  11.343  0.00  0.00    +0.000 OA
ATOM     10  N   UNL     1      46.469   5.770  11.529  0.00  0.00    +0.000 N 
ATOM     11  H   UNL     1      47.142   5.082  11.204  0.00  0.00    +0.000 HD
BRANCH   8  17
ATOM     12  C   UNL     1      43.723   2.953  11.237  0.00  0.00    +0.000 C 
ATOM     13  N   UNL     1      44.405   3.466  10.074  0.00  0.00    +0.000 N 
ATOM     14  C   UNL     1      44.503   2.817   8.873  0.00  0.00    +0.000 A 
ATOM     15  C   UNL     1      45.234   3.657   8.070  0.00  0.00    +0.000 A 
ATOM     16  N   UNL     1      45.583   4.795   8.747  0.00  0.00    +0.000 NA
ATOM     17  C   UNL     1      45.066   4.673   9.965  0.00  0.00    +0.000 A 
ENDBRANCH   8  17
ENDBRANCH   7  10
ENDBRANCH   1   7
BRANCH   4  18
ATOM     18  C   UNL     1      48.524   4.101  17.508  0.00  0.00    +0.000 C 
BRANCH  18  19
ATOM     19  N   UNL     1      49.930   3.785  17.496  0.00  0.00    +0.000 N 
ATOM     20  C   UNL     1      50.789   4.185  18.485  0.00  0.00    +0.000 C 
ATOM     21  O   UNL     1      50.415   4.847  19.451  0.00  0.00    +0.000 OA
ATOM     22  H   UNL     1      50.302   3.403  16.632  0.00  0.00    +0.000 HD
BRANCH  20  23
ATOM     23  C   UNL     1      52.179   3.718  18.375  0.00  0.00    +0.000 A 
ATOM     24  C   UNL     1      53.216   4.580  18.714  0.00  0.00    +0.000 A 
ATOM     25  S   UNL     1      54.763   3.878  18.577  0.00  0.00    +0.000 S 
ATOM     26  C   UNL     1      54.108   2.412  18.013  0.00  0.00    +0.000 A 
ATOM     27  N   UNL     1      54.917   1.373  17.676  0.00  0.00    +0.000 NA
ATOM     28  C   UNL     1      54.293   0.334  17.227  0.00  0.00    +0.000 A 
ATOM     29  N   UNL     1      52.933   0.239  17.094  0.00  0.00    +0.000 N 
ATOM     30  C   UNL     1      52.074   1.241  17.486  0.00  0.00    +0.000 A 
ATOM     31  O   UNL     1      50.859   1.078  17.460  0.00  0.00    +0.000 OA
ATOM     32  C   UNL     1      52.726   2.448  17.955  0.00  0.00    +0.000 A 
ATOM     33  H   UNL     1      52.502  -0.610  16.760  0.00  0.00    +0.000 HD
ENDBRANCH  20  23
ENDBRANCH  18  19
ENDBRANCH   4  18
TORSDOF 6
ENDMDL
MODEL 6
REMARK VINA RESULT:    -7.102      4.872      9.722
REMARK INTER + INTRA:         -10.400
REMARK INTER:                  -9.383
REMARK INTRA:                  -1.018
REMARK UNBOUND:                -0.807
REMARK  Name = 
REMARK  7 active torsions:
REMARK  status: ('A' for Active; 'I' for Inactive)
REMARK    1  A    between atoms: C_1  and  N_2
REMARK    2  A    between atoms: C_6  and  C_7
REMARK    3  A    between atoms: N_9  and  C_10
REMARK    4  A    between atoms: C_10  and  C_11
REMARK    5  A    between atoms: C_14  and  C_15
REMARK    6  A    between atoms: C_15  and  N_16
REMARK    7  A    between atoms: C_17  and  C_19
REMARK                            x       y       z     vdW  Elec       q    Type
REMARK                         _______ _______ _______ _____ _____    ______ ____
ROOT
ATOM      1  C   UNL     1      51.362   2.828  17.754  0.00  0.00    +0.000 A 
ATOM      2  C   UNL     1      50.587   1.880  17.071  0.00  0.00    +0.000 A 
ATOM      3  C   UNL     1      49.242   2.136  16.772  0.00  0.00    +0.000 A 
ATOM      4  C   UNL     1      48.652   3.354  17.132  0.00  0.00    +0.000 A 
ATOM      5  C   UNL     1      49.424   4.299  17.820  0.00  0.00    +0.000 A 
ATOM      6  C   UNL     1      50.766   4.043  18.119  0.00  0.00    +0.000 A 
ENDROOT
BRANCH   1   7
ATOM      7  C   UNL     1      52.802   2.544  18.099  0.00  0.00    +0.000 C 
BRANCH   7  10
ATOM      8  C   UNL     1      54.289   0.572  18.067  0.00  0.00    +0.000 C 
ATOM      9  O   UNL     1      55.248   1.222  17.658  0.00  0.00    +0.000 OA
ATOM     10  N   UNL     1      53.057   1.143  18.315  0.00  0.00    +0.000 N 
ATOM     11  H   UNL     1      52.312   0.514  18.604  0.00  0.00    +0.000 HD
BRANCH   8  17
ATOM     12  C   UNL     1      55.265  -1.700  16.147  0.00  0.00    +0.000 C 
ATOM     13  N   UNL     1      54.767  -1.857  17.492  0.00  0.00    +0.000 N 
ATOM     14  C   UNL     1      54.652  -3.052  18.150  0.00  0.00    +0.000 A 
ATOM     15  C   UNL     1      54.134  -2.735  19.382  0.00  0.00    +0.000 A 
ATOM     16  N   UNL     1      53.931  -1.385  19.490  0.00  0.00    +0.000 NA
ATOM     17  C   UNL     1      54.327  -0.859  18.336  0.00  0.00    +0.000 A 
ENDBRANCH   8  17
ENDBRANCH   7  10
ENDBRANCH   1   7
BRANCH   4  18
ATOM     18  C   UNL     1      47.211   3.647  16.804  0.00  0.00    +0.000 C 
BRANCH  18  19
ATOM     19  N   UNL     1      47.086   4.644  15.771  0.00  0.00    +0.000 N 
ATOM     20  C   UNL     1      47.050   4.332  14.438  0.00  0.00    +0.000 C 
ATOM     21  O   UNL     1      47.126   3.174  14.033  0.00  0.00    +0.000 OA
ATOM     22  H   UNL     1      47.204   5.611  16.058  0.00  0.00    +0.000 HD
BRANCH  20  23
ATOM     23  C   UNL     1      46.839   5.451  13.508  0.00  0.00    +0.000 A 
ATOM     24  C   UNL     1      45.729   5.443  12.671  0.00  0.00    +0.000 A 
ATOM     25  S   UNL     1      45.601   6.829  11.688  0.00  0.00    +0.000 S 
ATOM     26  C   UNL     1      47.050   7.470  12.307  0.00  0.00    +0.000 A 
ATOM     27  N   UNL     1      47.536   8.656  11.854  0.00  0.00    +0.000 NA
ATOM     28  C   UNL     1      48.663   9.008  12.381  0.00  0.00    +0.000 A 
ATOM     29  N   UNL     1      49.340   8.285  13.328  0.00  0.00    +0.000 N 
ATOM     30  C   UNL     1      48.851   7.114  13.862  0.00  0.00    +0.000 A 
ATOM     31  O   UNL     1      49.427   6.553  14.788  0.00  0.00    +0.000 OA
ATOM     32  C   UNL     1      47.611   6.651  13.272  0.00  0.00    +0.000 A 
ATOM     33  H   UNL     1      50.205   8.626  13.720  0.00  0.00    +0.000 HD
ENDBRANCH  20  23
ENDBRANCH  18  19
ENDBRANCH   4  18
TORSDOF 6
ENDMDL
MODEL 7
REMARK VINA RESULT:    -6.924      3.235      8.885
REMARK INTER + INTRA:         -10.160
REMARK INTER:                  -9.143
REMARK INTRA:                  -1.017
REMARK UNBOUND:                -0.807
REMARK  Name = 
REMARK  7 active torsions:
REMARK  status: ('A' for Active; 'I' for Inactive)
REMARK    1  A    between atoms: C_1  and  N_2
REMARK    2  A    between atoms: C_6  and  C_7
REMARK    3  A    between atoms: N_9  and  C_10
REMARK    4  A    between atoms: C_10  and  C_11
REMARK    5  A    between atoms: C_14  and  C_15
REMARK    6  A    between atoms: C_15  and  N_16
REMARK    7  A    between atoms: C_17  and  C_19
REMARK                            x       y       z     vdW  Elec       q    Type
REMARK                         _______ _______ _______ _____ _____    ______ ____
ROOT
ATOM      1  C   UNL     1      50.401   7.300  15.268  0.00  0.00    +0.000 A 
ATOM      2  C   UNL     1      50.721   8.052  14.129  0.00  0.00    +0.000 A 
ATOM      3  C   UNL     1      49.813   8.169  13.069  0.00  0.00    +0.000 A 
ATOM      4  C   UNL     1      48.556   7.554  13.136  0.00  0.00    +0.000 A 
ATOM      5  C   UNL     1      48.238   6.797  14.271  0.00  0.00    +0.000 A 
ATOM      6  C   UNL     1      49.145   6.679  15.329  0.00  0.00    +0.000 A 
ENDROOT
BRANCH   1   7
ATOM      7  C   UNL     1      51.387   7.152  16.398  0.00  0.00    +0.000 C 
BRANCH   7  10
ATOM      8  C   UNL     1      51.347   5.079  17.739  0.00  0.00    +0.000 C 
ATOM      9  O   UNL     1      50.611   5.569  18.592  0.00  0.00    +0.000 OA
ATOM     10  N   UNL     1      51.768   5.783  16.629  0.00  0.00    +0.000 N 
ATOM     11  H   UNL     1      52.415   5.307  16.005  0.00  0.00    +0.000 HD
BRANCH   8  17
ATOM     12  C   UNL     1      49.792   2.438  17.102  0.00  0.00    +0.000 C 
ATOM     13  N   UNL     1      51.174   2.554  17.496  0.00  0.00    +0.000 N 
ATOM     14  C   UNL     1      52.038   1.503  17.646  0.00  0.00    +0.000 A 
ATOM     15  C   UNL     1      53.228   2.068  18.034  0.00  0.00    +0.000 A 
ATOM     16  N   UNL     1      53.112   3.429  18.125  0.00  0.00    +0.000 NA
ATOM     17  C   UNL     1      51.859   3.716  17.788  0.00  0.00    +0.000 A 
ENDBRANCH   8  17
ENDBRANCH   7  10
ENDBRANCH   1   7
BRANCH   4  18
ATOM     18  C   UNL     1      47.565   7.683  12.009  0.00  0.00    +0.000 C 
BRANCH  18  19
ATOM     19  N   UNL     1      46.830   6.462  11.797  0.00  0.00    +0.000 N 
ATOM     20  C   UNL     1      45.463   6.424  11.708  0.00  0.00    +0.000 C 
ATOM     21  O   UNL     1      44.772   7.435  11.808  0.00  0.00    +0.000 OA
ATOM     22  H   UNL     1      47.351   5.596  11.892  0.00  0.00    +0.000 HD
BRANCH  20  23
ATOM     23  C   UNL     1      44.862   5.116  11.410  0.00  0.00    +0.000 A 
ATOM     24  C   UNL     1      44.075   4.493  12.372  0.00  0.00    +0.000 A 
ATOM     25  S   UNL     1      43.413   3.008  11.860  0.00  0.00    +0.000 S 
ATOM     26  C   UNL     1      44.193   3.117  10.352  0.00  0.00    +0.000 A 
ATOM     27  N   UNL     1      44.063   2.129   9.428  0.00  0.00    +0.000 NA
ATOM     28  C   UNL     1      44.738   2.321   8.342  0.00  0.00    +0.000 A 
ATOM     29  N   UNL     1      45.523   3.416   8.095  0.00  0.00    +0.000 N 
ATOM     30  C   UNL     1      45.630   4.469   8.975  0.00  0.00    +0.000 A 
ATOM     31  O   UNL     1      46.249   5.484   8.674  0.00  0.00    +0.000 OA
ATOM     32  C   UNL     1      44.927   4.284  10.229  0.00  0.00    +0.000 A 
ATOM     33  H   UNL     1      46.006   3.520   7.216  0.00  0.00    +0.000 HD
ENDBRANCH  20  23
ENDBRANCH  18  19
ENDBRANCH   4  18
TORSDOF 6
ENDMDL
MODEL 8
REMARK VINA RESULT:    -6.868      3.641      8.453
REMARK INTER + INTRA:         -10.083
REMARK INTER:                  -9.162
REMARK INTRA:                  -0.921
REMARK UNBOUND:                -0.807
REMARK  Name = 
REMARK  7 active torsions:
REMARK  status: ('A' for Active; 'I' for Inactive)
REMARK    1  A    between atoms: C_1  and  N_2
REMARK    2  A    between atoms: C_6  and  C_7
REMARK    3  A    between atoms: N_9  and  C_10
REMARK    4  A    between atoms: C_10  and  C_11
REMARK    5  A    between atoms: C_14  and  C_15
REMARK    6  A    between atoms: C_15  and  N_16
REMARK    7  A    between atoms: C_17  and  C_19
REMARK                            x       y       z     vdW  Elec       q    Type
REMARK                         _______ _______ _______ _____ _____    ______ ____
ROOT
ATOM      1  C   UNL     1      50.100   7.175  15.767  0.00  0.00    +0.000 A 
ATOM      2  C   UNL     1      50.823   7.887  14.799  0.00  0.00    +0.000 A 
ATOM      3  C   UNL     1      50.273   8.137  13.535  0.00  0.00    +0.000 A 
ATOM      4  C   UNL     1      48.981   7.698  13.221  0.00  0.00    +0.000 A 
ATOM      5  C   UNL     1      48.261   6.981  14.185  0.00  0.00    +0.000 A 
ATOM      6  C   UNL     1      48.810   6.730  15.446  0.00  0.00    +0.000 A 
ENDROOT
BRANCH   1   7
ATOM      7  C   UNL     1      50.701   6.884  17.119  0.00  0.00    +0.000 C 
BRANCH   7  10
ATOM      8  C   UNL     1      50.620   4.520  17.831  0.00  0.00    +0.000 C 
ATOM      9  O   UNL     1      49.512   4.647  18.346  0.00  0.00    +0.000 OA
ATOM     10  N   UNL     1      51.270   5.564  17.202  0.00  0.00    +0.000 N 
ATOM     11  H   UNL     1      52.204   5.373  16.849  0.00  0.00    +0.000 HD
BRANCH   8  17
ATOM     12  C   UNL     1      49.729   1.766  16.639  0.00  0.00    +0.000 C 
ATOM     13  N   UNL     1      50.986   2.066  17.281  0.00  0.00    +0.000 N 
ATOM     14  C   UNL     1      52.007   1.171  17.462  0.00  0.00    +0.000 A 
ATOM     15  C   UNL     1      52.990   1.875  18.113  0.00  0.00    +0.000 A 
ATOM     16  N   UNL     1      52.596   3.168  18.334  0.00  0.00    +0.000 NA
ATOM     17  C   UNL     1      51.377   3.276  17.816  0.00  0.00    +0.000 A 
ENDBRANCH   8  17
ENDBRANCH   7  10
ENDBRANCH   1   7
BRANCH   4  18
ATOM     18  C   UNL     1      48.373   7.971  11.870  0.00  0.00    +0.000 C 
BRANCH  18  19
ATOM     19  N   UNL     1      47.597   6.855  11.393  0.00  0.00    +0.000 N 
ATOM     20  C   UNL     1      46.228   6.870  11.340  0.00  0.00    +0.000 C 
ATOM     21  O   UNL     1      45.569   7.843  11.702  0.00  0.00    +0.000 OA
ATOM     22  H   UNL     1      48.094   5.980  11.261  0.00  0.00    +0.000 HD
BRANCH  20  23
ATOM     23  C   UNL     1      45.581   5.687  10.756  0.00  0.00    +0.000 A 
ATOM     24  C   UNL     1      45.677   5.463   9.387  0.00  0.00    +0.000 A 
ATOM     25  S   UNL     1      44.916   4.028   8.871  0.00  0.00    +0.000 S 
ATOM     26  C   UNL     1      44.385   3.677  10.449  0.00  0.00    +0.000 A 
ATOM     27  N   UNL     1      43.636   2.572  10.702  0.00  0.00    +0.000 NA
ATOM     28  C   UNL     1      43.269   2.445  11.935  0.00  0.00    +0.000 A 
ATOM     29  N   UNL     1      43.593   3.320  12.938  0.00  0.00    +0.000 N 
ATOM     30  C   UNL     1      44.404   4.414  12.740  0.00  0.00    +0.000 A 
ATOM     31  O   UNL     1      44.767   5.111  13.681  0.00  0.00    +0.000 OA
ATOM     32  C   UNL     1      44.807   4.627  11.363  0.00  0.00    +0.000 A 
ATOM     33  H   UNL     1      43.296   3.153  13.888  0.00  0.00    +0.000 HD
ENDBRANCH  20  23
ENDBRANCH  18  19
ENDBRANCH   4  18
TORSDOF 6
ENDMDL
MODEL 9
REMARK VINA RESULT:    -6.519      2.176      3.154
REMARK INTER + INTRA:          -9.612
REMARK INTER:                  -8.672
REMARK INTRA:                  -0.940
REMARK UNBOUND:                -0.807
REMARK  Name = 
REMARK  7 active torsions:
REMARK  status: ('A' for Active; 'I' for Inactive)
REMARK    1  A    between atoms: C_1  and  N_2
REMARK    2  A    between atoms: C_6  and  C_7
REMARK    3  A    between atoms: N_9  and  C_10
REMARK    4  A    between atoms: C_10  and  C_11
REMARK    5  A    between atoms: C_14  and  C_15
REMARK    6  A    between atoms: C_15  and  N_16
REMARK    7  A    between atoms: C_17  and  C_19
REMARK                            x       y       z     vdW  Elec       q    Type
REMARK                         _______ _______ _______ _____ _____    ______ ____
ROOT
ATOM      1  C   UNL     1      46.150   7.847  12.159  0.00  0.00    +0.000 A 
ATOM      2  C   UNL     1      46.441   9.162  12.549  0.00  0.00    +0.000 A 
ATOM      3  C   UNL     1      47.590   9.449  13.298  0.00  0.00    +0.000 A 
ATOM      4  C   UNL     1      48.481   8.429  13.655  0.00  0.00    +0.000 A 
ATOM      5  C   UNL     1      48.187   7.114  13.272  0.00  0.00    +0.000 A 
ATOM      6  C   UNL     1      47.040   6.827  12.525  0.00  0.00    +0.000 A 
ENDROOT
BRANCH   1   7
ATOM      7  C   UNL     1      44.901   7.533  11.375  0.00  0.00    +0.000 C 
BRANCH   7  10
ATOM      8  C   UNL     1      43.907   5.400  10.626  0.00  0.00    +0.000 C 
ATOM      9  O   UNL     1      42.820   5.653  11.139  0.00  0.00    +0.000 OA
ATOM     10  N   UNL     1      44.978   6.269  10.689  0.00  0.00    +0.000 N 
ATOM     11  H   UNL     1      45.850   5.950  10.277  0.00  0.00    +0.000 HD
BRANCH   8  17
ATOM     12  C   UNL     1      43.507   2.458  11.619  0.00  0.00    +0.000 C 
ATOM     13  N   UNL     1      44.015   2.877  10.335  0.00  0.00    +0.000 N 
ATOM     14  C   UNL     1      44.401   2.030   9.331  0.00  0.00    +0.000 A 
ATOM     15  C   UNL     1      44.819   2.850   8.312  0.00  0.00    +0.000 A 
ATOM     16  N   UNL     1      44.701   4.167   8.668  0.00  0.00    +0.000 NA
ATOM     17  C   UNL     1      44.203   4.173   9.900  0.00  0.00    +0.000 A 
ENDBRANCH   8  17
ENDBRANCH   7  10
ENDBRANCH   1   7
BRANCH   4  18
ATOM     18  C   UNL     1      49.726   8.727  14.449  0.00  0.00    +0.000 C 
BRANCH  18  19
ATOM     19  N   UNL     1      49.757   8.000  15.693  0.00  0.00    +0.000 N 
ATOM     20  C   UNL     1      48.997   8.351  16.777  0.00  0.00    +0.000 C 
ATOM     21  O   UNL     1      48.238   9.317  16.761  0.00  0.00    +0.000 OA
ATOM     22  H   UNL     1      50.500   7.316  15.801  0.00  0.00    +0.000 HD
BRANCH  20  23
ATOM     23  C   UNL     1      49.077   7.466  17.948  0.00  0.00    +0.000 A 
ATOM     24  C   UNL     1      49.396   8.004  19.190  0.00  0.00    +0.000 A 
ATOM     25  S   UNL     1      49.404   6.860  20.453  0.00  0.00    +0.000 S 
ATOM     26  C   UNL     1      49.031   5.593  19.381  0.00  0.00    +0.000 A 
ATOM     27  N   UNL     1      48.918   4.314  19.828  0.00  0.00    +0.000 NA
ATOM     28  C   UNL     1      48.669   3.445  18.903  0.00  0.00    +0.000 A 
ATOM     29  N   UNL     1      48.513   3.743  17.575  0.00  0.00    +0.000 N 
ATOM     30  C   UNL     1      48.553   5.031  17.090  0.00  0.00    +0.000 A 
ATOM     31  O   UNL     1      48.296   5.272  15.916  0.00  0.00    +0.000 OA
ATOM     32  C   UNL     1      48.874   6.040  18.081  0.00  0.00    +0.000 A 
ATOM     33  H   UNL     1      48.295   3.022  16.904  0.00  0.00    +0.000 HD
ENDBRANCH  20  23
ENDBRANCH  18  19
ENDBRANCH   4  18
TORSDOF 6
ENDMDL
