MODEL 1
REMARK VINA RESULT:    -8.727      0.000      0.000
REMARK INTER + INTRA:         -13.236
REMARK INTER:                 -12.043
REMARK INTRA:                  -1.193
REMARK UNBOUND:                -1.193
REMARK  Name = 
REMARK  7 active torsions:
REMARK  status: ('A' for Active; 'I' for Inactive)
REMARK    1  A    between atoms: C_2  and  C_20
REMARK    2  A    between atoms: N_3  and  C_4
REMARK    3  A    between atoms: C_4  and  C_5
REMARK    4  A    between atoms: C_8  and  C_9
REMARK    5  A    between atoms: C_9  and  O_10
REMARK    6  A    between atoms: C_9  and  C_11
REMARK    7  A    between atoms: C_11  and  C_12
REMARK                            x       y       z     vdW  Elec       q    Type
REMARK                         _______ _______ _______ _____ _____    ______ ____
ROOT
ATOM      1  C   UNL     1      47.089   7.551  13.312  0.00  0.00    +0.000 C 
ENDROOT
BRANCH   1   2
ATOM      2  C   UNL     1      46.384   6.452  12.565  0.00  0.00    +0.000 A 
ATOM      3  C   UNL     1      46.294   6.512  11.179  0.00  0.00    +0.000 A 
ATOM      4  C   UNL     1      45.627   5.496  10.504  0.00  0.00    +0.000 A 
ATOM      5  C   UNL     1      45.081   4.428  11.221  0.00  0.00    +0.000 A 
ATOM      6  C   UNL     1      45.243   4.449  12.605  0.00  0.00    +0.000 A 
ATOM      7  N   UNL     1      45.888   5.419  13.288  0.00  0.00    +0.000 NA
BRANCH   5   8
ATOM      8  C   UNL     1      44.284   3.316  10.589  0.00  0.00    +0.000 C 
BRANCH   8   9
ATOM      9  O   UNL     1      42.986   3.351  11.181  0.00  0.00    +0.000 OA
ATOM     10  H   UNL     1      43.095   3.605  12.113  0.00  0.00    +0.000 HD
ENDBRANCH   8   9
BRANCH   8  11
ATOM     11  C   UNL     1      44.193   3.376   9.051  0.00  0.00    +0.000 C 
BRANCH  11  12
ATOM     12  C   UNL     1      45.372   2.818   8.279  0.00  0.00    +0.000 A 
ATOM     13  C   UNL     1      45.724   1.473   8.475  0.00  0.00    +0.000 A 
ATOM     14  C   UNL     1      46.772   0.897   7.757  0.00  0.00    +0.000 A 
ATOM     15  C   UNL     1      47.473   1.653   6.823  0.00  0.00    +0.000 A 
ATOM     16  C   UNL     1      47.133   2.987   6.614  0.00  0.00    +0.000 A 
ATOM     17  C   UNL     1      46.088   3.567   7.336  0.00  0.00    +0.000 A 
ENDBRANCH  11  12
ENDBRANCH   8  11
ENDBRANCH   5   8
ENDBRANCH   1   2
BRANCH   1  20
ATOM     18  O   UNL     1      49.739   6.988  14.064  0.00  0.00    +0.000 OA
ATOM     19  C   UNL     1      48.845   6.893  14.901  0.00  0.00    +0.000 C 
ATOM     20  N   UNL     1      47.528   7.101  14.604  0.00  0.00    +0.000 N 
ATOM     21  H   UNL     1      46.812   7.037  15.318  0.00  0.00    +0.000 HD
BRANCH  19  22
ATOM     22  C   UNL     1      49.122   6.533  16.285  0.00  0.00    +0.000 A 
ATOM     23  C   UNL     1      49.759   7.414  17.150  0.00  0.00    +0.000 A 
ATOM     24  S   UNL     1      49.936   6.789  18.730  0.00  0.00    +0.000 S 
ATOM     25  C   UNL     1      49.145   5.343  18.310  0.00  0.00    +0.000 A 
ATOM     26  N   UNL     1      48.930   4.360  19.227  0.00  0.00    +0.000 NA
ATOM     27  C   UNL     1      48.282   3.339  18.773  0.00  0.00    +0.000 A 
ATOM     28  N   UNL     1      47.834   3.203  17.484  0.00  0.00    +0.000 N 
ATOM     29  C   UNL     1      48.084   4.133  16.512  0.00  0.00    +0.000 A 
ATOM     30  O   UNL     1      47.777   3.909  15.341  0.00  0.00    +0.000 OA
ATOM     31  C   UNL     1      48.772   5.319  16.981  0.00  0.00    +0.000 A 
ATOM     32  H   UNL     1      47.366   2.363  17.175  0.00  0.00    +0.000 HD
ENDBRANCH  19  22
ENDBRANCH   1  20
TORSDOF 7
ENDMDL
MODEL 2
REMARK VINA RESULT:    -8.550      1.920      3.506
REMARK INTER + INTRA:         -12.992
REMARK INTER:                 -11.737
REMARK INTRA:                  -1.255
REMARK UNBOUND:                -1.193
REMARK  Name = 
REMARK  7 active torsions:
REMARK  status: ('A' for Active; 'I' for Inactive)
REMARK    1  A    between atoms: C_2  and  C_20
REMARK    2  A    between atoms: N_3  and  C_4
REMARK    3  A    between atoms: C_4  and  C_5
REMARK    4  A    between atoms: C_8  and  C_9
REMARK    5  A    between atoms: C_9  and  O_10
REMARK    6  A    between atoms: C_9  and  C_11
REMARK    7  A    between atoms: C_11  and  C_12
REMARK                            x       y       z     vdW  Elec       q    Type
REMARK                         _______ _______ _______ _____ _____    ______ ____
ROOT
ATOM      1  C   UNL     1      47.102   4.381  15.010  0.00  0.00    +0.000 C 
ENDROOT
BRANCH   1   2
ATOM      2  C   UNL     1      46.400   4.394  13.679  0.00  0.00    +0.000 A 
ATOM      3  C   UNL     1      46.378   5.562  12.926  0.00  0.00    +0.000 A 
ATOM      4  C   UNL     1      45.714   5.564  11.705  0.00  0.00    +0.000 A 
ATOM      5  C   UNL     1      45.101   4.395  11.248  0.00  0.00    +0.000 A 
ATOM      6  C   UNL     1      45.197   3.270  12.065  0.00  0.00    +0.000 A 
ATOM      7  N   UNL     1      45.838   3.238  13.253  0.00  0.00    +0.000 NA
BRANCH   5   8
ATOM      8  C   UNL     1      44.301   4.311   9.973  0.00  0.00    +0.000 C 
BRANCH   8   9
ATOM      9  O   UNL     1      43.237   5.255  10.091  0.00  0.00    +0.000 OA
ATOM     10  H   UNL     1      43.632   6.117  10.304  0.00  0.00    +0.000 HD
ENDBRANCH   8   9
BRANCH   8  11
ATOM     11  C   UNL     1      45.111   4.549   8.683  0.00  0.00    +0.000 C 
BRANCH  11  12
ATOM     12  C   UNL     1      45.843   3.353   8.110  0.00  0.00    +0.000 A 
ATOM     13  C   UNL     1      46.842   3.576   7.149  0.00  0.00    +0.000 A 
ATOM     14  C   UNL     1      47.578   2.515   6.622  0.00  0.00    +0.000 A 
ATOM     15  C   UNL     1      47.335   1.216   7.060  0.00  0.00    +0.000 A 
ATOM     16  C   UNL     1      46.351   0.979   8.015  0.00  0.00    +0.000 A 
ATOM     17  C   UNL     1      45.610   2.040   8.540  0.00  0.00    +0.000 A 
ENDBRANCH  11  12
ENDBRANCH   8  11
ENDBRANCH   5   8
ENDBRANCH   1   2
BRANCH   1  20
ATOM     18  O   UNL     1      49.278   4.943  16.700  0.00  0.00    +0.000 OA
ATOM     19  C   UNL     1      48.700   5.869  16.139  0.00  0.00    +0.000 C 
ATOM     20  N   UNL     1      47.605   5.686  15.343  0.00  0.00    +0.000 N 
ATOM     21  H   UNL     1      47.159   6.465  14.874  0.00  0.00    +0.000 HD
BRANCH  19  22
ATOM     22  C   UNL     1      49.132   7.252  16.294  0.00  0.00    +0.000 A 
ATOM     23  C   UNL     1      49.100   7.887  17.528  0.00  0.00    +0.000 A 
ATOM     24  S   UNL     1      49.694   9.488  17.473  0.00  0.00    +0.000 S 
ATOM     25  C   UNL     1      50.036   9.365  15.811  0.00  0.00    +0.000 A 
ATOM     26  N   UNL     1      50.601  10.396  15.125  0.00  0.00    +0.000 NA
ATOM     27  C   UNL     1      50.839  10.143  13.881  0.00  0.00    +0.000 A 
ATOM     28  N   UNL     1      50.560   8.956  13.254  0.00  0.00    +0.000 N 
ATOM     29  C   UNL     1      49.933   7.916  13.884  0.00  0.00    +0.000 A 
ATOM     30  O   UNL     1      49.584   6.921  13.248  0.00  0.00    +0.000 OA
ATOM     31  C   UNL     1      49.681   8.134  15.295  0.00  0.00    +0.000 A 
ATOM     32  H   UNL     1      50.733   8.829  12.268  0.00  0.00    +0.000 HD
ENDBRANCH  19  22
ENDBRANCH   1  20
TORSDOF 7
ENDMDL
MODEL 3
REMARK VINA RESULT:    -8.344      2.302      3.126
REMARK INTER + INTRA:         -12.708
REMARK INTER:                 -11.759
REMARK INTRA:                  -0.949
REMARK UNBOUND:                -1.193
REMARK  Name = 
REMARK  7 active torsions:
REMARK  status: ('A' for Active; 'I' for Inactive)
REMARK    1  A    between atoms: C_2  and  C_20
REMARK    2  A    between atoms: N_3  and  C_4
REMARK    3  A    between atoms: C_4  and  C_5
REMARK    4  A    between atoms: C_8  and  C_9
REMARK    5  A    between atoms: C_9  and  O_10
REMARK    6  A    between atoms: C_9  and  C_11
REMARK    7  A    between atoms: C_11  and  C_12
REMARK                            x       y       z     vdW  Elec       q    Type
REMARK                         _______ _______ _______ _____ _____    ______ ____
ROOT
ATOM      1  C   UNL     1      47.185   4.329  15.032  0.00  0.00    +0.000 C 
ENDROOT
BRANCH   1   2
ATOM      2  C   UNL     1      46.477   4.358  13.705  0.00  0.00    +0.000 A 
ATOM      3  C   UNL     1      46.432   5.541  12.976  0.00  0.00    +0.000 A 
ATOM      4  C   UNL     1      45.762   5.556  11.758  0.00  0.00    +0.000 A 
ATOM      5  C   UNL     1      45.166   4.386  11.280  0.00  0.00    +0.000 A 
ATOM      6  C   UNL     1      45.285   3.247  12.073  0.00  0.00    +0.000 A 
ATOM      7  N   UNL     1      45.933   3.200  13.258  0.00  0.00    +0.000 NA
BRANCH   5   8
ATOM      8  C   UNL     1      44.362   4.315  10.007  0.00  0.00    +0.000 C 
BRANCH   8   9
ATOM      9  O   UNL     1      43.291   5.248  10.144  0.00  0.00    +0.000 OA
ATOM     10  H   UNL     1      43.654   6.137   9.998  0.00  0.00    +0.000 HD
ENDBRANCH   8   9
BRANCH   8  11
ATOM     11  C   UNL     1      45.165   4.580   8.718  0.00  0.00    +0.000 C 
BRANCH  11  12
ATOM     12  C   UNL     1      45.842   3.383   8.081  0.00  0.00    +0.000 A 
ATOM     13  C   UNL     1      46.699   3.600   6.991  0.00  0.00    +0.000 A 
ATOM     14  C   UNL     1      47.383   2.540   6.396  0.00  0.00    +0.000 A 
ATOM     15  C   UNL     1      47.229   1.249   6.893  0.00  0.00    +0.000 A 
ATOM     16  C   UNL     1      46.387   1.018   7.976  0.00  0.00    +0.000 A 
ATOM     17  C   UNL     1      45.698   2.078   8.569  0.00  0.00    +0.000 A 
ENDBRANCH  11  12
ENDBRANCH   8  11
ENDBRANCH   5   8
ENDBRANCH   1   2
BRANCH   1  20
ATOM     18  O   UNL     1      49.395   5.047  16.616  0.00  0.00    +0.000 OA
ATOM     19  C   UNL     1      48.645   5.926  16.199  0.00  0.00    +0.000 C 
ATOM     20  N   UNL     1      47.523   5.656  15.467  0.00  0.00    +0.000 N 
ATOM     21  H   UNL     1      46.933   6.401  15.117  0.00  0.00    +0.000 HD
BRANCH  19  22
ATOM     22  C   UNL     1      48.887   7.336  16.471  0.00  0.00    +0.000 A 
ATOM     23  C   UNL     1      49.562   8.143  15.564  0.00  0.00    +0.000 A 
ATOM     24  S   UNL     1      49.688   9.767  16.079  0.00  0.00    +0.000 S 
ATOM     25  C   UNL     1      48.823   9.443  17.507  0.00  0.00    +0.000 A 
ATOM     26  N   UNL     1      48.545  10.426  18.407  0.00  0.00    +0.000 NA
ATOM     27  C   UNL     1      47.847  10.038  19.422  0.00  0.00    +0.000 A 
ATOM     28  N   UNL     1      47.406   8.757  19.628  0.00  0.00    +0.000 N 
ATOM     29  C   UNL     1      47.716   7.722  18.788  0.00  0.00    +0.000 A 
ATOM     30  O   UNL     1      47.410   6.567  19.081  0.00  0.00    +0.000 OA
ATOM     31  C   UNL     1      48.463   8.113  17.609  0.00  0.00    +0.000 A 
ATOM     32  H   UNL     1      46.896   8.503  20.462  0.00  0.00    +0.000 HD
ENDBRANCH  19  22
ENDBRANCH   1  20
TORSDOF 7
ENDMDL
MODEL 4
REMARK VINA RESULT:    -7.699      1.845      2.178
REMARK INTER + INTRA:         -11.817
REMARK INTER:                 -10.773
REMARK INTRA:                  -1.044
REMARK UNBOUND:                -1.193
REMARK  Name = 
REMARK  7 active torsions:
REMARK  status: ('A' for Active; 'I' for Inactive)
REMARK    1  A    between atoms: C_2  and  C_20
REMARK    2  A    between atoms: N_3  and  C_4
REMARK    3  A    between atoms: C_4  and  C_5
REMARK    4  A    between atoms: C_8  and  C_9
REMARK    5  A    between atoms: C_9  and  O_10
REMARK    6  A    between atoms: C_9  and  C_11
REMARK    7  A    between atoms: C_11  and  C_12
REMARK                            x       y       z     vdW  Elec       q    Type
REMARK                         _______ _______ _______ _____ _____    ______ ____
ROOT
ATOM      1  C   UNL     1      46.488   7.834  13.209  0.00  0.00    +0.000 C 
ENDROOT
BRANCH   1   2
ATOM      2  C   UNL     1      45.984   6.592  12.527  0.00  0.00    +0.000 A 
ATOM      3  C   UNL     1      45.589   6.651  11.196  0.00  0.00    +0.000 A 
ATOM      4  C   UNL     1      45.112   5.498  10.583  0.00  0.00    +0.000 A 
ATOM      5  C   UNL     1      45.057   4.302  11.303  0.00  0.00    +0.000 A 
ATOM      6  C   UNL     1      45.497   4.340  12.625  0.00  0.00    +0.000 A 
ATOM      7  N   UNL     1      45.969   5.443  13.245  0.00  0.00    +0.000 NA
BRANCH   5   8
ATOM      8  C   UNL     1      44.496   3.016  10.751  0.00  0.00    +0.000 C 
BRANCH   8   9
ATOM      9  O   UNL     1      43.296   2.746  11.476  0.00  0.00    +0.000 OA
ATOM     10  H   UNL     1      43.195   3.442  12.146  0.00  0.00    +0.000 HD
ENDBRANCH   8   9
BRANCH   8  11
ATOM     11  C   UNL     1      44.236   3.022   9.232  0.00  0.00    +0.000 C 
BRANCH  11  12
ATOM     12  C   UNL     1      45.420   2.714   8.339  0.00  0.00    +0.000 A 
ATOM     13  C   UNL     1      45.948   1.412   8.353  0.00  0.00    +0.000 A 
ATOM     14  C   UNL     1      47.009   1.062   7.518  0.00  0.00    +0.000 A 
ATOM     15  C   UNL     1      47.548   2.004   6.647  0.00  0.00    +0.000 A 
ATOM     16  C   UNL     1      47.033   3.297   6.618  0.00  0.00    +0.000 A 
ATOM     17  C   UNL     1      45.974   3.651   7.457  0.00  0.00    +0.000 A 
ENDBRANCH  11  12
ENDBRANCH   8  11
ENDBRANCH   5   8
ENDBRANCH   1   2
BRANCH   1  20
ATOM     18  O   UNL     1      47.752   9.054  15.405  0.00  0.00    +0.000 OA
ATOM     19  C   UNL     1      48.397   8.291  14.689  0.00  0.00    +0.000 C 
ATOM     20  N   UNL     1      47.871   7.699  13.576  0.00  0.00    +0.000 N 
ATOM     21  H   UNL     1      48.418   7.057  13.014  0.00  0.00    +0.000 HD
BRANCH  19  22
ATOM     22  C   UNL     1      49.790   7.970  14.967  0.00  0.00    +0.000 A 
ATOM     23  C   UNL     1      50.828   8.710  14.415  0.00  0.00    +0.000 A 
ATOM     24  S   UNL     1      52.371   8.176  14.916  0.00  0.00    +0.000 S 
ATOM     25  C   UNL     1      51.696   6.965  15.902  0.00  0.00    +0.000 A 
ATOM     26  N   UNL     1      52.479   6.142  16.652  0.00  0.00    +0.000 NA
ATOM     27  C   UNL     1      51.824   5.300  17.381  0.00  0.00    +0.000 A 
ATOM     28  N   UNL     1      50.458   5.197  17.425  0.00  0.00    +0.000 N 
ATOM     29  C   UNL     1      49.632   5.955  16.641  0.00  0.00    +0.000 A 
ATOM     30  O   UNL     1      48.420   5.737  16.617  0.00  0.00    +0.000 OA
ATOM     31  C   UNL     1      50.316   6.946  15.835  0.00  0.00    +0.000 A 
ATOM     32  H   UNL     1      50.001   4.491  17.985  0.00  0.00    +0.000 HD
ENDBRANCH  19  22
ENDBRANCH   1  20
TORSDOF 7
ENDMDL
MODEL 5
REMARK VINA RESULT:    -7.163      1.953      2.613
REMARK INTER + INTRA:         -11.078
REMARK INTER:                 -10.805
REMARK INTRA:                  -0.273
REMARK UNBOUND:                -1.193
REMARK  Name = 
REMARK  7 active torsions:
REMARK  status: ('A' for Active; 'I' for Inactive)
REMARK    1  A    between atoms: C_2  and  C_20
REMARK    2  A    between atoms: N_3  and  C_4
REMARK    3  A    between atoms: C_4  and  C_5
REMARK    4  A    between atoms: C_8  and  C_9
REMARK    5  A    between atoms: C_9  and  O_10
REMARK    6  A    between atoms: C_9  and  C_11
REMARK    7  A    between atoms: C_11  and  C_12
REMARK                            x       y       z     vdW  Elec       q    Type
REMARK                         _______ _______ _______ _____ _____    ______ ____
ROOT
ATOM      1  C   UNL     1      47.279   7.545  13.390  0.00  0.00    +0.000 C 
ENDROOT
BRANCH   1   2
ATOM      2  C   UNL     1      46.389   6.601  12.628  0.00  0.00    +0.000 A 
ATOM      3  C   UNL     1      46.381   5.250  12.955  0.00  0.00    +0.000 A 
ATOM      4  C   UNL     1      45.564   4.387  12.233  0.00  0.00    +0.000 A 
ATOM      5  C   UNL     1      44.755   4.891  11.212  0.00  0.00    +0.000 A 
ATOM      6  C   UNL     1      44.817   6.263  10.975  0.00  0.00    +0.000 A 
ATOM      7  N   UNL     1      45.597   7.125  11.661  0.00  0.00    +0.000 NA
BRANCH   5   8
ATOM      8  C   UNL     1      43.886   4.030  10.330  0.00  0.00    +0.000 C 
BRANCH   8   9
ATOM      9  O   UNL     1      43.594   4.800   9.164  0.00  0.00    +0.000 OA
ATOM     10  H   UNL     1      42.651   4.681   8.962  0.00  0.00    +0.000 HD
ENDBRANCH   8   9
BRANCH   8  11
ATOM     11  C   UNL     1      44.496   2.665   9.954  0.00  0.00    +0.000 C 
BRANCH  11  12
ATOM     12  C   UNL     1      45.480   2.655   8.802  0.00  0.00    +0.000 A 
ATOM     13  C   UNL     1      46.024   1.425   8.397  0.00  0.00    +0.000 A 
ATOM     14  C   UNL     1      46.899   1.352   7.313  0.00  0.00    +0.000 A 
ATOM     15  C   UNL     1      47.231   2.507   6.610  0.00  0.00    +0.000 A 
ATOM     16  C   UNL     1      46.697   3.732   6.996  0.00  0.00    +0.000 A 
ATOM     17  C   UNL     1      45.825   3.807   8.084  0.00  0.00    +0.000 A 
ENDBRANCH  11  12
ENDBRANCH   8  11
ENDBRANCH   5   8
ENDBRANCH   1   2
BRANCH   1  20
ATOM     18  O   UNL     1      48.335   8.599  15.774  0.00  0.00    +0.000 OA
ATOM     19  C   UNL     1      48.519   7.414  15.508  0.00  0.00    +0.000 C 
ATOM     20  N   UNL     1      48.083   6.838  14.348  0.00  0.00    +0.000 N 
ATOM     21  H   UNL     1      48.230   5.853  14.163  0.00  0.00    +0.000 HD
BRANCH  19  22
ATOM     22  C   UNL     1      49.239   6.526  16.411  0.00  0.00    +0.000 A 
ATOM     23  C   UNL     1      48.568   5.662  17.265  0.00  0.00    +0.000 A 
ATOM     24  S   UNL     1      49.620   4.690  18.197  0.00  0.00    +0.000 S 
ATOM     25  C   UNL     1      50.994   5.375  17.465  0.00  0.00    +0.000 A 
ATOM     26  N   UNL     1      52.251   4.965  17.792  0.00  0.00    +0.000 NA
ATOM     27  C   UNL     1      53.192   5.546  17.126  0.00  0.00    +0.000 A 
ATOM     28  N   UNL     1      52.997   6.507  16.168  0.00  0.00    +0.000 N 
ATOM     29  C   UNL     1      51.760   7.000  15.853  0.00  0.00    +0.000 A 
ATOM     30  O   UNL     1      51.645   7.953  15.083  0.00  0.00    +0.000 OA
ATOM     31  C   UNL     1      50.664   6.349  16.543  0.00  0.00    +0.000 A 
ATOM     32  H   UNL     1      53.776   6.956  15.706  0.00  0.00    +0.000 HD
ENDBRANCH  19  22
ENDBRANCH   1  20
TORSDOF 7
ENDMDL
MODEL 6
REMARK VINA RESULT:    -7.142      4.323      8.914
REMARK INTER + INTRA:         -11.049
REMARK INTER:                 -10.014
REMARK INTRA:                  -1.035
REMARK UNBOUND:                -1.193
REMARK  Name = 
REMARK  7 active torsions:
REMARK  status: ('A' for Active; 'I' for Inactive)
REMARK    1  A    between atoms: C_2  and  C_20
REMARK    2  A    between atoms: N_3  and  C_4
REMARK    3  A    between atoms: C_4  and  C_5
REMARK    4  A    between atoms: C_8  and  C_9
REMARK    5  A    between atoms: C_9  and  O_10
REMARK    6  A    between atoms: C_9  and  C_11
REMARK    7  A    between atoms: C_11  and  C_12
REMARK                            x       y       z     vdW  Elec       q    Type
REMARK                         _______ _______ _______ _____ _____    ______ ____
ROOT
ATOM      1  C   UNL     1      47.194   3.554  16.713  0.00  0.00    +0.000 C 
ENDROOT
BRANCH   1   2
ATOM      2  C   UNL     1      48.664   3.622  17.025  0.00  0.00    +0.000 A 
ATOM      3  C   UNL     1      49.403   2.448  17.110  0.00  0.00    +0.000 A 
ATOM      4  C   UNL     1      50.757   2.526  17.413  0.00  0.00    +0.000 A 
ATOM      5  C   UNL     1      51.354   3.775  17.606  0.00  0.00    +0.000 A 
ATOM      6  C   UNL     1      50.534   4.893  17.479  0.00  0.00    +0.000 A 
ATOM      7  N   UNL     1      49.217   4.849  17.182  0.00  0.00    +0.000 NA
BRANCH   5   8
ATOM      8  C   UNL     1      52.797   3.961  18.003  0.00  0.00    +0.000 C 
BRANCH   8   9
ATOM      9  O   UNL     1      52.841   5.091  18.873  0.00  0.00    +0.000 OA
ATOM     10  H   UNL     1      53.118   5.859  18.345  0.00  0.00    +0.000 HD
ENDBRANCH   8   9
BRANCH   8  11
ATOM     11  C   UNL     1      53.453   2.730  18.660  0.00  0.00    +0.000 C 
BRANCH  11  12
ATOM     12  C   UNL     1      54.195   1.784  17.738  0.00  0.00    +0.000 A 
ATOM     13  C   UNL     1      53.860   0.421  17.767  0.00  0.00    +0.000 A 
ATOM     14  C   UNL     1      54.480  -0.487  16.909  0.00  0.00    +0.000 A 
ATOM     15  C   UNL     1      55.435  -0.041  15.999  0.00  0.00    +0.000 A 
ATOM     16  C   UNL     1      55.774   1.308  15.955  0.00  0.00    +0.000 A 
ATOM     17  C   UNL     1      55.158   2.217  16.818  0.00  0.00    +0.000 A 
ENDBRANCH  11  12
ENDBRANCH   8  11
ENDBRANCH   5   8
ENDBRANCH   1   2
BRANCH   1  20
ATOM     18  O   UNL     1      47.168   3.202  13.923  0.00  0.00    +0.000 OA
ATOM     19  C   UNL     1      46.796   4.273  14.396  0.00  0.00    +0.000 C 
ATOM     20  N   UNL     1      46.825   4.541  15.736  0.00  0.00    +0.000 N 
ATOM     21  H   UNL     1      46.493   5.425  16.102  0.00  0.00    +0.000 HD
BRANCH  19  22
ATOM     22  C   UNL     1      46.306   5.356  13.555  0.00  0.00    +0.000 A 
ATOM     23  C   UNL     1      47.099   6.454  13.252  0.00  0.00    +0.000 A 
ATOM     24  S   UNL     1      46.328   7.572  12.216  0.00  0.00    +0.000 S 
ATOM     25  C   UNL     1      44.930   6.608  12.122  0.00  0.00    +0.000 A 
ATOM     26  N   UNL     1      43.864   6.976  11.358  0.00  0.00    +0.000 NA
ATOM     27  C   UNL     1      42.892   6.126  11.352  0.00  0.00    +0.000 A 
ATOM     28  N   UNL     1      42.880   4.943  12.045  0.00  0.00    +0.000 N 
ATOM     29  C   UNL     1      43.897   4.562  12.878  0.00  0.00    +0.000 A 
ATOM     30  O   UNL     1      43.786   3.557  13.580  0.00  0.00    +0.000 OA
ATOM     31  C   UNL     1      45.033   5.463  12.887  0.00  0.00    +0.000 A 
ATOM     32  H   UNL     1      42.074   4.335  12.034  0.00  0.00    +0.000 HD
ENDBRANCH  19  22
ENDBRANCH   1  20
TORSDOF 7
ENDMDL
MODEL 7
REMARK VINA RESULT:    -6.940      3.455      8.359
REMARK INTER + INTRA:         -10.771
REMARK INTER:                  -9.756
REMARK INTRA:                  -1.014
REMARK UNBOUND:                -1.193
REMARK  Name = 
REMARK  7 active torsions:
REMARK  status: ('A' for Active; 'I' for Inactive)
REMARK    1  A    between atoms: C_2  and  C_20
REMARK    2  A    between atoms: N_3  and  C_4
REMARK    3  A    between atoms: C_4  and  C_5
REMARK    4  A    between atoms: C_8  and  C_9
REMARK    5  A    between atoms: C_9  and  O_10
REMARK    6  A    between atoms: C_9  and  C_11
REMARK    7  A    between atoms: C_11  and  C_12
REMARK                            x       y       z     vdW  Elec       q    Type
REMARK                         _______ _______ _______ _____ _____    ______ ____
ROOT
ATOM      1  C   UNL     1      48.429   7.654  12.586  0.00  0.00    +0.000 C 
ENDROOT
BRANCH   1   2
ATOM      2  C   UNL     1      48.932   7.190  13.925  0.00  0.00    +0.000 A 
ATOM      3  C   UNL     1      50.151   7.659  14.401  0.00  0.00    +0.000 A 
ATOM      4  C   UNL     1      50.610   7.211  15.634  0.00  0.00    +0.000 A 
ATOM      5  C   UNL     1      49.836   6.318  16.380  0.00  0.00    +0.000 A 
ATOM      6  C   UNL     1      48.619   5.923  15.826  0.00  0.00    +0.000 A 
ATOM      7  N   UNL     1      48.146   6.345  14.634  0.00  0.00    +0.000 NA
BRANCH   5   8
ATOM      8  C   UNL     1      50.275   5.723  17.693  0.00  0.00    +0.000 C 
BRANCH   8   9
ATOM      9  O   UNL     1      49.692   6.522  18.722  0.00  0.00    +0.000 OA
ATOM     10  H   UNL     1      49.599   7.425  18.376  0.00  0.00    +0.000 HD
ENDBRANCH   8   9
BRANCH   8  11
ATOM     11  C   UNL     1      49.920   4.234  17.880  0.00  0.00    +0.000 C 
BRANCH  11  12
ATOM     12  C   UNL     1      51.069   3.248  17.807  0.00  0.00    +0.000 A 
ATOM     13  C   UNL     1      52.345   3.677  18.206  0.00  0.00    +0.000 A 
ATOM     14  C   UNL     1      53.429   2.799  18.201  0.00  0.00    +0.000 A 
ATOM     15  C   UNL     1      53.248   1.475  17.812  0.00  0.00    +0.000 A 
ATOM     16  C   UNL     1      51.988   1.033  17.418  0.00  0.00    +0.000 A 
ATOM     17  C   UNL     1      50.904   1.913  17.417  0.00  0.00    +0.000 A 
ENDBRANCH  11  12
ENDBRANCH   8  11
ENDBRANCH   5   8
ENDBRANCH   1   2
BRANCH   1  20
ATOM     18  O   UNL     1      45.734   7.903  11.823  0.00  0.00    +0.000 OA
ATOM     19  C   UNL     1      46.334   6.861  11.573  0.00  0.00    +0.000 C 
ATOM     20  N   UNL     1      47.628   6.642  11.954  0.00  0.00    +0.000 N 
ATOM     21  H   UNL     1      48.107   5.781  11.717  0.00  0.00    +0.000 HD
BRANCH  19  22
ATOM     22  C   UNL     1      45.701   5.761  10.859  0.00  0.00    +0.000 A 
ATOM     23  C   UNL     1      45.914   5.560   9.502  0.00  0.00    +0.000 A 
ATOM     24  S   UNL     1      45.103   4.185   8.893  0.00  0.00    +0.000 S 
ATOM     25  C   UNL     1      44.471   3.807  10.426  0.00  0.00    +0.000 A 
ATOM     26  N   UNL     1      43.692   2.707  10.622  0.00  0.00    +0.000 NA
ATOM     27  C   UNL     1      43.320   2.527  11.845  0.00  0.00    +0.000 A 
ATOM     28  N   UNL     1      43.646   3.348  12.894  0.00  0.00    +0.000 N 
ATOM     29  C   UNL     1      44.369   4.499  12.736  0.00  0.00    +0.000 A 
ATOM     30  O   UNL     1      44.525   5.272  13.682  0.00  0.00    +0.000 OA
ATOM     31  C   UNL     1      44.848   4.725  11.387  0.00  0.00    +0.000 A 
ATOM     32  H   UNL     1      43.293   3.178  13.824  0.00  0.00    +0.000 HD
ENDBRANCH  19  22
ENDBRANCH   1  20
TORSDOF 7
ENDMDL
MODEL 8
REMARK VINA RESULT:    -6.861      2.876      3.938
REMARK INTER + INTRA:         -10.661
REMARK INTER:                  -9.730
REMARK INTRA:                  -0.931
REMARK UNBOUND:                -1.193
REMARK  Name = 
REMARK  7 active torsions:
REMARK  status: ('A' for Active; 'I' for Inactive)
REMARK    1  A    between atoms: C_2  and  C_20
REMARK    2  A    between atoms: N_3  and  C_4
REMARK    3  A    between atoms: C_4  and  C_5
REMARK    4  A    between atoms: C_8  and  C_9
REMARK    5  A    between atoms: C_9  and  O_10
REMARK    6  A    between atoms: C_9  and  C_11
REMARK    7  A    between atoms: C_11  and  C_12
REMARK                            x       y       z     vdW  Elec       q    Type
REMARK                         _______ _______ _______ _____ _____    ______ ____
ROOT
ATOM      1  C   UNL     1      49.506   6.835  16.470  0.00  0.00    +0.000 C 
ENDROOT
BRANCH   1   2
ATOM      2  C   UNL     1      48.519   6.138  15.574  0.00  0.00    +0.000 A 
ATOM      3  C   UNL     1      47.761   5.085  16.075  0.00  0.00    +0.000 A 
ATOM      4  C   UNL     1      46.864   4.440  15.231  0.00  0.00    +0.000 A 
ATOM      5  C   UNL     1      46.723   4.871  13.909  0.00  0.00    +0.000 A 
ATOM      6  C   UNL     1      47.511   5.948  13.509  0.00  0.00    +0.000 A 
ATOM      7  N   UNL     1      48.388   6.596  14.306  0.00  0.00    +0.000 NA
BRANCH   5   8
ATOM      8  C   UNL     1      45.828   4.198  12.900  0.00  0.00    +0.000 C 
BRANCH   8   9
ATOM      9  O   UNL     1      44.638   3.820  13.592  0.00  0.00    +0.000 OA
ATOM     10  H   UNL     1      44.397   2.926  13.296  0.00  0.00    +0.000 HD
ENDBRANCH   8   9
BRANCH   8  11
ATOM     11  C   UNL     1      45.500   5.048  11.657  0.00  0.00    +0.000 C 
BRANCH  11  12
ATOM     12  C   UNL     1      45.310   4.299  10.353  0.00  0.00    +0.000 A 
ATOM     13  C   UNL     1      45.747   4.905   9.164  0.00  0.00    +0.000 A 
ATOM     14  C   UNL     1      45.638   4.241   7.942  0.00  0.00    +0.000 A 
ATOM     15  C   UNL     1      45.103   2.957   7.894  0.00  0.00    +0.000 A 
ATOM     16  C   UNL     1      44.669   2.342   9.064  0.00  0.00    +0.000 A 
ATOM     17  C   UNL     1      44.773   3.007  10.288  0.00  0.00    +0.000 A 
ENDBRANCH  11  12
ENDBRANCH   8  11
ENDBRANCH   5   8
ENDBRANCH   1   2
BRANCH   1  20
ATOM     18  O   UNL     1      50.130   6.041  19.095  0.00  0.00    +0.000 OA
ATOM     19  C   UNL     1      50.775   5.576  18.158  0.00  0.00    +0.000 C 
ATOM     20  N   UNL     1      50.568   5.948  16.860  0.00  0.00    +0.000 N 
ATOM     21  H   UNL     1      51.099   5.534  16.103  0.00  0.00    +0.000 HD
BRANCH  19  22
ATOM     22  C   UNL     1      51.832   4.595  18.363  0.00  0.00    +0.000 A 
ATOM     23  C   UNL     1      53.012   4.928  19.015  0.00  0.00    +0.000 A 
ATOM     24  S   UNL     1      54.083   3.607  19.176  0.00  0.00    +0.000 S 
ATOM     25  C   UNL     1      52.990   2.553  18.409  0.00  0.00    +0.000 A 
ATOM     26  N   UNL     1      53.277   1.232  18.241  0.00  0.00    +0.000 NA
ATOM     27  C   UNL     1      52.336   0.549  17.679  0.00  0.00    +0.000 A 
ATOM     28  N   UNL     1      51.135   1.062  17.261  0.00  0.00    +0.000 N 
ATOM     29  C   UNL     1      50.828   2.393  17.348  0.00  0.00    +0.000 A 
ATOM     30  O   UNL     1      49.795   2.829  16.841  0.00  0.00    +0.000 OA
ATOM     31  C   UNL     1      51.836   3.198  18.010  0.00  0.00    +0.000 A 
ATOM     32  H   UNL     1      50.451   0.486  16.792  0.00  0.00    +0.000 HD
ENDBRANCH  19  22
ENDBRANCH   1  20
TORSDOF 7
ENDMDL
MODEL 9
REMARK VINA RESULT:    -6.682      3.778      9.073
REMARK INTER + INTRA:         -10.414
REMARK INTER:                  -9.306
REMARK INTRA:                  -1.108
REMARK UNBOUND:                -1.193
REMARK  Name = 
REMARK  7 active torsions:
REMARK  status: ('A' for Active; 'I' for Inactive)
REMARK    1  A    between atoms: C_2  and  C_20
REMARK    2  A    between atoms: N_3  and  C_4
REMARK    3  A    between atoms: C_4  and  C_5
REMARK    4  A    between atoms: C_8  and  C_9
REMARK    5  A    between atoms: C_9  and  O_10
REMARK    6  A    between atoms: C_9  and  C_11
REMARK    7  A    between atoms: C_11  and  C_12
REMARK                            x       y       z     vdW  Elec       q    Type
REMARK                         _______ _______ _______ _____ _____    ______ ____
ROOT
ATOM      1  C   UNL     1      47.128   3.410  16.823  0.00  0.00    +0.000 C 
ENDROOT
BRANCH   1   2
ATOM      2  C   UNL     1      48.565   3.476  17.263  0.00  0.00    +0.000 A 
ATOM      3  C   UNL     1      49.434   2.444  16.927  0.00  0.00    +0.000 A 
ATOM      4  C   UNL     1      50.755   2.511  17.353  0.00  0.00    +0.000 A 
ATOM      5  C   UNL     1      51.191   3.615  18.090  0.00  0.00    +0.000 A 
ATOM      6  C   UNL     1      50.250   4.607  18.358  0.00  0.00    +0.000 A 
ATOM      7  N   UNL     1      48.961   4.572  17.954  0.00  0.00    +0.000 NA
BRANCH   5   8
ATOM      8  C   UNL     1      52.583   3.750  18.654  0.00  0.00    +0.000 C 
BRANCH   8   9
ATOM      9  O   UNL     1      52.961   2.458  19.128  0.00  0.00    +0.000 OA
ATOM     10  H   UNL     1      52.589   1.800  18.518  0.00  0.00    +0.000 HD
ENDBRANCH   8   9
BRANCH   8  11
ATOM     11  C   UNL     1      53.630   4.307  17.669  0.00  0.00    +0.000 C 
BRANCH  11  12
ATOM     12  C   UNL     1      53.623   5.806  17.448  0.00  0.00    +0.000 A 
ATOM     13  C   UNL     1      52.972   6.313  16.312  0.00  0.00    +0.000 A 
ATOM     14  C   UNL     1      52.897   7.687  16.084  0.00  0.00    +0.000 A 
ATOM     15  C   UNL     1      53.461   8.574  16.996  0.00  0.00    +0.000 A 
ATOM     16  C   UNL     1      54.106   8.088  18.129  0.00  0.00    +0.000 A 
ATOM     17  C   UNL     1      54.186   6.712  18.356  0.00  0.00    +0.000 A 
ENDBRANCH  11  12
ENDBRANCH   8  11
ENDBRANCH   5   8
ENDBRANCH   1   2
BRANCH   1  20
ATOM     18  O   UNL     1      47.219   3.111  14.028  0.00  0.00    +0.000 OA
ATOM     19  C   UNL     1      46.862   4.185  14.505  0.00  0.00    +0.000 C 
ATOM     20  N   UNL     1      46.838   4.427  15.849  0.00  0.00    +0.000 N 
ATOM     21  H   UNL     1      46.519   5.315  16.217  0.00  0.00    +0.000 HD
BRANCH  19  22
ATOM     22  C   UNL     1      46.447   5.300  13.664  0.00  0.00    +0.000 A 
ATOM     23  C   UNL     1      47.288   6.378  13.424  0.00  0.00    +0.000 A 
ATOM     24  S   UNL     1      46.604   7.540  12.375  0.00  0.00    +0.000 S 
ATOM     25  C   UNL     1      45.183   6.623  12.192  0.00  0.00    +0.000 A 
ATOM     26  N   UNL     1      44.168   7.040  11.386  0.00  0.00    +0.000 NA
ATOM     27  C   UNL     1      43.172   6.221  11.315  0.00  0.00    +0.000 A 
ATOM     28  N   UNL     1      43.089   5.026  11.981  0.00  0.00    +0.000 N 
ATOM     29  C   UNL     1      44.052   4.596  12.853  0.00  0.00    +0.000 A 
ATOM     30  O   UNL     1      43.875   3.582  13.528  0.00  0.00    +0.000 OA
ATOM     31  C   UNL     1      45.213   5.461  12.937  0.00  0.00    +0.000 A 
ATOM     32  H   UNL     1      42.266   4.444  11.917  0.00  0.00    +0.000 HD
ENDBRANCH  19  22
ENDBRANCH   1  20
TORSDOF 7
ENDMDL
