MODEL 1
REMARK VINA RESULT:    -8.223      0.000      0.000
REMARK INTER + INTRA:         -13.806
REMARK INTER:                 -12.789
REMARK INTRA:                  -1.016
REMARK UNBOUND:                -1.016
REMARK  Name = 
REMARK  10 active torsions:
REMARK  status: ('A' for Active; 'I' for Inactive)
REMARK    1  A    between atoms: N_1  and  C_2
REMARK    2  A    between atoms: C_2  and  C_3
REMARK    3  A    between atoms: C_3  and  C_4
REMARK    4  A    between atoms: C_4  and  N_5
REMARK    5  A    between atoms: C_4  and  C_27
REMARK    6  A    between atoms: N_5  and  C_6
REMARK    7  A    between atoms: C_6  and  C_7
REMARK    8  A    between atoms: C_10  and  C_11
REMARK    9  A    between atoms: C_11  and  N_12
REMARK   10  A    between atoms: C_13  and  C_15
REMARK                            x       y       z     vdW  Elec       q    Type
REMARK                         _______ _______ _______ _____ _____    ______ ____
ROOT
ATOM      1  C   UNL     1      45.071   6.691  11.306  0.00  0.00    +0.000 A 
ATOM      2  N   UNL     1      44.614   7.747  12.012  0.00  0.00    +0.000 NA
ATOM      3  C   UNL     1      45.531   8.425  12.734  0.00  0.00    +0.000 A 
ATOM      4  C   UNL     1      46.875   8.114  12.773  0.00  0.00    +0.000 A 
ATOM      5  C   UNL     1      47.240   7.047  11.982  0.00  0.00    +0.000 A 
ATOM      6  N   UNL     1      46.370   6.324  11.248  0.00  0.00    +0.000 NA
ENDROOT
BRANCH   1   7
ATOM      7  C   UNL     1      44.037   5.729  10.732  0.00  0.00    +0.000 C 
BRANCH   7   8
ATOM      8  N   UNL     1      44.414   5.029   9.488  0.00  0.00    +0.000 NA
ATOM      9  H   UNL     1      43.708   5.224   8.779  0.00  0.00    +0.000 HD
BRANCH   8  10
ATOM     10  C   UNL     1      44.512   3.558   9.684  0.00  0.00    +0.000 C 
BRANCH  10  11
ATOM     11  C   UNL     1      45.413   2.885   8.633  0.00  0.00    +0.000 A 
ATOM     12  C   UNL     1      46.027   3.646   7.638  0.00  0.00    +0.000 A 
ATOM     13  C   UNL     1      46.886   3.014   6.741  0.00  0.00    +0.000 A 
ATOM     14  C   UNL     1      47.123   1.650   6.864  0.00  0.00    +0.000 A 
ATOM     15  C   UNL     1      46.489   0.967   7.885  0.00  0.00    +0.000 A 
ATOM     16  N   UNL     1      45.650   1.550   8.765  0.00  0.00    +0.000 NA
ENDBRANCH  10  11
BRANCH  10  17
ATOM     17  C   UNL     1      44.949   3.098  11.101  0.00  0.00    +0.000 C 
BRANCH  17  18
ATOM     18  C   UNL     1      43.838   2.837  12.112  0.00  0.00    +0.000 C 
BRANCH  18  19
ATOM     19  N   UNL     1      43.025   1.678  11.764  0.00  0.00    +0.000 NA
ATOM     20  H   UNL     1      42.059   1.857  12.040  0.00  0.00    +0.000 HD
ATOM     21  H   UNL     1      43.324   0.873  12.315  0.00  0.00    +0.000 HD
ENDBRANCH  18  19
ENDBRANCH  17  18
ENDBRANCH  10  17
ENDBRANCH   8  10
ENDBRANCH   7   8
ENDBRANCH   1   7
BRANCH   4  22
ATOM     22  C   UNL     1      47.835   8.834  13.661  0.00  0.00    +0.000 C 
BRANCH  22  23
ATOM     23  N   UNL     1      47.944   8.202  14.954  0.00  0.00    +0.000 N 
ATOM     24  C   UNL     1      48.937   7.291  15.222  0.00  0.00    +0.000 C 
ATOM     25  O   UNL     1      49.792   7.016  14.387  0.00  0.00    +0.000 OA
ATOM     26  H   UNL     1      47.409   8.595  15.724  0.00  0.00    +0.000 HD
BRANCH  24  27
ATOM     27  C   UNL     1      48.877   6.599  16.518  0.00  0.00    +0.000 A 
ATOM     28  C   UNL     1      49.459   7.167  17.645  0.00  0.00    +0.000 A 
ATOM     29  S   UNL     1      49.559   6.094  18.970  0.00  0.00    +0.000 S 
ATOM     30  C   UNL     1      48.782   4.860  18.095  0.00  0.00    +0.000 A 
ATOM     31  N   UNL     1      48.649   3.603  18.599  0.00  0.00    +0.000 NA
ATOM     32  C   UNL     1      48.012   2.784  17.829  0.00  0.00    +0.000 A 
ATOM     33  N   UNL     1      47.450   3.119  16.623  0.00  0.00    +0.000 N 
ATOM     34  C   UNL     1      47.516   4.388  16.104  0.00  0.00    +0.000 A 
ATOM     35  O   UNL     1      46.896   4.707  15.090  0.00  0.00    +0.000 OA
ATOM     36  C   UNL     1      48.342   5.306  16.863  0.00  0.00    +0.000 A 
ATOM     37  H   UNL     1      46.891   2.455  16.110  0.00  0.00    +0.000 HD
ENDBRANCH  24  27
ENDBRANCH  22  23
ENDBRANCH   4  22
TORSDOF 10
ENDMDL
MODEL 2
REMARK VINA RESULT:    -8.103      2.766      3.663
REMARK INTER + INTRA:         -13.620
REMARK INTER:                 -12.193
REMARK INTRA:                  -1.427
REMARK UNBOUND:                -1.016
REMARK  Name = 
REMARK  10 active torsions:
REMARK  status: ('A' for Active; 'I' for Inactive)
REMARK    1  A    between atoms: N_1  and  C_2
REMARK    2  A    between atoms: C_2  and  C_3
REMARK    3  A    between atoms: C_3  and  C_4
REMARK    4  A    between atoms: C_4  and  N_5
REMARK    5  A    between atoms: C_4  and  C_27
REMARK    6  A    between atoms: N_5  and  C_6
REMARK    7  A    between atoms: C_6  and  C_7
REMARK    8  A    between atoms: C_10  and  C_11
REMARK    9  A    between atoms: C_11  and  N_12
REMARK   10  A    between atoms: C_13  and  C_15
REMARK                            x       y       z     vdW  Elec       q    Type
REMARK                         _______ _______ _______ _____ _____    ______ ____
ROOT
ATOM      1  C   UNL     1      46.939   4.887  13.560  0.00  0.00    +0.000 A 
ATOM      2  N   UNL     1      47.771   5.918  13.301  0.00  0.00    +0.000 NA
ATOM      3  C   UNL     1      48.414   6.449  14.362  0.00  0.00    +0.000 A 
ATOM      4  C   UNL     1      48.281   5.996  15.658  0.00  0.00    +0.000 A 
ATOM      5  C   UNL     1      47.442   4.913  15.804  0.00  0.00    +0.000 A 
ATOM      6  N   UNL     1      46.764   4.345  14.786  0.00  0.00    +0.000 NA
ENDROOT
BRANCH   1   7
ATOM      7  C   UNL     1      45.976   4.465  12.456  0.00  0.00    +0.000 C 
BRANCH   7   8
ATOM      8  N   UNL     1      45.685   5.475  11.419  0.00  0.00    +0.000 NA
ATOM      9  H   UNL     1      45.326   6.314  11.875  0.00  0.00    +0.000 HD
BRANCH   8  10
ATOM     10  C   UNL     1      44.682   4.991  10.434  0.00  0.00    +0.000 C 
BRANCH  10  11
ATOM     11  C   UNL     1      45.287   4.010   9.415  0.00  0.00    +0.000 A 
ATOM     12  C   UNL     1      45.103   2.635   9.563  0.00  0.00    +0.000 A 
ATOM     13  C   UNL     1      45.611   1.779   8.588  0.00  0.00    +0.000 A 
ATOM     14  C   UNL     1      46.273   2.310   7.488  0.00  0.00    +0.000 A 
ATOM     15  C   UNL     1      46.403   3.683   7.404  0.00  0.00    +0.000 A 
ATOM     16  N   UNL     1      45.927   4.536   8.333  0.00  0.00    +0.000 NA
ENDBRANCH  10  11
BRANCH  10  17
ATOM     17  C   UNL     1      43.394   4.369  11.039  0.00  0.00    +0.000 C 
BRANCH  17  18
ATOM     18  C   UNL     1      42.431   5.324  11.736  0.00  0.00    +0.000 C 
BRANCH  18  19
ATOM     19  N   UNL     1      42.609   6.707  11.311  0.00  0.00    +0.000 NA
ATOM     20  H   UNL     1      42.720   6.730  10.297  0.00  0.00    +0.000 HD
ATOM     21  H   UNL     1      43.484   7.071  11.691  0.00  0.00    +0.000 HD
ENDBRANCH  18  19
ENDBRANCH  17  18
ENDBRANCH  10  17
ENDBRANCH   8  10
ENDBRANCH   7   8
ENDBRANCH   1   7
BRANCH   4  22
ATOM     22  C   UNL     1      48.939   6.676  16.812  0.00  0.00    +0.000 C 
BRANCH  22  23
ATOM     23  N   UNL     1      49.767   5.766  17.567  0.00  0.00    +0.000 N 
ATOM     24  C   UNL     1      51.114   5.653  17.319  0.00  0.00    +0.000 C 
ATOM     25  O   UNL     1      51.668   6.353  16.478  0.00  0.00    +0.000 OA
ATOM     26  H   UNL     1      49.384   5.367  18.420  0.00  0.00    +0.000 HD
BRANCH  24  27
ATOM     27  C   UNL     1      51.841   4.598  18.041  0.00  0.00    +0.000 A 
ATOM     28  C   UNL     1      52.823   4.930  18.965  0.00  0.00    +0.000 A 
ATOM     29  S   UNL     1      53.761   3.594  19.468  0.00  0.00    +0.000 S 
ATOM     30  C   UNL     1      52.848   2.528  18.507  0.00  0.00    +0.000 A 
ATOM     31  N   UNL     1      53.193   1.219  18.368  0.00  0.00    +0.000 NA
ATOM     32  C   UNL     1      52.389   0.530  17.628  0.00  0.00    +0.000 A 
ATOM     33  N   UNL     1      51.240   1.017  17.057  0.00  0.00    +0.000 N 
ATOM     34  C   UNL     1      50.829   2.316  17.216  0.00  0.00    +0.000 A 
ATOM     35  O   UNL     1      49.733   2.704  16.812  0.00  0.00    +0.000 OA
ATOM     36  C   UNL     1      51.771   3.164  17.918  0.00  0.00    +0.000 A 
ATOM     37  H   UNL     1      50.609   0.406  16.562  0.00  0.00    +0.000 HD
ENDBRANCH  24  27
ENDBRANCH  22  23
ENDBRANCH   4  22
TORSDOF 10
ENDMDL
MODEL 3
REMARK VINA RESULT:    -7.550      3.000      7.838
REMARK INTER + INTRA:         -12.759
REMARK INTER:                 -11.194
REMARK INTRA:                  -1.566
REMARK UNBOUND:                -1.016
REMARK  Name = 
REMARK  10 active torsions:
REMARK  status: ('A' for Active; 'I' for Inactive)
REMARK    1  A    between atoms: N_1  and  C_2
REMARK    2  A    between atoms: C_2  and  C_3
REMARK    3  A    between atoms: C_3  and  C_4
REMARK    4  A    between atoms: C_4  and  N_5
REMARK    5  A    between atoms: C_4  and  C_27
REMARK    6  A    between atoms: N_5  and  C_6
REMARK    7  A    between atoms: C_6  and  C_7
REMARK    8  A    between atoms: C_10  and  C_11
REMARK    9  A    between atoms: C_11  and  N_12
REMARK   10  A    between atoms: C_13  and  C_15
REMARK                            x       y       z     vdW  Elec       q    Type
REMARK                         _______ _______ _______ _____ _____    ______ ____
ROOT
ATOM      1  C   UNL     1      48.856   7.042  16.310  0.00  0.00    +0.000 A 
ATOM      2  N   UNL     1      48.827   6.111  15.334  0.00  0.00    +0.000 NA
ATOM      3  C   UNL     1      48.522   6.552  14.095  0.00  0.00    +0.000 A 
ATOM      4  C   UNL     1      48.262   7.871  13.782  0.00  0.00    +0.000 A 
ATOM      5  C   UNL     1      48.362   8.743  14.843  0.00  0.00    +0.000 A 
ATOM      6  N   UNL     1      48.652   8.362  16.104  0.00  0.00    +0.000 NA
ENDROOT
BRANCH   1   7
ATOM      7  C   UNL     1      48.893   6.549  17.752  0.00  0.00    +0.000 C 
BRANCH   7   8
ATOM      8  N   UNL     1      49.935   5.555  18.078  0.00  0.00    +0.000 NA
ATOM      9  H   UNL     1      50.821   5.875  17.691  0.00  0.00    +0.000 HD
BRANCH   8  10
ATOM     10  C   UNL     1      49.619   4.213  17.521  0.00  0.00    +0.000 C 
BRANCH  10  11
ATOM     11  C   UNL     1      50.814   3.248  17.601  0.00  0.00    +0.000 A 
ATOM     12  C   UNL     1      52.053   3.695  18.061  0.00  0.00    +0.000 A 
ATOM     13  C   UNL     1      53.097   2.780  18.180  0.00  0.00    +0.000 A 
ATOM     14  C   UNL     1      52.881   1.447  17.853  0.00  0.00    +0.000 A 
ATOM     15  C   UNL     1      51.622   1.078  17.418  0.00  0.00    +0.000 A 
ATOM     16  N   UNL     1      50.593   1.940  17.288  0.00  0.00    +0.000 NA
ENDBRANCH  10  11
BRANCH  10  17
ATOM     17  C   UNL     1      48.362   3.520  18.114  0.00  0.00    +0.000 C 
BRANCH  17  18
ATOM     18  C   UNL     1      47.210   3.245  17.153  0.00  0.00    +0.000 C 
BRANCH  18  19
ATOM     19  N   UNL     1      47.600   3.391  15.756  0.00  0.00    +0.000 NA
ATOM     20  H   UNL     1      47.553   4.378  15.501  0.00  0.00    +0.000 HD
ATOM     21  H   UNL     1      46.918   2.921  15.160  0.00  0.00    +0.000 HD
ENDBRANCH  18  19
ENDBRANCH  17  18
ENDBRANCH  10  17
ENDBRANCH   8  10
ENDBRANCH   7   8
ENDBRANCH   1   7
BRANCH   4  22
ATOM     22  C   UNL     1      47.836   8.297  12.416  0.00  0.00    +0.000 C 
BRANCH  22  23
ATOM     23  N   UNL     1      47.355   7.182  11.635  0.00  0.00    +0.000 N 
ATOM     24  C   UNL     1      46.016   6.875  11.578  0.00  0.00    +0.000 C 
ATOM     25  O   UNL     1      45.180   7.564  12.153  0.00  0.00    +0.000 OA
ATOM     26  H   UNL     1      47.990   6.759  10.964  0.00  0.00    +0.000 HD
BRANCH  24  27
ATOM     27  C   UNL     1      45.643   5.639  10.874  0.00  0.00    +0.000 A 
ATOM     28  C   UNL     1      45.790   5.546   9.496  0.00  0.00    +0.000 A 
ATOM     29  S   UNL     1      45.027   4.173   8.824  0.00  0.00    +0.000 S 
ATOM     30  C   UNL     1      44.526   3.638  10.359  0.00  0.00    +0.000 A 
ATOM     31  N   UNL     1      43.707   2.562  10.507  0.00  0.00    +0.000 NA
ATOM     32  C   UNL     1      43.436   2.262  11.734  0.00  0.00    +0.000 A 
ATOM     33  N   UNL     1      43.951   2.907  12.830  0.00  0.00    +0.000 N 
ATOM     34  C   UNL     1      44.822   3.962  12.725  0.00  0.00    +0.000 A 
ATOM     35  O   UNL     1      45.380   4.444  13.710  0.00  0.00    +0.000 OA
ATOM     36  C   UNL     1      45.044   4.426  11.370  0.00  0.00    +0.000 A 
ATOM     37  H   UNL     1      43.769   2.569  13.763  0.00  0.00    +0.000 HD
ENDBRANCH  24  27
ENDBRANCH  22  23
ENDBRANCH   4  22
TORSDOF 10
ENDMDL
MODEL 4
REMARK VINA RESULT:    -7.389      1.993      2.278
REMARK INTER + INTRA:         -12.509
REMARK INTER:                 -10.968
REMARK INTRA:                  -1.541
REMARK UNBOUND:                -1.016
REMARK  Name = 
REMARK  10 active torsions:
REMARK  status: ('A' for Active; 'I' for Inactive)
REMARK    1  A    between atoms: N_1  and  C_2
REMARK    2  A    between atoms: C_2  and  C_3
REMARK    3  A    between atoms: C_3  and  C_4
REMARK    4  A    between atoms: C_4  and  N_5
REMARK    5  A    between atoms: C_4  and  C_27
REMARK    6  A    between atoms: N_5  and  C_6
REMARK    7  A    between atoms: C_6  and  C_7
REMARK    8  A    between atoms: C_10  and  C_11
REMARK    9  A    between atoms: C_11  and  N_12
REMARK   10  A    between atoms: C_13  and  C_15
REMARK                            x       y       z     vdW  Elec       q    Type
REMARK                         _______ _______ _______ _____ _____    ______ ____
ROOT
ATOM      1  C   UNL     1      46.831   7.216  12.290  0.00  0.00    +0.000 A 
ATOM      2  N   UNL     1      46.467   8.321  12.975  0.00  0.00    +0.000 NA
ATOM      3  C   UNL     1      47.260   8.670  14.011  0.00  0.00    +0.000 A 
ATOM      4  C   UNL     1      48.399   7.985  14.384  0.00  0.00    +0.000 A 
ATOM      5  C   UNL     1      48.701   6.901  13.591  0.00  0.00    +0.000 A 
ATOM      6  N   UNL     1      47.944   6.495  12.551  0.00  0.00    +0.000 NA
ENDROOT
BRANCH   1   7
ATOM      7  C   UNL     1      45.813   6.620  11.324  0.00  0.00    +0.000 C 
BRANCH   7   8
ATOM      8  N   UNL     1      45.617   5.159  11.397  0.00  0.00    +0.000 NA
ATOM      9  H   UNL     1      46.510   4.703  11.212  0.00  0.00    +0.000 HD
BRANCH   8  10
ATOM     10  C   UNL     1      44.614   4.681  10.409  0.00  0.00    +0.000 C 
BRANCH  10  11
ATOM     11  C   UNL     1      45.246   3.820   9.300  0.00  0.00    +0.000 A 
ATOM     12  C   UNL     1      45.912   4.422   8.233  0.00  0.00    +0.000 A 
ATOM     13  C   UNL     1      46.526   3.613   7.279  0.00  0.00    +0.000 A 
ATOM     14  C   UNL     1      46.475   2.231   7.419  0.00  0.00    +0.000 A 
ATOM     15  C   UNL     1      45.809   1.709   8.511  0.00  0.00    +0.000 A 
ATOM     16  N   UNL     1      45.202   2.467   9.448  0.00  0.00    +0.000 NA
ENDBRANCH  10  11
BRANCH  10  17
ATOM     17  C   UNL     1      43.392   3.930  11.004  0.00  0.00    +0.000 C 
BRANCH  17  18
ATOM     18  C   UNL     1      43.530   3.415  12.433  0.00  0.00    +0.000 C 
BRANCH  18  19
ATOM     19  N   UNL     1      44.683   2.540  12.604  0.00  0.00    +0.000 NA
ATOM     20  H   UNL     1      44.810   2.351  13.598  0.00  0.00    +0.000 HD
ATOM     21  H   UNL     1      45.529   3.027  12.306  0.00  0.00    +0.000 HD
ENDBRANCH  18  19
ENDBRANCH  17  18
ENDBRANCH  10  17
ENDBRANCH   8  10
ENDBRANCH   7   8
ENDBRANCH   1   7
BRANCH   4  22
ATOM     22  C   UNL     1      49.190   8.355  15.594  0.00  0.00    +0.000 C 
BRANCH  22  23
ATOM     23  N   UNL     1      49.922   7.227  16.118  0.00  0.00    +0.000 N 
ATOM     24  C   UNL     1      49.507   6.569  17.251  0.00  0.00    +0.000 C 
ATOM     25  O   UNL     1      48.476   6.891  17.832  0.00  0.00    +0.000 OA
ATOM     26  H   UNL     1      50.625   6.795  15.523  0.00  0.00    +0.000 HD
BRANCH  24  27
ATOM     27  C   UNL     1      50.397   5.527  17.783  0.00  0.00    +0.000 A 
ATOM     28  C   UNL     1      51.530   5.875  18.508  0.00  0.00    +0.000 A 
ATOM     29  S   UNL     1      52.593   4.565  18.776  0.00  0.00    +0.000 S 
ATOM     30  C   UNL     1      51.547   3.488  17.978  0.00  0.00    +0.000 A 
ATOM     31  N   UNL     1      51.903   2.198  17.733  0.00  0.00    +0.000 NA
ATOM     32  C   UNL     1      50.993   1.495  17.142  0.00  0.00    +0.000 A 
ATOM     33  N   UNL     1      49.739   1.950  16.822  0.00  0.00    +0.000 N 
ATOM     34  C   UNL     1      49.322   3.227  17.099  0.00  0.00    +0.000 A 
ATOM     35  O   UNL     1      48.156   3.581  16.929  0.00  0.00    +0.000 OA
ATOM     36  C   UNL     1      50.354   4.095  17.631  0.00  0.00    +0.000 A 
ATOM     37  H   UNL     1      49.044   1.326  16.440  0.00  0.00    +0.000 HD
ENDBRANCH  24  27
ENDBRANCH  22  23
ENDBRANCH   4  22
TORSDOF 10
ENDMDL
MODEL 5
REMARK VINA RESULT:    -7.342      1.516      1.995
REMARK INTER + INTRA:         -12.436
REMARK INTER:                 -11.468
REMARK INTRA:                  -0.969
REMARK UNBOUND:                -1.016
REMARK  Name = 
REMARK  10 active torsions:
REMARK  status: ('A' for Active; 'I' for Inactive)
REMARK    1  A    between atoms: N_1  and  C_2
REMARK    2  A    between atoms: C_2  and  C_3
REMARK    3  A    between atoms: C_3  and  C_4
REMARK    4  A    between atoms: C_4  and  N_5
REMARK    5  A    between atoms: C_4  and  C_27
REMARK    6  A    between atoms: N_5  and  C_6
REMARK    7  A    between atoms: C_6  and  C_7
REMARK    8  A    between atoms: C_10  and  C_11
REMARK    9  A    between atoms: C_11  and  N_12
REMARK   10  A    between atoms: C_13  and  C_15
REMARK                            x       y       z     vdW  Elec       q    Type
REMARK                         _______ _______ _______ _____ _____    ______ ____
ROOT
ATOM      1  C   UNL     1      45.438   6.624  11.896  0.00  0.00    +0.000 A 
ATOM      2  N   UNL     1      46.432   5.856  12.390  0.00  0.00    +0.000 NA
ATOM      3  C   UNL     1      47.328   6.478  13.186  0.00  0.00    +0.000 A 
ATOM      4  C   UNL     1      47.271   7.814  13.525  0.00  0.00    +0.000 A 
ATOM      5  C   UNL     1      46.192   8.493  13.003  0.00  0.00    +0.000 A 
ATOM      6  N   UNL     1      45.272   7.931  12.193  0.00  0.00    +0.000 NA
ENDROOT
BRANCH   1   7
ATOM      7  C   UNL     1      44.596   6.042  10.765  0.00  0.00    +0.000 C 
BRANCH   7   8
ATOM      8  N   UNL     1      45.337   5.411   9.655  0.00  0.00    +0.000 NA
ATOM      9  H   UNL     1      45.180   5.957   8.809  0.00  0.00    +0.000 HD
BRANCH   8  10
ATOM     10  C   UNL     1      44.900   4.010   9.418  0.00  0.00    +0.000 C 
BRANCH  10  11
ATOM     11  C   UNL     1      45.743   3.307   8.339  0.00  0.00    +0.000 A 
ATOM     12  C   UNL     1      46.042   1.949   8.452  0.00  0.00    +0.000 A 
ATOM     13  C   UNL     1      46.755   1.329   7.427  0.00  0.00    +0.000 A 
ATOM     14  C   UNL     1      47.136   2.069   6.314  0.00  0.00    +0.000 A 
ATOM     15  C   UNL     1      46.790   3.406   6.268  0.00  0.00    +0.000 A 
ATOM     16  N   UNL     1      46.106   4.034   7.246  0.00  0.00    +0.000 NA
ENDBRANCH  10  11
BRANCH  10  17
ATOM     17  C   UNL     1      44.828   3.107  10.679  0.00  0.00    +0.000 C 
BRANCH  17  18
ATOM     18  C   UNL     1      43.445   2.866  11.274  0.00  0.00    +0.000 C 
BRANCH  18  19
ATOM     19  N   UNL     1      43.497   2.123  12.528  0.00  0.00    +0.000 NA
ATOM     20  H   UNL     1      44.468   2.062  12.835  0.00  0.00    +0.000 HD
ATOM     21  H   UNL     1      43.198   1.161  12.367  0.00  0.00    +0.000 HD
ENDBRANCH  18  19
ENDBRANCH  17  18
ENDBRANCH  10  17
ENDBRANCH   8  10
ENDBRANCH   7   8
ENDBRANCH   1   7
BRANCH   4  22
ATOM     22  C   UNL     1      48.337   8.478  14.332  0.00  0.00    +0.000 C 
BRANCH  22  23
ATOM     23  N   UNL     1      48.097   8.341  15.749  0.00  0.00    +0.000 N 
ATOM     24  C   UNL     1      49.072   7.871  16.595  0.00  0.00    +0.000 C 
ATOM     25  O   UNL     1      50.193   7.592  16.184  0.00  0.00    +0.000 OA
ATOM     26  H   UNL     1      47.275   8.794  16.140  0.00  0.00    +0.000 HD
BRANCH  24  27
ATOM     27  C   UNL     1      48.684   7.633  17.994  0.00  0.00    +0.000 A 
ATOM     28  C   UNL     1      48.570   8.697  18.880  0.00  0.00    +0.000 A 
ATOM     29  S   UNL     1      48.417   8.208  20.510  0.00  0.00    +0.000 S 
ATOM     30  C   UNL     1      48.447   6.565  20.073  0.00  0.00    +0.000 A 
ATOM     31  N   UNL     1      48.478   5.578  21.009  0.00  0.00    +0.000 NA
ATOM     32  C   UNL     1      48.471   4.380  20.523  0.00  0.00    +0.000 A 
ATOM     33  N   UNL     1      48.381   4.078  19.188  0.00  0.00    +0.000 N 
ATOM     34  C   UNL     1      48.294   5.043  18.215  0.00  0.00    +0.000 A 
ATOM     35  O   UNL     1      48.080   4.759  17.037  0.00  0.00    +0.000 OA
ATOM     36  C   UNL     1      48.442   6.400  18.700  0.00  0.00    +0.000 A 
ATOM     37  H   UNL     1      48.292   3.122  18.878  0.00  0.00    +0.000 HD
ENDBRANCH  24  27
ENDBRANCH  22  23
ENDBRANCH   4  22
TORSDOF 10
ENDMDL
MODEL 6
REMARK VINA RESULT:    -7.335      3.253      8.353
REMARK INTER + INTRA:         -12.424
REMARK INTER:                 -11.076
REMARK INTRA:                  -1.348
REMARK UNBOUND:                -1.016
REMARK  Name = 
REMARK  10 active torsions:
REMARK  status: ('A' for Active; 'I' for Inactive)
REMARK    1  A    between atoms: N_1  and  C_2
REMARK    2  A    between atoms: C_2  and  C_3
REMARK    3  A    between atoms: C_3  and  C_4
REMARK    4  A    between atoms: C_4  and  N_5
REMARK    5  A    between atoms: C_4  and  C_27
REMARK    6  A    between atoms: N_5  and  C_6
REMARK    7  A    between atoms: C_6  and  C_7
REMARK    8  A    between atoms: C_10  and  C_11
REMARK    9  A    between atoms: C_11  and  N_12
REMARK   10  A    between atoms: C_13  and  C_15
REMARK                            x       y       z     vdW  Elec       q    Type
REMARK                         _______ _______ _______ _____ _____    ______ ____
ROOT
ATOM      1  C   UNL     1      49.416   6.631  15.810  0.00  0.00    +0.000 A 
ATOM      2  N   UNL     1      48.333   5.932  15.408  0.00  0.00    +0.000 NA
ATOM      3  C   UNL     1      47.899   6.173  14.152  0.00  0.00    +0.000 A 
ATOM      4  C   UNL     1      48.497   7.058  13.279  0.00  0.00    +0.000 A 
ATOM      5  C   UNL     1      49.619   7.684  13.776  0.00  0.00    +0.000 A 
ATOM      6  N   UNL     1      50.095   7.494  15.023  0.00  0.00    +0.000 NA
ENDROOT
BRANCH   1   7
ATOM      7  C   UNL     1      49.749   6.617  17.298  0.00  0.00    +0.000 C 
BRANCH   7   8
ATOM      8  N   UNL     1      50.724   5.601  17.742  0.00  0.00    +0.000 NA
ATOM      9  H   UNL     1      51.577   5.709  17.193  0.00  0.00    +0.000 HD
BRANCH   8  10
ATOM     10  C   UNL     1      50.206   4.218  17.569  0.00  0.00    +0.000 C 
BRANCH  10  11
ATOM     11  C   UNL     1      51.310   3.156  17.714  0.00  0.00    +0.000 A 
ATOM     12  C   UNL     1      51.047   1.820  17.411  0.00  0.00    +0.000 A 
ATOM     13  C   UNL     1      52.086   0.894  17.494  0.00  0.00    +0.000 A 
ATOM     14  C   UNL     1      53.357   1.321  17.858  0.00  0.00    +0.000 A 
ATOM     15  C   UNL     1      53.542   2.664  18.129  0.00  0.00    +0.000 A 
ATOM     16  N   UNL     1      52.556   3.582  18.063  0.00  0.00    +0.000 NA
ENDBRANCH  10  11
BRANCH  10  17
ATOM     17  C   UNL     1      49.005   3.834  18.475  0.00  0.00    +0.000 C 
BRANCH  17  18
ATOM     18  C   UNL     1      47.677   3.562  17.778  0.00  0.00    +0.000 C 
BRANCH  18  19
ATOM     19  N   UNL     1      46.725   4.655  17.940  0.00  0.00    +0.000 NA
ATOM     20  H   UNL     1      47.180   5.530  17.677  0.00  0.00    +0.000 HD
ATOM     21  H   UNL     1      46.485   4.756  18.926  0.00  0.00    +0.000 HD
ENDBRANCH  18  19
ENDBRANCH  17  18
ENDBRANCH  10  17
ENDBRANCH   8  10
ENDBRANCH   7   8
ENDBRANCH   1   7
BRANCH   4  22
ATOM     22  C   UNL     1      47.924   7.361  11.934  0.00  0.00    +0.000 C 
BRANCH  22  23
ATOM     23  N   UNL     1      47.007   6.334  11.501  0.00  0.00    +0.000 N 
ATOM     24  C   UNL     1      45.648   6.541  11.507  0.00  0.00    +0.000 C 
ATOM     25  O   UNL     1      45.170   7.621  11.839  0.00  0.00    +0.000 OA
ATOM     26  H   UNL     1      47.386   5.537  10.996  0.00  0.00    +0.000 HD
BRANCH  24  27
ATOM     27  C   UNL     1      44.795   5.388  11.185  0.00  0.00    +0.000 A 
ATOM     28  C   UNL     1      43.757   5.025  12.035  0.00  0.00    +0.000 A 
ATOM     29  S   UNL     1      43.081   3.500  11.666  0.00  0.00    +0.000 S 
ATOM     30  C   UNL     1      44.117   3.306  10.332  0.00  0.00    +0.000 A 
ATOM     31  N   UNL     1      44.159   2.147   9.623  0.00  0.00    +0.000 NA
ATOM     32  C   UNL     1      44.976   2.161   8.622  0.00  0.00    +0.000 A 
ATOM     33  N   UNL     1      45.717   3.247   8.233  0.00  0.00    +0.000 N 
ATOM     34  C   UNL     1      45.665   4.452   8.888  0.00  0.00    +0.000 A 
ATOM     35  O   UNL     1      46.230   5.454   8.451  0.00  0.00    +0.000 OA
ATOM     36  C   UNL     1      44.872   4.442  10.101  0.00  0.00    +0.000 A 
ATOM     37  H   UNL     1      46.271   3.221   7.390  0.00  0.00    +0.000 HD
ENDBRANCH  24  27
ENDBRANCH  22  23
ENDBRANCH   4  22
TORSDOF 10
ENDMDL
MODEL 7
REMARK VINA RESULT:    -6.337      3.080      4.847
REMARK INTER + INTRA:         -10.872
REMARK INTER:                  -9.738
REMARK INTRA:                  -1.134
REMARK UNBOUND:                -1.016
REMARK  Name = 
REMARK  10 active torsions:
REMARK  status: ('A' for Active; 'I' for Inactive)
REMARK    1  A    between atoms: N_1  and  C_2
REMARK    2  A    between atoms: C_2  and  C_3
REMARK    3  A    between atoms: C_3  and  C_4
REMARK    4  A    between atoms: C_4  and  N_5
REMARK    5  A    between atoms: C_4  and  C_27
REMARK    6  A    between atoms: N_5  and  C_6
REMARK    7  A    between atoms: C_6  and  C_7
REMARK    8  A    between atoms: C_10  and  C_11
REMARK    9  A    between atoms: C_11  and  N_12
REMARK   10  A    between atoms: C_13  and  C_15
REMARK                            x       y       z     vdW  Elec       q    Type
REMARK                         _______ _______ _______ _____ _____    ______ ____
ROOT
ATOM      1  C   UNL     1      47.390   4.460  14.164  0.00  0.00    +0.000 A 
ATOM      2  N   UNL     1      47.824   5.610  14.721  0.00  0.00    +0.000 NA
ATOM      3  C   UNL     1      48.178   5.549  16.022  0.00  0.00    +0.000 A 
ATOM      4  C   UNL     1      48.135   4.401  16.786  0.00  0.00    +0.000 A 
ATOM      5  C   UNL     1      47.720   3.276  16.108  0.00  0.00    +0.000 A 
ATOM      6  N   UNL     1      47.344   3.275  14.813  0.00  0.00    +0.000 NA
ENDROOT
BRANCH   1   7
ATOM      7  C   UNL     1      46.702   4.551  12.807  0.00  0.00    +0.000 C 
BRANCH   7   8
ATOM      8  N   UNL     1      45.387   3.889  12.693  0.00  0.00    +0.000 NA
ATOM      9  H   UNL     1      45.538   2.894  12.533  0.00  0.00    +0.000 HD
BRANCH   8  10
ATOM     10  C   UNL     1      44.578   4.444  11.576  0.00  0.00    +0.000 C 
BRANCH  10  11
ATOM     11  C   UNL     1      45.000   3.879  10.208  0.00  0.00    +0.000 A 
ATOM     12  C   UNL     1      45.495   4.726   9.217  0.00  0.00    +0.000 A 
ATOM     13  C   UNL     1      45.925   4.173   8.012  0.00  0.00    +0.000 A 
ATOM     14  C   UNL     1      45.867   2.797   7.831  0.00  0.00    +0.000 A 
ATOM     15  C   UNL     1      45.378   2.022   8.865  0.00  0.00    +0.000 A 
ATOM     16  N   UNL     1      44.949   2.528  10.040  0.00  0.00    +0.000 NA
ENDBRANCH  10  11
BRANCH  10  17
ATOM     17  C   UNL     1      43.039   4.310  11.732  0.00  0.00    +0.000 C 
BRANCH  17  18
ATOM     18  C   UNL     1      42.250   5.603  11.903  0.00  0.00    +0.000 C 
BRANCH  18  19
ATOM     19  N   UNL     1      42.698   6.656  11.000  0.00  0.00    +0.000 NA
ATOM     20  H   UNL     1      41.936   7.322  10.864  0.00  0.00    +0.000 HD
ATOM     21  H   UNL     1      42.883   6.259  10.078  0.00  0.00    +0.000 HD
ENDBRANCH  18  19
ENDBRANCH  17  18
ENDBRANCH  10  17
ENDBRANCH   8  10
ENDBRANCH   7   8
ENDBRANCH   1   7
BRANCH   4  22
ATOM     22  C   UNL     1      48.446   4.402  18.246  0.00  0.00    +0.000 C 
BRANCH  22  23
ATOM     23  N   UNL     1      48.844   5.712  18.705  0.00  0.00    +0.000 N 
ATOM     24  C   UNL     1      48.089   6.408  19.619  0.00  0.00    +0.000 C 
ATOM     25  O   UNL     1      47.074   5.923  20.109  0.00  0.00    +0.000 OA
ATOM     26  H   UNL     1      49.792   6.020  18.506  0.00  0.00    +0.000 HD
BRANCH  24  27
ATOM     27  C   UNL     1      48.502   7.788  19.913  0.00  0.00    +0.000 A 
ATOM     28  C   UNL     1      47.563   8.812  19.931  0.00  0.00    +0.000 A 
ATOM     29  S   UNL     1      48.260  10.371  19.983  0.00  0.00    +0.000 S 
ATOM     30  C   UNL     1      49.831   9.722  20.037  0.00  0.00    +0.000 A 
ATOM     31  N   UNL     1      50.933  10.515  19.970  0.00  0.00    +0.000 NA
ATOM     32  C   UNL     1      52.055   9.879  20.050  0.00  0.00    +0.000 A 
ATOM     33  N   UNL     1      52.176   8.526  20.243  0.00  0.00    +0.000 N 
ATOM     34  C   UNL     1      51.089   7.697  20.369  0.00  0.00    +0.000 A 
ATOM     35  O   UNL     1      51.209   6.512  20.675  0.00  0.00    +0.000 OA
ATOM     36  C   UNL     1      49.811   8.343  20.144  0.00  0.00    +0.000 A 
ATOM     37  H   UNL     1      53.080   8.102  20.384  0.00  0.00    +0.000 HD
ENDBRANCH  24  27
ENDBRANCH  22  23
ENDBRANCH   4  22
TORSDOF 10
ENDMDL
MODEL 8
REMARK VINA RESULT:    -6.246      3.309      3.971
REMARK INTER + INTRA:         -10.731
REMARK INTER:                  -9.715
REMARK INTRA:                  -1.015
REMARK UNBOUND:                -1.016
REMARK  Name = 
REMARK  10 active torsions:
REMARK  status: ('A' for Active; 'I' for Inactive)
REMARK    1  A    between atoms: N_1  and  C_2
REMARK    2  A    between atoms: C_2  and  C_3
REMARK    3  A    between atoms: C_3  and  C_4
REMARK    4  A    between atoms: C_4  and  N_5
REMARK    5  A    between atoms: C_4  and  C_27
REMARK    6  A    between atoms: N_5  and  C_6
REMARK    7  A    between atoms: C_6  and  C_7
REMARK    8  A    between atoms: C_10  and  C_11
REMARK    9  A    between atoms: C_11  and  N_12
REMARK   10  A    between atoms: C_13  and  C_15
REMARK                            x       y       z     vdW  Elec       q    Type
REMARK                         _______ _______ _______ _____ _____    ______ ____
ROOT
ATOM      1  C   UNL     1      46.628   5.263  13.403  0.00  0.00    +0.000 A 
ATOM      2  N   UNL     1      46.816   6.138  12.393  0.00  0.00    +0.000 NA
ATOM      3  C   UNL     1      47.825   7.022  12.547  0.00  0.00    +0.000 A 
ATOM      4  C   UNL     1      48.661   7.063  13.644  0.00  0.00    +0.000 A 
ATOM      5  C   UNL     1      48.409   6.098  14.594  0.00  0.00    +0.000 A 
ATOM      6  N   UNL     1      47.410   5.197  14.503  0.00  0.00    +0.000 NA
ENDROOT
BRANCH   1   7
ATOM      7  C   UNL     1      45.330   4.463  13.408  0.00  0.00    +0.000 C 
BRANCH   7   8
ATOM      8  N   UNL     1      45.098   3.583  12.245  0.00  0.00    +0.000 NA
ATOM      9  H   UNL     1      45.965   3.092  12.032  0.00  0.00    +0.000 HD
BRANCH   8  10
ATOM     10  C   UNL     1      44.665   4.347  11.045  0.00  0.00    +0.000 C 
BRANCH  10  11
ATOM     11  C   UNL     1      45.155   3.707   9.734  0.00  0.00    +0.000 A 
ATOM     12  C   UNL     1      45.617   4.506   8.689  0.00  0.00    +0.000 A 
ATOM     13  C   UNL     1      46.111   3.891   7.539  0.00  0.00    +0.000 A 
ATOM     14  C   UNL     1      46.146   2.504   7.465  0.00  0.00    +0.000 A 
ATOM     15  C   UNL     1      45.683   1.781   8.548  0.00  0.00    +0.000 A 
ATOM     16  N   UNL     1      45.195   2.346   9.671  0.00  0.00    +0.000 NA
ENDBRANCH  10  11
BRANCH  10  17
ATOM     17  C   UNL     1      43.141   4.624  10.941  0.00  0.00    +0.000 C 
BRANCH  17  18
ATOM     18  C   UNL     1      42.662   6.008  11.367  0.00  0.00    +0.000 C 
BRANCH  18  19
ATOM     19  N   UNL     1      43.735   6.996  11.365  0.00  0.00    +0.000 NA
ATOM     20  H   UNL     1      44.387   6.777  12.119  0.00  0.00    +0.000 HD
ATOM     21  H   UNL     1      43.353   7.915  11.590  0.00  0.00    +0.000 HD
ENDBRANCH  18  19
ENDBRANCH  17  18
ENDBRANCH  10  17
ENDBRANCH   8  10
ENDBRANCH   7   8
ENDBRANCH   1   7
BRANCH   4  22
ATOM     22  C   UNL     1      49.702   8.119  13.813  0.00  0.00    +0.000 C 
BRANCH  22  23
ATOM     23  N   UNL     1      50.977   7.556  14.191  0.00  0.00    +0.000 N 
ATOM     24  C   UNL     1      51.464   7.685  15.469  0.00  0.00    +0.000 C 
ATOM     25  O   UNL     1      50.814   8.246  16.345  0.00  0.00    +0.000 OA
ATOM     26  H   UNL     1      51.408   6.885  13.560  0.00  0.00    +0.000 HD
BRANCH  24  27
ATOM     27  C   UNL     1      52.831   7.203  15.715  0.00  0.00    +0.000 A 
ATOM     28  C   UNL     1      53.906   7.768  15.040  0.00  0.00    +0.000 A 
ATOM     29  S   UNL     1      55.358   6.886  15.218  0.00  0.00    +0.000 S 
ATOM     30  C   UNL     1      54.606   5.756  16.242  0.00  0.00    +0.000 A 
ATOM     31  N   UNL     1      55.254   4.640  16.673  0.00  0.00    +0.000 NA
ATOM     32  C   UNL     1      54.561   3.892  17.466  0.00  0.00    +0.000 A 
ATOM     33  N   UNL     1      53.296   4.183  17.910  0.00  0.00    +0.000 N 
ATOM     34  C   UNL     1      52.627   5.323  17.541  0.00  0.00    +0.000 A 
ATOM     35  O   UNL     1      51.551   5.637  18.049  0.00  0.00    +0.000 OA
ATOM     36  C   UNL     1      53.306   6.123  16.541  0.00  0.00    +0.000 A 
ATOM     37  H   UNL     1      52.841   3.601  18.597  0.00  0.00    +0.000 HD
ENDBRANCH  24  27
ENDBRANCH  22  23
ENDBRANCH   4  22
TORSDOF 10
ENDMDL
MODEL 9
REMARK VINA RESULT:    -6.076      2.018      2.855
REMARK INTER + INTRA:         -10.467
REMARK INTER:                  -8.893
REMARK INTRA:                  -1.574
REMARK UNBOUND:                -1.016
REMARK  Name = 
REMARK  10 active torsions:
REMARK  status: ('A' for Active; 'I' for Inactive)
REMARK    1  A    between atoms: N_1  and  C_2
REMARK    2  A    between atoms: C_2  and  C_3
REMARK    3  A    between atoms: C_3  and  C_4
REMARK    4  A    between atoms: C_4  and  N_5
REMARK    5  A    between atoms: C_4  and  C_27
REMARK    6  A    between atoms: N_5  and  C_6
REMARK    7  A    between atoms: C_6  and  C_7
REMARK    8  A    between atoms: C_10  and  C_11
REMARK    9  A    between atoms: C_11  and  N_12
REMARK   10  A    between atoms: C_13  and  C_15
REMARK                            x       y       z     vdW  Elec       q    Type
REMARK                         _______ _______ _______ _____ _____    ______ ____
ROOT
ATOM      1  C   UNL     1      46.789   7.583  13.178  0.00  0.00    +0.000 A 
ATOM      2  N   UNL     1      47.552   6.562  13.621  0.00  0.00    +0.000 NA
ATOM      3  C   UNL     1      48.690   6.900  14.264  0.00  0.00    +0.000 A 
ATOM      4  C   UNL     1      49.093   8.199  14.499  0.00  0.00    +0.000 A 
ATOM      5  C   UNL     1      48.219   9.162  14.044  0.00  0.00    +0.000 A 
ATOM      6  N   UNL     1      47.074   8.887  13.386  0.00  0.00    +0.000 NA
ENDROOT
BRANCH   1   7
ATOM      7  C   UNL     1      45.671   7.251  12.195  0.00  0.00    +0.000 C 
BRANCH   7   8
ATOM      8  N   UNL     1      45.936   6.149  11.250  0.00  0.00    +0.000 NA
ATOM      9  H   UNL     1      46.351   6.539  10.404  0.00  0.00    +0.000 HD
BRANCH   8  10
ATOM     10  C   UNL     1      44.696   5.414  10.888  0.00  0.00    +0.000 C 
BRANCH  10  11
ATOM     11  C   UNL     1      44.944   4.330   9.824  0.00  0.00    +0.000 A 
ATOM     12  C   UNL     1      45.674   4.626   8.673  0.00  0.00    +0.000 A 
ATOM     13  C   UNL     1      45.933   3.606   7.759  0.00  0.00    +0.000 A 
ATOM     14  C   UNL     1      45.475   2.320   8.020  0.00  0.00    +0.000 A 
ATOM     15  C   UNL     1      44.772   2.102   9.189  0.00  0.00    +0.000 A 
ATOM     16  N   UNL     1      44.501   3.069  10.089  0.00  0.00    +0.000 NA
ENDBRANCH  10  11
BRANCH  10  17
ATOM     17  C   UNL     1      43.914   4.792  12.077  0.00  0.00    +0.000 C 
BRANCH  17  18
ATOM     18  C   UNL     1      44.717   4.463  13.332  0.00  0.00    +0.000 C 
BRANCH  18  19
ATOM     19  N   UNL     1      45.890   3.645  13.047  0.00  0.00    +0.000 NA
ATOM     20  H   UNL     1      46.709   4.084  13.469  0.00  0.00    +0.000 HD
ATOM     21  H   UNL     1      46.067   3.640  12.042  0.00  0.00    +0.000 HD
ENDBRANCH  18  19
ENDBRANCH  17  18
ENDBRANCH  10  17
ENDBRANCH   8  10
ENDBRANCH   7   8
ENDBRANCH   1   7
BRANCH   4  22
ATOM     22  C   UNL     1      50.406   8.524  15.130  0.00  0.00    +0.000 C 
BRANCH  22  23
ATOM     23  N   UNL     1      50.420   8.190  16.534  0.00  0.00    +0.000 N 
ATOM     24  C   UNL     1      51.245   7.207  17.025  0.00  0.00    +0.000 C 
ATOM     25  O   UNL     1      52.029   6.609  16.296  0.00  0.00    +0.000 OA
ATOM     26  H   UNL     1      49.970   8.831  17.183  0.00  0.00    +0.000 HD
BRANCH  24  27
ATOM     27  C   UNL     1      51.083   6.843  18.441  0.00  0.00    +0.000 A 
ATOM     28  C   UNL     1      52.095   7.111  19.354  0.00  0.00    +0.000 A 
ATOM     29  S   UNL     1      51.862   6.351  20.867  0.00  0.00    +0.000 S 
ATOM     30  C   UNL     1      50.380   5.687  20.362  0.00  0.00    +0.000 A 
ATOM     31  N   UNL     1      49.690   4.810  21.139  0.00  0.00    +0.000 NA
ATOM     32  C   UNL     1      48.569   4.414  20.632  0.00  0.00    +0.000 A 
ATOM     33  N   UNL     1      48.049   4.856  19.442  0.00  0.00    +0.000 N 
ATOM     34  C   UNL     1      48.688   5.780  18.654  0.00  0.00    +0.000 A 
ATOM     35  O   UNL     1      48.151   6.267  17.659  0.00  0.00    +0.000 OA
ATOM     36  C   UNL     1      50.014   6.146  19.110  0.00  0.00    +0.000 A 
ATOM     37  H   UNL     1      47.128   4.574  19.143  0.00  0.00    +0.000 HD
ENDBRANCH  24  27
ENDBRANCH  22  23
ENDBRANCH   4  22
TORSDOF 10
ENDMDL
