MODEL 1
REMARK VINA RESULT:    -8.236      0.000      0.000
REMARK INTER + INTRA:         -13.874
REMARK INTER:                 -12.810
REMARK INTRA:                  -1.064
REMARK UNBOUND:                -1.064
REMARK  Name = 
REMARK  11 active torsions:
REMARK  status: ('A' for Active; 'I' for Inactive)
REMARK    1  A    between atoms: C_1  and  O_2
REMARK    2  A    between atoms: O_2  and  C_3
REMARK    3  A    between atoms: C_10  and  C_11
REMARK    4  A    between atoms: N_13  and  C_14
REMARK    5  A    between atoms: C_14  and  C_15
REMARK    6  A    between atoms: C_18  and  C_19
REMARK    7  A    between atoms: C_19  and  N_20
REMARK    8  A    between atoms: N_20  and  CA_21
REMARK    9  A    between atoms: CA_21  and  C_22
REMARK   10  A    between atoms: CA_21  and  C_24
REMARK   11  A    between atoms: C_22  and  O_23
REMARK                            x       y       z     vdW  Elec       q    Type
REMARK                         _______ _______ _______ _____ _____    ______ ____
ROOT
ATOM      1  C   UNL     1      46.510   7.227  12.501  0.00  0.00    +0.000 A 
ATOM      2  C   UNL     1      46.875   6.597  11.303  0.00  0.00    +0.000 A 
ATOM      3  C   UNL     1      45.927   5.900  10.543  0.00  0.00    +0.000 A 
ATOM      4  C   UNL     1      44.586   5.824  10.952  0.00  0.00    +0.000 A 
ATOM      5  C   UNL     1      44.214   6.501  12.121  0.00  0.00    +0.000 A 
ATOM      6  C   UNL     1      45.162   7.199  12.883  0.00  0.00    +0.000 A 
ENDROOT
BRANCH   1   7
ATOM      7  C   UNL     1      47.540   7.931  13.352  0.00  0.00    +0.000 C 
BRANCH   7  10
ATOM      8  C   UNL     1      49.120   6.998  15.000  0.00  0.00    +0.000 C 
ATOM      9  O   UNL     1      50.086   7.455  14.394  0.00  0.00    +0.000 OA
ATOM     10  N   UNL     1      47.840   7.189  14.550  0.00  0.00    +0.000 N 
ATOM     11  H   UNL     1      47.062   6.796  15.056  0.00  0.00    +0.000 HD
BRANCH   8  19
ATOM     12  C   UNL     1      47.444   4.308  16.340  0.00  0.00    +0.000 A 
ATOM     13  N   UNL     1      47.007   3.250  17.049  0.00  0.00    +0.000 NA
ATOM     14  C   UNL     1      47.647   2.949  18.181  0.00  0.00    +0.000 A 
ATOM     15  N   UNL     1      48.685   3.589  18.712  0.00  0.00    +0.000 NA
ATOM     16  C   UNL     1      49.097   4.630  17.965  0.00  0.00    +0.000 A 
ATOM     17  S   UNL     1      50.409   5.570  18.491  0.00  0.00    +0.000 S 
ATOM     18  C   UNL     1      50.306   6.569  17.118  0.00  0.00    +0.000 A 
ATOM     19  C   UNL     1      49.291   6.213  16.237  0.00  0.00    +0.000 A 
ATOM     20  C   UNL     1      48.558   5.062  16.760  0.00  0.00    +0.000 A 
BRANCH  12  22
ATOM     21  C   UNL     1      47.009   3.654  14.137  0.00  0.00    +0.000 C 
ATOM     22  O   UNL     1      46.797   4.617  15.164  0.00  0.00    +0.000 OA
ENDBRANCH  12  22
ENDBRANCH   8  19
ENDBRANCH   7  10
ENDBRANCH   1   7
BRANCH   4  23
ATOM     23  C   UNL     1      43.562   5.060  10.131  0.00  0.00    +0.000 C 
BRANCH  23  24
ATOM     24  N   UNL     1      44.189   4.384   8.993  0.00  0.00    +0.000 NA
ATOM     25  H   UNL     1      44.849   5.043   8.571  0.00  0.00    +0.000 HD
BRANCH  24  26
ATOM     26  CA  UNL     1      44.959   3.167   9.347  0.00  0.00    +0.000 C 
BRANCH  26  27
ATOM     27  C   UNL     1      45.855   2.749   8.175  0.00  0.00    +0.000 A 
ATOM     28  C   UNL     1      46.181   3.667   7.166  0.00  0.00    +0.000 A 
ATOM     29  C   UNL     1      47.025   3.303   6.108  0.00  0.00    +0.000 A 
ATOM     30  C   UNL     1      47.553   2.015   6.048  0.00  0.00    +0.000 A 
ATOM     31  C   UNL     1      47.246   1.093   7.041  0.00  0.00    +0.000 A 
ATOM     32  C   UNL     1      46.412   1.458   8.098  0.00  0.00    +0.000 A 
ENDBRANCH  26  27
BRANCH  26  33
ATOM     33  C   UNL     1      44.057   1.972   9.767  0.00  0.00    +0.000 C 
BRANCH  33  34
ATOM     34  O   UNL     1      43.580   2.095  11.107  0.00  0.00    +0.000 OA
ATOM     35  H   UNL     1      43.344   3.035  11.218  0.00  0.00    +0.000 HD
ENDBRANCH  33  34
ENDBRANCH  26  33
ENDBRANCH  24  26
ENDBRANCH  23  24
ENDBRANCH   4  23
TORSDOF 10
ENDMDL
MODEL 2
REMARK VINA RESULT:    -8.041      1.471      1.796
REMARK INTER + INTRA:         -13.571
REMARK INTER:                 -12.523
REMARK INTRA:                  -1.048
REMARK UNBOUND:                -1.064
REMARK  Name = 
REMARK  11 active torsions:
REMARK  status: ('A' for Active; 'I' for Inactive)
REMARK    1  A    between atoms: C_1  and  O_2
REMARK    2  A    between atoms: O_2  and  C_3
REMARK    3  A    between atoms: C_10  and  C_11
REMARK    4  A    between atoms: N_13  and  C_14
REMARK    5  A    between atoms: C_14  and  C_15
REMARK    6  A    between atoms: C_18  and  C_19
REMARK    7  A    between atoms: C_19  and  N_20
REMARK    8  A    between atoms: N_20  and  CA_21
REMARK    9  A    between atoms: CA_21  and  C_22
REMARK   10  A    between atoms: CA_21  and  C_24
REMARK   11  A    between atoms: C_22  and  O_23
REMARK                            x       y       z     vdW  Elec       q    Type
REMARK                         _______ _______ _______ _____ _____    ______ ____
ROOT
ATOM      1  C   UNL     1      46.679   7.806  12.956  0.00  0.00    +0.000 A 
ATOM      2  C   UNL     1      45.811   8.552  12.146  0.00  0.00    +0.000 A 
ATOM      3  C   UNL     1      44.666   7.964  11.591  0.00  0.00    +0.000 A 
ATOM      4  C   UNL     1      44.350   6.620  11.841  0.00  0.00    +0.000 A 
ATOM      5  C   UNL     1      45.190   5.893  12.696  0.00  0.00    +0.000 A 
ATOM      6  C   UNL     1      46.336   6.480  13.251  0.00  0.00    +0.000 A 
ENDROOT
BRANCH   1   7
ATOM      7  C   UNL     1      47.943   8.420  13.508  0.00  0.00    +0.000 C 
BRANCH   7  10
ATOM      8  C   UNL     1      48.962   7.385  15.502  0.00  0.00    +0.000 C 
ATOM      9  O   UNL     1      49.745   6.734  14.813  0.00  0.00    +0.000 OA
ATOM     10  N   UNL     1      48.048   8.233  14.933  0.00  0.00    +0.000 N 
ATOM     11  H   UNL     1      47.408   8.750  15.515  0.00  0.00    +0.000 HD
BRANCH   8  19
ATOM     12  C   UNL     1      48.698   4.733  17.676  0.00  0.00    +0.000 A 
ATOM     13  N   UNL     1      48.666   3.889  18.725  0.00  0.00    +0.000 NA
ATOM     14  C   UNL     1      48.768   4.409  19.950  0.00  0.00    +0.000 A 
ATOM     15  N   UNL     1      48.893   5.695  20.268  0.00  0.00    +0.000 NA
ATOM     16  C   UNL     1      48.934   6.501  19.191  0.00  0.00    +0.000 A 
ATOM     17  S   UNL     1      49.083   8.178  19.406  0.00  0.00    +0.000 S 
ATOM     18  C   UNL     1      49.072   8.443  17.726  0.00  0.00    +0.000 A 
ATOM     19  C   UNL     1      48.962   7.279  16.972  0.00  0.00    +0.000 A 
ATOM     20  C   UNL     1      48.860   6.120  17.857  0.00  0.00    +0.000 A 
BRANCH  12  22
ATOM     21  C   UNL     1      47.261   4.039  15.966  0.00  0.00    +0.000 C 
ATOM     22  O   UNL     1      48.605   4.201  16.410  0.00  0.00    +0.000 OA
ENDBRANCH  12  22
ENDBRANCH   8  19
ENDBRANCH   7  10
ENDBRANCH   1   7
BRANCH   4  23
ATOM     23  C   UNL     1      43.113   5.983  11.232  0.00  0.00    +0.000 C 
BRANCH  23  24
ATOM     24  N   UNL     1      43.467   5.065  10.147  0.00  0.00    +0.000 NA
ATOM     25  H   UNL     1      43.993   5.602   9.452  0.00  0.00    +0.000 HD
BRANCH  24  26
ATOM     26  CA  UNL     1      44.325   3.928  10.556  0.00  0.00    +0.000 C 
BRANCH  26  27
ATOM     27  C   UNL     1      45.144   3.426   9.361  0.00  0.00    +0.000 A 
ATOM     28  C   UNL     1      45.720   4.336   8.462  0.00  0.00    +0.000 A 
ATOM     29  C   UNL     1      46.496   3.888   7.385  0.00  0.00    +0.000 A 
ATOM     30  C   UNL     1      46.707   2.523   7.196  0.00  0.00    +0.000 A 
ATOM     31  C   UNL     1      46.149   1.607   8.079  0.00  0.00    +0.000 A 
ATOM     32  C   UNL     1      45.382   2.054   9.156  0.00  0.00    +0.000 A 
ENDBRANCH  26  27
BRANCH  26  33
ATOM     33  C   UNL     1      43.523   2.747  11.172  0.00  0.00    +0.000 C 
BRANCH  33  34
ATOM     34  O   UNL     1      43.918   2.463  12.515  0.00  0.00    +0.000 OA
ATOM     35  H   UNL     1      43.567   3.196  13.054  0.00  0.00    +0.000 HD
ENDBRANCH  33  34
ENDBRANCH  26  33
ENDBRANCH  24  26
ENDBRANCH  23  24
ENDBRANCH   4  23
TORSDOF 10
ENDMDL
MODEL 3
REMARK VINA RESULT:    -7.228      1.998      2.639
REMARK INTER + INTRA:         -12.307
REMARK INTER:                 -11.632
REMARK INTRA:                  -0.674
REMARK UNBOUND:                -1.064
REMARK  Name = 
REMARK  11 active torsions:
REMARK  status: ('A' for Active; 'I' for Inactive)
REMARK    1  A    between atoms: C_1  and  O_2
REMARK    2  A    between atoms: O_2  and  C_3
REMARK    3  A    between atoms: C_10  and  C_11
REMARK    4  A    between atoms: N_13  and  C_14
REMARK    5  A    between atoms: C_14  and  C_15
REMARK    6  A    between atoms: C_18  and  C_19
REMARK    7  A    between atoms: C_19  and  N_20
REMARK    8  A    between atoms: N_20  and  CA_21
REMARK    9  A    between atoms: CA_21  and  C_22
REMARK   10  A    between atoms: CA_21  and  C_24
REMARK   11  A    between atoms: C_22  and  O_23
REMARK                            x       y       z     vdW  Elec       q    Type
REMARK                         _______ _______ _______ _____ _____    ______ ____
ROOT
ATOM      1  C   UNL     1      47.307   6.574  13.701  0.00  0.00    +0.000 A 
ATOM      2  C   UNL     1      46.160   6.937  12.982  0.00  0.00    +0.000 A 
ATOM      3  C   UNL     1      45.302   5.960  12.461  0.00  0.00    +0.000 A 
ATOM      4  C   UNL     1      45.560   4.594  12.653  0.00  0.00    +0.000 A 
ATOM      5  C   UNL     1      46.677   4.235  13.420  0.00  0.00    +0.000 A 
ATOM      6  C   UNL     1      47.537   5.212  13.941  0.00  0.00    +0.000 A 
ENDROOT
BRANCH   1   7
ATOM      7  C   UNL     1      48.265   7.622  14.216  0.00  0.00    +0.000 C 
BRANCH   7  10
ATOM      8  C   UNL     1      49.554   7.088  16.249  0.00  0.00    +0.000 C 
ATOM      9  O   UNL     1      48.736   7.659  16.967  0.00  0.00    +0.000 OA
ATOM     10  N   UNL     1      49.392   7.030  14.890  0.00  0.00    +0.000 N 
ATOM     11  H   UNL     1      50.081   6.567  14.318  0.00  0.00    +0.000 HD
BRANCH   8  19
ATOM     12  C   UNL     1      50.291   3.858  17.173  0.00  0.00    +0.000 A 
ATOM     13  N   UNL     1      50.846   2.693  17.558  0.00  0.00    +0.000 NA
ATOM     14  C   UNL     1      52.115   2.712  17.973  0.00  0.00    +0.000 A 
ATOM     15  N   UNL     1      52.914   3.771  18.063  0.00  0.00    +0.000 NA
ATOM     16  C   UNL     1      52.324   4.911  17.657  0.00  0.00    +0.000 A 
ATOM     17  S   UNL     1      53.193   6.368  17.709  0.00  0.00    +0.000 S 
ATOM     18  C   UNL     1      51.870   7.235  17.081  0.00  0.00    +0.000 A 
ATOM     19  C   UNL     1      50.755   6.447  16.815  0.00  0.00    +0.000 A 
ATOM     20  C   UNL     1      51.028   5.059  17.181  0.00  0.00    +0.000 A 
BRANCH  12  22
ATOM     21  C   UNL     1      48.438   2.531  16.648  0.00  0.00    +0.000 C 
ATOM     22  O   UNL     1      48.987   3.842  16.732  0.00  0.00    +0.000 OA
ENDBRANCH  12  22
ENDBRANCH   8  19
ENDBRANCH   7  10
ENDBRANCH   1   7
BRANCH   4  23
ATOM     23  C   UNL     1      44.633   3.537  12.080  0.00  0.00    +0.000 C 
BRANCH  23  24
ATOM     24  N   UNL     1      45.251   2.845  10.946  0.00  0.00    +0.000 NA
ATOM     25  H   UNL     1      45.085   1.843  11.072  0.00  0.00    +0.000 HD
BRANCH  24  26
ATOM     26  CA  UNL     1      44.697   3.214   9.622  0.00  0.00    +0.000 C 
BRANCH  26  27
ATOM     27  C   UNL     1      45.612   2.701   8.504  0.00  0.00    +0.000 A 
ATOM     28  C   UNL     1      46.004   1.354   8.467  0.00  0.00    +0.000 A 
ATOM     29  C   UNL     1      46.814   0.869   7.432  0.00  0.00    +0.000 A 
ATOM     30  C   UNL     1      47.241   1.727   6.420  0.00  0.00    +0.000 A 
ATOM     31  C   UNL     1      46.860   3.063   6.436  0.00  0.00    +0.000 A 
ATOM     32  C   UNL     1      46.046   3.543   7.463  0.00  0.00    +0.000 A 
ENDBRANCH  26  27
BRANCH  26  33
ATOM     33  C   UNL     1      44.476   4.744   9.455  0.00  0.00    +0.000 C 
BRANCH  33  34
ATOM     34  O   UNL     1      43.176   5.155   9.879  0.00  0.00    +0.000 OA
ATOM     35  H   UNL     1      42.692   4.333  10.082  0.00  0.00    +0.000 HD
ENDBRANCH  33  34
ENDBRANCH  26  33
ENDBRANCH  24  26
ENDBRANCH  23  24
ENDBRANCH   4  23
TORSDOF 10
ENDMDL
MODEL 4
REMARK VINA RESULT:    -6.963      3.011      4.114
REMARK INTER + INTRA:         -11.894
REMARK INTER:                 -10.632
REMARK INTRA:                  -1.263
REMARK UNBOUND:                -1.064
REMARK  Name = 
REMARK  11 active torsions:
REMARK  status: ('A' for Active; 'I' for Inactive)
REMARK    1  A    between atoms: C_1  and  O_2
REMARK    2  A    between atoms: O_2  and  C_3
REMARK    3  A    between atoms: C_10  and  C_11
REMARK    4  A    between atoms: N_13  and  C_14
REMARK    5  A    between atoms: C_14  and  C_15
REMARK    6  A    between atoms: C_18  and  C_19
REMARK    7  A    between atoms: C_19  and  N_20
REMARK    8  A    between atoms: N_20  and  CA_21
REMARK    9  A    between atoms: CA_21  and  C_22
REMARK   10  A    between atoms: CA_21  and  C_24
REMARK   11  A    between atoms: C_22  and  O_23
REMARK                            x       y       z     vdW  Elec       q    Type
REMARK                         _______ _______ _______ _____ _____    ______ ____
ROOT
ATOM      1  C   UNL     1      48.734   6.199  15.710  0.00  0.00    +0.000 A 
ATOM      2  C   UNL     1      48.044   5.077  16.188  0.00  0.00    +0.000 A 
ATOM      3  C   UNL     1      47.060   4.455  15.407  0.00  0.00    +0.000 A 
ATOM      4  C   UNL     1      46.748   4.930  14.124  0.00  0.00    +0.000 A 
ATOM      5  C   UNL     1      47.478   6.018  13.627  0.00  0.00    +0.000 A 
ATOM      6  C   UNL     1      48.462   6.642  14.408  0.00  0.00    +0.000 A 
ENDROOT
BRANCH   1   7
ATOM      7  C   UNL     1      49.755   6.907  16.569  0.00  0.00    +0.000 C 
BRANCH   7  10
ATOM      8  C   UNL     1      51.032   5.914  18.431  0.00  0.00    +0.000 C 
ATOM      9  O   UNL     1      50.470   6.634  19.253  0.00  0.00    +0.000 OA
ATOM     10  N   UNL     1      50.735   5.991  17.096  0.00  0.00    +0.000 N 
ATOM     11  H   UNL     1      51.215   5.399  16.436  0.00  0.00    +0.000 HD
BRANCH   8  19
ATOM     12  C   UNL     1      51.597   2.612  17.647  0.00  0.00    +0.000 A 
ATOM     13  N   UNL     1      52.066   1.362  17.476  0.00  0.00    +0.000 NA
ATOM     14  C   UNL     1      53.178   1.017  18.129  0.00  0.00    +0.000 A 
ATOM     15  N   UNL     1      53.892   1.775  18.955  0.00  0.00    +0.000 NA
ATOM     16  C   UNL     1      53.396   3.019  19.087  0.00  0.00    +0.000 A 
ATOM     17  S   UNL     1      54.175   4.127  20.109  0.00  0.00    +0.000 S 
ATOM     18  C   UNL     1      53.040   5.339  19.741  0.00  0.00    +0.000 A 
ATOM     19  C   UNL     1      52.060   4.939  18.840  0.00  0.00    +0.000 A 
ATOM     20  C   UNL     1      52.268   3.541  18.467  0.00  0.00    +0.000 A 
BRANCH  12  22
ATOM     21  C   UNL     1      49.627   1.873  16.626  0.00  0.00    +0.000 C 
ATOM     22  O   UNL     1      50.457   2.978  16.967  0.00  0.00    +0.000 OA
ENDBRANCH  12  22
ENDBRANCH   8  19
ENDBRANCH   7  10
ENDBRANCH   1   7
BRANCH   4  23
ATOM     23  C   UNL     1      45.675   4.260  13.284  0.00  0.00    +0.000 C 
BRANCH  23  24
ATOM     24  N   UNL     1      45.192   5.151  12.227  0.00  0.00    +0.000 NA
ATOM     25  H   UNL     1      45.989   5.368  11.622  0.00  0.00    +0.000 HD
BRANCH  24  26
ATOM     26  CA  UNL     1      44.138   4.569  11.363  0.00  0.00    +0.000 C 
BRANCH  26  27
ATOM     27  C   UNL     1      44.765   3.951  10.107  0.00  0.00    +0.000 A 
ATOM     28  C   UNL     1      45.404   4.762   9.159  0.00  0.00    +0.000 A 
ATOM     29  C   UNL     1      46.007   4.203   8.024  0.00  0.00    +0.000 A 
ATOM     30  C   UNL     1      45.978   2.824   7.826  0.00  0.00    +0.000 A 
ATOM     31  C   UNL     1      45.354   2.003   8.757  0.00  0.00    +0.000 A 
ATOM     32  C   UNL     1      44.760   2.560   9.891  0.00  0.00    +0.000 A 
ENDBRANCH  26  27
BRANCH  26  33
ATOM     33  C   UNL     1      43.047   5.596  10.950  0.00  0.00    +0.000 C 
BRANCH  33  34
ATOM     34  O   UNL     1      43.427   6.941  11.242  0.00  0.00    +0.000 OA
ATOM     35  H   UNL     1      44.386   6.988  11.070  0.00  0.00    +0.000 HD
ENDBRANCH  33  34
ENDBRANCH  26  33
ENDBRANCH  24  26
ENDBRANCH  23  24
ENDBRANCH   4  23
TORSDOF 10
ENDMDL
MODEL 5
REMARK VINA RESULT:    -6.719      2.487      3.703
REMARK INTER + INTRA:         -11.514
REMARK INTER:                 -10.914
REMARK INTRA:                  -0.600
REMARK UNBOUND:                -1.064
REMARK  Name = 
REMARK  11 active torsions:
REMARK  status: ('A' for Active; 'I' for Inactive)
REMARK    1  A    between atoms: C_1  and  O_2
REMARK    2  A    between atoms: O_2  and  C_3
REMARK    3  A    between atoms: C_10  and  C_11
REMARK    4  A    between atoms: N_13  and  C_14
REMARK    5  A    between atoms: C_14  and  C_15
REMARK    6  A    between atoms: C_18  and  C_19
REMARK    7  A    between atoms: C_19  and  N_20
REMARK    8  A    between atoms: N_20  and  CA_21
REMARK    9  A    between atoms: CA_21  and  C_22
REMARK   10  A    between atoms: CA_21  and  C_24
REMARK   11  A    between atoms: C_22  and  O_23
REMARK                            x       y       z     vdW  Elec       q    Type
REMARK                         _______ _______ _______ _____ _____    ______ ____
ROOT
ATOM      1  C   UNL     1      47.338   6.333  13.718  0.00  0.00    +0.000 A 
ATOM      2  C   UNL     1      46.231   6.773  12.980  0.00  0.00    +0.000 A 
ATOM      3  C   UNL     1      45.337   5.854  12.415  0.00  0.00    +0.000 A 
ATOM      4  C   UNL     1      45.518   4.472  12.582  0.00  0.00    +0.000 A 
ATOM      5  C   UNL     1      46.595   4.038  13.368  0.00  0.00    +0.000 A 
ATOM      6  C   UNL     1      47.490   4.957  13.933  0.00  0.00    +0.000 A 
ENDROOT
BRANCH   1   7
ATOM      7  C   UNL     1      48.336   7.319  14.281  0.00  0.00    +0.000 C 
BRANCH   7  10
ATOM      8  C   UNL     1      49.401   6.604  16.387  0.00  0.00    +0.000 C 
ATOM      9  O   UNL     1      48.516   7.128  17.060  0.00  0.00    +0.000 OA
ATOM     10  N   UNL     1      49.382   6.656  15.019  0.00  0.00    +0.000 N 
ATOM     11  H   UNL     1      50.123   6.229  14.485  0.00  0.00    +0.000 HD
BRANCH   8  19
ATOM     12  C   UNL     1      52.811   6.753  15.959  0.00  0.00    +0.000 A 
ATOM     13  N   UNL     1      54.152   6.650  16.028  0.00  0.00    +0.000 NA
ATOM     14  C   UNL     1      54.669   5.799  16.917  0.00  0.00    +0.000 A 
ATOM     15  N   UNL     1      54.002   5.014  17.760  0.00  0.00    +0.000 NA
ATOM     16  C   UNL     1      52.667   5.158  17.666  0.00  0.00    +0.000 A 
ATOM     17  S   UNL     1      51.654   4.229  18.661  0.00  0.00    +0.000 S 
ATOM     18  C   UNL     1      50.262   4.947  17.997  0.00  0.00    +0.000 A 
ATOM     19  C   UNL     1      50.531   5.901  17.021  0.00  0.00    +0.000 A 
ATOM     20  C   UNL     1      51.974   6.008  16.814  0.00  0.00    +0.000 A 
BRANCH  12  22
ATOM     21  C   UNL     1      53.256   8.389  14.349  0.00  0.00    +0.000 C 
ATOM     22  O   UNL     1      52.272   7.638  15.053  0.00  0.00    +0.000 OA
ENDBRANCH  12  22
ENDBRANCH   8  19
ENDBRANCH   7  10
ENDBRANCH   1   7
BRANCH   4  23
ATOM     23  C   UNL     1      44.552   3.478  11.962  0.00  0.00    +0.000 C 
BRANCH  23  24
ATOM     24  N   UNL     1      45.179   2.743  10.860  0.00  0.00    +0.000 NA
ATOM     25  H   UNL     1      44.946   1.754  10.980  0.00  0.00    +0.000 HD
BRANCH  24  26
ATOM     26  CA  UNL     1      44.712   3.138   9.511  0.00  0.00    +0.000 C 
BRANCH  26  27
ATOM     27  C   UNL     1      45.651   2.574   8.438  0.00  0.00    +0.000 A 
ATOM     28  C   UNL     1      45.974   1.208   8.424  0.00  0.00    +0.000 A 
ATOM     29  C   UNL     1      46.806   0.677   7.429  0.00  0.00    +0.000 A 
ATOM     30  C   UNL     1      47.324   1.507   6.436  0.00  0.00    +0.000 A 
ATOM     31  C   UNL     1      47.012   2.860   6.432  0.00  0.00    +0.000 A 
ATOM     32  C   UNL     1      46.177   3.387   7.417  0.00  0.00    +0.000 A 
ENDBRANCH  26  27
BRANCH  26  33
ATOM     33  C   UNL     1      44.582   4.678   9.333  0.00  0.00    +0.000 C 
BRANCH  33  34
ATOM     34  O   UNL     1      43.331   5.177   9.805  0.00  0.00    +0.000 OA
ATOM     35  H   UNL     1      43.465   5.375  10.750  0.00  0.00    +0.000 HD
ENDBRANCH  33  34
ENDBRANCH  26  33
ENDBRANCH  24  26
ENDBRANCH  23  24
ENDBRANCH   4  23
TORSDOF 10
ENDMDL
MODEL 6
REMARK VINA RESULT:    -6.393      3.410      5.350
REMARK INTER + INTRA:         -11.008
REMARK INTER:                  -9.654
REMARK INTRA:                  -1.353
REMARK UNBOUND:                -1.064
REMARK  Name = 
REMARK  11 active torsions:
REMARK  status: ('A' for Active; 'I' for Inactive)
REMARK    1  A    between atoms: C_1  and  O_2
REMARK    2  A    between atoms: O_2  and  C_3
REMARK    3  A    between atoms: C_10  and  C_11
REMARK    4  A    between atoms: N_13  and  C_14
REMARK    5  A    between atoms: C_14  and  C_15
REMARK    6  A    between atoms: C_18  and  C_19
REMARK    7  A    between atoms: C_19  and  N_20
REMARK    8  A    between atoms: N_20  and  CA_21
REMARK    9  A    between atoms: CA_21  and  C_22
REMARK   10  A    between atoms: CA_21  and  C_24
REMARK   11  A    between atoms: C_22  and  O_23
REMARK                            x       y       z     vdW  Elec       q    Type
REMARK                         _______ _______ _______ _____ _____    ______ ____
ROOT
ATOM      1  C   UNL     1      48.280   3.841  16.816  0.00  0.00    +0.000 A 
ATOM      2  C   UNL     1      47.709   2.997  15.854  0.00  0.00    +0.000 A 
ATOM      3  C   UNL     1      47.153   3.522  14.680  0.00  0.00    +0.000 A 
ATOM      4  C   UNL     1      47.162   4.904  14.431  0.00  0.00    +0.000 A 
ATOM      5  C   UNL     1      47.782   5.739  15.370  0.00  0.00    +0.000 A 
ATOM      6  C   UNL     1      48.339   5.215  16.545  0.00  0.00    +0.000 A 
ENDROOT
BRANCH   1   7
ATOM      7  C   UNL     1      48.830   3.283  18.108  0.00  0.00    +0.000 C 
BRANCH   7  10
ATOM      8  C   UNL     1      51.101   2.449  17.630  0.00  0.00    +0.000 C 
ATOM      9  O   UNL     1      50.658   1.450  17.066  0.00  0.00    +0.000 OA
ATOM     10  N   UNL     1      50.265   3.392  18.168  0.00  0.00    +0.000 N 
ATOM     11  H   UNL     1      50.648   4.199  18.636  0.00  0.00    +0.000 HD
BRANCH   8  19
ATOM     12  C   UNL     1      53.092   5.237  17.322  0.00  0.00    +0.000 A 
ATOM     13  N   UNL     1      54.074   6.158  17.310  0.00  0.00    +0.000 NA
ATOM     14  C   UNL     1      55.315   5.752  17.582  0.00  0.00    +0.000 A 
ATOM     15  N   UNL     1      55.712   4.513  17.863  0.00  0.00    +0.000 NA
ATOM     16  C   UNL     1      54.698   3.628  17.877  0.00  0.00    +0.000 A 
ATOM     17  S   UNL     1      55.018   1.995  18.210  0.00  0.00    +0.000 S 
ATOM     18  C   UNL     1      53.372   1.592  18.060  0.00  0.00    +0.000 A 
ATOM     19  C   UNL     1      52.551   2.675  17.764  0.00  0.00    +0.000 A 
ATOM     20  C   UNL     1      53.355   3.889  17.636  0.00  0.00    +0.000 A 
BRANCH  12  22
ATOM     21  C   UNL     1      51.642   7.064  17.144  0.00  0.00    +0.000 C 
ATOM     22  O   UNL     1      51.806   5.652  17.053  0.00  0.00    +0.000 OA
ENDBRANCH  12  22
ENDBRANCH   8  19
ENDBRANCH   7  10
ENDBRANCH   1   7
BRANCH   4  23
ATOM     23  C   UNL     1      46.550   5.472  13.162  0.00  0.00    +0.000 C 
BRANCH  23  24
ATOM     24  N   UNL     1      45.261   4.843  12.865  0.00  0.00    +0.000 NA
ATOM     25  H   UNL     1      44.658   4.981  13.679  0.00  0.00    +0.000 HD
BRANCH  24  26
ATOM     26  CA  UNL     1      44.551   5.416  11.697  0.00  0.00    +0.000 C 
BRANCH  26  27
ATOM     27  C   UNL     1      44.817   4.568  10.447  0.00  0.00    +0.000 A 
ATOM     28  C   UNL     1      45.559   5.091   9.378  0.00  0.00    +0.000 A 
ATOM     29  C   UNL     1      45.834   4.313   8.245  0.00  0.00    +0.000 A 
ATOM     30  C   UNL     1      45.371   3.001   8.171  0.00  0.00    +0.000 A 
ATOM     31  C   UNL     1      44.638   2.464   9.222  0.00  0.00    +0.000 A 
ATOM     32  C   UNL     1      44.372   3.236  10.353  0.00  0.00    +0.000 A 
ENDBRANCH  26  27
BRANCH  26  33
ATOM     33  C   UNL     1      44.932   6.896  11.413  0.00  0.00    +0.000 C 
BRANCH  33  34
ATOM     34  O   UNL     1      43.789   7.714  11.165  0.00  0.00    +0.000 OA
ATOM     35  H   UNL     1      43.783   7.876  10.203  0.00  0.00    +0.000 HD
ENDBRANCH  33  34
ENDBRANCH  26  33
ENDBRANCH  24  26
ENDBRANCH  23  24
ENDBRANCH   4  23
TORSDOF 10
ENDMDL
MODEL 7
REMARK VINA RESULT:    -6.178      1.916      2.945
REMARK INTER + INTRA:         -10.673
REMARK INTER:                  -9.767
REMARK INTRA:                  -0.906
REMARK UNBOUND:                -1.064
REMARK  Name = 
REMARK  11 active torsions:
REMARK  status: ('A' for Active; 'I' for Inactive)
REMARK    1  A    between atoms: C_1  and  O_2
REMARK    2  A    between atoms: O_2  and  C_3
REMARK    3  A    between atoms: C_10  and  C_11
REMARK    4  A    between atoms: N_13  and  C_14
REMARK    5  A    between atoms: C_14  and  C_15
REMARK    6  A    between atoms: C_18  and  C_19
REMARK    7  A    between atoms: C_19  and  N_20
REMARK    8  A    between atoms: N_20  and  CA_21
REMARK    9  A    between atoms: CA_21  and  C_22
REMARK   10  A    between atoms: CA_21  and  C_24
REMARK   11  A    between atoms: C_22  and  O_23
REMARK                            x       y       z     vdW  Elec       q    Type
REMARK                         _______ _______ _______ _____ _____    ______ ____
ROOT
ATOM      1  C   UNL     1      46.643   6.318  13.491  0.00  0.00    +0.000 A 
ATOM      2  C   UNL     1      45.869   5.175  13.732  0.00  0.00    +0.000 A 
ATOM      3  C   UNL     1      44.953   4.715  12.776  0.00  0.00    +0.000 A 
ATOM      4  C   UNL     1      44.794   5.379  11.550  0.00  0.00    +0.000 A 
ATOM      5  C   UNL     1      45.609   6.489  11.289  0.00  0.00    +0.000 A 
ATOM      6  C   UNL     1      46.525   6.950  12.245  0.00  0.00    +0.000 A 
ENDROOT
BRANCH   1   7
ATOM      7  C   UNL     1      47.590   6.849  14.541  0.00  0.00    +0.000 C 
BRANCH   7  10
ATOM      8  C   UNL     1      48.204   5.254  16.319  0.00  0.00    +0.000 C 
ATOM      9  O   UNL     1      47.276   5.628  17.031  0.00  0.00    +0.000 OA
ATOM     10  N   UNL     1      48.423   5.806  15.084  0.00  0.00    +0.000 N 
ATOM     11  H   UNL     1      49.197   5.493  14.520  0.00  0.00    +0.000 HD
BRANCH   8  19
ATOM     12  C   UNL     1      51.496   5.275  17.317  0.00  0.00    +0.000 A 
ATOM     13  N   UNL     1      52.732   5.013  17.785  0.00  0.00    +0.000 NA
ATOM     14  C   UNL     1      53.024   3.750  18.104  0.00  0.00    +0.000 A 
ATOM     15  N   UNL     1      52.225   2.691  18.006  0.00  0.00    +0.000 NA
ATOM     16  C   UNL     1      50.998   3.000  17.547  0.00  0.00    +0.000 A 
ATOM     17  S   UNL     1      49.845   1.771  17.350  0.00  0.00    +0.000 S 
ATOM     18  C   UNL     1      48.682   2.883  16.800  0.00  0.00    +0.000 A 
ATOM     19  C   UNL     1      49.134   4.198  16.761  0.00  0.00    +0.000 A 
ATOM     20  C   UNL     1      50.529   4.258  17.191  0.00  0.00    +0.000 A 
BRANCH  12  22
ATOM     21  C   UNL     1      52.255   7.486  17.235  0.00  0.00    +0.000 C 
ATOM     22  O   UNL     1      51.184   6.577  16.998  0.00  0.00    +0.000 OA
ENDBRANCH  12  22
ENDBRANCH   8  19
ENDBRANCH   7  10
ENDBRANCH   1   7
BRANCH   4  23
ATOM     23  C   UNL     1      43.794   4.884  10.519  0.00  0.00    +0.000 C 
BRANCH  23  24
ATOM     24  N   UNL     1      44.470   4.385   9.319  0.00  0.00    +0.000 NA
ATOM     25  H   UNL     1      45.224   5.040   9.097  0.00  0.00    +0.000 HD
BRANCH  24  26
ATOM     26  CA  UNL     1      45.090   3.047   9.473  0.00  0.00    +0.000 C 
BRANCH  26  27
ATOM     27  C   UNL     1      45.918   2.701   8.229  0.00  0.00    +0.000 A 
ATOM     28  C   UNL     1      46.217   3.688   7.277  0.00  0.00    +0.000 A 
ATOM     29  C   UNL     1      46.998   3.389   6.154  0.00  0.00    +0.000 A 
ATOM     30  C   UNL     1      47.492   2.098   5.970  0.00  0.00    +0.000 A 
ATOM     31  C   UNL     1      47.211   1.109   6.904  0.00  0.00    +0.000 A 
ATOM     32  C   UNL     1      46.438   1.409   8.027  0.00  0.00    +0.000 A 
ENDBRANCH  26  27
BRANCH  26  33
ATOM     33  C   UNL     1      44.055   1.919   9.741  0.00  0.00    +0.000 C 
BRANCH  33  34
ATOM     34  O   UNL     1      43.591   1.916  11.092  0.00  0.00    +0.000 OA
ATOM     35  H   UNL     1      42.678   1.574  11.056  0.00  0.00    +0.000 HD
ENDBRANCH  33  34
ENDBRANCH  26  33
ENDBRANCH  24  26
ENDBRANCH  23  24
ENDBRANCH   4  23
TORSDOF 10
ENDMDL
MODEL 8
REMARK VINA RESULT:    -5.358     10.077     10.898
REMARK INTER + INTRA:          -9.397
REMARK INTER:                  -7.095
REMARK INTRA:                  -2.302
REMARK UNBOUND:                -1.064
REMARK  Name = 
REMARK  11 active torsions:
REMARK  status: ('A' for Active; 'I' for Inactive)
REMARK    1  A    between atoms: C_1  and  O_2
REMARK    2  A    between atoms: O_2  and  C_3
REMARK    3  A    between atoms: C_10  and  C_11
REMARK    4  A    between atoms: N_13  and  C_14
REMARK    5  A    between atoms: C_14  and  C_15
REMARK    6  A    between atoms: C_18  and  C_19
REMARK    7  A    between atoms: C_19  and  N_20
REMARK    8  A    between atoms: N_20  and  CA_21
REMARK    9  A    between atoms: CA_21  and  C_22
REMARK   10  A    between atoms: CA_21  and  C_24
REMARK   11  A    between atoms: C_22  and  O_23
REMARK                            x       y       z     vdW  Elec       q    Type
REMARK                         _______ _______ _______ _____ _____    ______ ____
ROOT
ATOM      1  C   UNL     1      36.305   0.614  12.659  0.00  0.00    +0.000 A 
ATOM      2  C   UNL     1      37.195   1.006  11.649  0.00  0.00    +0.000 A 
ATOM      3  C   UNL     1      37.406   0.195  10.526  0.00  0.00    +0.000 A 
ATOM      4  C   UNL     1      36.724  -1.023  10.375  0.00  0.00    +0.000 A 
ATOM      5  C   UNL     1      35.794  -1.385  11.359  0.00  0.00    +0.000 A 
ATOM      6  C   UNL     1      35.583  -0.574  12.484  0.00  0.00    +0.000 A 
ENDROOT
BRANCH   1   7
ATOM      7  C   UNL     1      36.119   1.458  13.897  0.00  0.00    +0.000 C 
BRANCH   7  10
ATOM      8  C   UNL     1      37.420   1.555  15.990  0.00  0.00    +0.000 C 
ATOM      9  O   UNL     1      37.581   2.768  15.881  0.00  0.00    +0.000 OA
ATOM     10  N   UNL     1      36.715   0.843  15.056  0.00  0.00    +0.000 N 
ATOM     11  H   UNL     1      36.603  -0.154  15.158  0.00  0.00    +0.000 HD
BRANCH   8  19
ATOM     12  C   UNL     1      39.234  -1.359  16.227  0.00  0.00    +0.000 A 
ATOM     13  N   UNL     1      39.978  -2.420  16.593  0.00  0.00    +0.000 NA
ATOM     14  C   UNL     1      40.240  -2.582  17.891  0.00  0.00    +0.000 A 
ATOM     15  N   UNL     1      39.838  -1.807  18.895  0.00  0.00    +0.000 NA
ATOM     16  C   UNL     1      39.109  -0.753  18.484  0.00  0.00    +0.000 A 
ATOM     17  S   UNL     1      38.503   0.343  19.630  0.00  0.00    +0.000 S 
ATOM     18  C   UNL     1      37.780   1.289  18.415  0.00  0.00    +0.000 A 
ATOM     19  C   UNL     1      37.985   0.805  17.127  0.00  0.00    +0.000 A 
ATOM     20  C   UNL     1      38.765  -0.430  17.177  0.00  0.00    +0.000 A 
BRANCH  12  22
ATOM     21  C   UNL     1      38.266  -2.270  14.302  0.00  0.00    +0.000 C 
ATOM     22  O   UNL     1      38.971  -1.179  14.887  0.00  0.00    +0.000 OA
ENDBRANCH  12  22
ENDBRANCH   8  19
ENDBRANCH   7  10
ENDBRANCH   1   7
BRANCH   4  23
ATOM     23  C   UNL     1      36.960  -1.904   9.161  0.00  0.00    +0.000 C 
BRANCH  23  24
ATOM     24  N   UNL     1      38.365  -2.305   9.060  0.00  0.00    +0.000 NA
ATOM     25  H   UNL     1      38.915  -1.635   9.603  0.00  0.00    +0.000 HD
BRANCH  24  26
ATOM     26  CA  UNL     1      38.663  -3.651   9.604  0.00  0.00    +0.000 C 
BRANCH  26  27
ATOM     27  C   UNL     1      39.630  -3.541  10.789  0.00  0.00    +0.000 A 
ATOM     28  C   UNL     1      39.844  -4.638  11.637  0.00  0.00    +0.000 A 
ATOM     29  C   UNL     1      40.750  -4.557  12.703  0.00  0.00    +0.000 A 
ATOM     30  C   UNL     1      41.454  -3.376  12.932  0.00  0.00    +0.000 A 
ATOM     31  C   UNL     1      41.260  -2.281  12.100  0.00  0.00    +0.000 A 
ATOM     32  C   UNL     1      40.363  -2.365  11.034  0.00  0.00    +0.000 A 
ENDBRANCH  26  27
BRANCH  26  33
ATOM     33  C   UNL     1      39.246  -4.627   8.544  0.00  0.00    +0.000 C 
BRANCH  33  34
ATOM     34  O   UNL     1      40.188  -3.991   7.679  0.00  0.00    +0.000 OA
ATOM     35  H   UNL     1      39.837  -3.095   7.519  0.00  0.00    +0.000 HD
ENDBRANCH  33  34
ENDBRANCH  26  33
ENDBRANCH  24  26
ENDBRANCH  23  24
ENDBRANCH   4  23
TORSDOF 10
ENDMDL
MODEL 9
REMARK VINA RESULT:    -5.293      1.812      2.446
REMARK INTER + INTRA:          -9.296
REMARK INTER:                  -8.395
REMARK INTRA:                  -0.901
REMARK UNBOUND:                -1.064
REMARK  Name = 
REMARK  11 active torsions:
REMARK  status: ('A' for Active; 'I' for Inactive)
REMARK    1  A    between atoms: C_1  and  O_2
REMARK    2  A    between atoms: O_2  and  C_3
REMARK    3  A    between atoms: C_10  and  C_11
REMARK    4  A    between atoms: N_13  and  C_14
REMARK    5  A    between atoms: C_14  and  C_15
REMARK    6  A    between atoms: C_18  and  C_19
REMARK    7  A    between atoms: C_19  and  N_20
REMARK    8  A    between atoms: N_20  and  CA_21
REMARK    9  A    between atoms: CA_21  and  C_22
REMARK   10  A    between atoms: CA_21  and  C_24
REMARK   11  A    between atoms: C_22  and  O_23
REMARK                            x       y       z     vdW  Elec       q    Type
REMARK                         _______ _______ _______ _____ _____    ______ ____
ROOT
ATOM      1  C   UNL     1      45.080   6.770  11.891  0.00  0.00    +0.000 A 
ATOM      2  C   UNL     1      45.629   6.352  10.671  0.00  0.00    +0.000 A 
ATOM      3  C   UNL     1      45.351   5.078  10.160  0.00  0.00    +0.000 A 
ATOM      4  C   UNL     1      44.507   4.191  10.847  0.00  0.00    +0.000 A 
ATOM      5  C   UNL     1      43.915   4.633  12.038  0.00  0.00    +0.000 A 
ATOM      6  C   UNL     1      44.193   5.908  12.551  0.00  0.00    +0.000 A 
ENDROOT
BRANCH   1   7
ATOM      7  C   UNL     1      45.422   8.121  12.474  0.00  0.00    +0.000 C 
BRANCH   7  10
ATOM      8  C   UNL     1      47.743   8.115  13.309  0.00  0.00    +0.000 C 
ATOM      9  O   UNL     1      48.192   8.301  12.180  0.00  0.00    +0.000 OA
ATOM     10  N   UNL     1      46.395   8.015  13.532  0.00  0.00    +0.000 N 
ATOM     11  H   UNL     1      46.047   7.851  14.463  0.00  0.00    +0.000 HD
BRANCH   8  19
ATOM     12  C   UNL     1      48.322   5.576  15.556  0.00  0.00    +0.000 A 
ATOM     13  N   UNL     1      48.768   4.747  16.519  0.00  0.00    +0.000 NA
ATOM     14  C   UNL     1      49.717   5.198  17.342  0.00  0.00    +0.000 A 
ATOM     15  N   UNL     1      50.285   6.400  17.331  0.00  0.00    +0.000 NA
ATOM     16  C   UNL     1      49.821   7.190  16.346  0.00  0.00    +0.000 A 
ATOM     17  S   UNL     1      50.427   8.767  16.182  0.00  0.00    +0.000 S 
ATOM     18  C   UNL     1      49.433   9.062  14.833  0.00  0.00    +0.000 A 
ATOM     19  C   UNL     1      48.633   7.982  14.476  0.00  0.00    +0.000 A 
ATOM     20  C   UNL     1      48.856   6.870  15.399  0.00  0.00    +0.000 A 
BRANCH  12  22
ATOM     21  C   UNL     1      47.217   3.695  14.713  0.00  0.00    +0.000 C 
ATOM     22  O   UNL     1      47.352   5.112  14.696  0.00  0.00    +0.000 OA
ENDBRANCH  12  22
ENDBRANCH   8  19
ENDBRANCH   7  10
ENDBRANCH   1   7
BRANCH   4  23
ATOM     23  C   UNL     1      44.214   2.807  10.294  0.00  0.00    +0.000 C 
BRANCH  23  24
ATOM     24  N   UNL     1      44.611   2.700   8.888  0.00  0.00    +0.000 NA
ATOM     25  H   UNL     1      44.885   3.635   8.575  0.00  0.00    +0.000 HD
BRANCH  24  26
ATOM     26  CA  UNL     1      45.766   1.805   8.640  0.00  0.00    +0.000 C 
BRANCH  26  27
ATOM     27  C   UNL     1      46.546   2.277   7.408  0.00  0.00    +0.000 A 
ATOM     28  C   UNL     1      47.805   1.732   7.112  0.00  0.00    +0.000 A 
ATOM     29  C   UNL     1      48.512   2.134   5.971  0.00  0.00    +0.000 A 
ATOM     30  C   UNL     1      47.966   3.086   5.111  0.00  0.00    +0.000 A 
ATOM     31  C   UNL     1      46.719   3.633   5.385  0.00  0.00    +0.000 A 
ATOM     32  C   UNL     1      46.012   3.226   6.517  0.00  0.00    +0.000 A 
ENDBRANCH  26  27
BRANCH  26  33
ATOM     33  C   UNL     1      45.359   0.315   8.461  0.00  0.00    +0.000 C 
BRANCH  33  34
ATOM     34  O   UNL     1      46.456  -0.503   8.051  0.00  0.00    +0.000 OA
ATOM     35  H   UNL     1      47.255   0.039   8.190  0.00  0.00    +0.000 HD
ENDBRANCH  33  34
ENDBRANCH  26  33
ENDBRANCH  24  26
ENDBRANCH  23  24
ENDBRANCH   4  23
TORSDOF 10
ENDMDL
