MODEL 1
REMARK VINA RESULT:    -7.642      0.000      0.000
REMARK INTER + INTRA:         -10.339
REMARK INTER:                  -9.652
REMARK INTRA:                  -0.687
REMARK UNBOUND:                -0.687
REMARK  Name = 
REMARK  5 active torsions:
REMARK  status: ('A' for Active; 'I' for Inactive)
REMARK    1  A    between atoms: N_1  and  C_2
REMARK    2  A    between atoms: C_2  and  C_3
REMARK    3  A    between atoms: C_3  and  C_4
REMARK    4  A    between atoms: N_6  and  C_7
REMARK    5  A    between atoms: C_7  and  C_8
REMARK                            x       y       z     vdW  Elec       q    Type
REMARK                         _______ _______ _______ _____ _____    ______ ____
ROOT
ATOM      1  C   UNL     1      45.211   6.863  12.075  0.00  0.00    +0.000 A 
ATOM      2  C   UNL     1      44.491   6.293  11.046  0.00  0.00    +0.000 A 
ATOM      3  N   UNL     1      44.661   4.932  11.093  0.00  0.00    +0.000 N 
ATOM      4  C   UNL     1      45.477   4.593  12.154  0.00  0.00    +0.000 A 
ATOM      5  C   UNL     1      45.922   3.345  12.619  0.00  0.00    +0.000 A 
ATOM      6  C   UNL     1      46.759   3.318  13.739  0.00  0.00    +0.000 A 
ATOM      7  C   UNL     1      47.138   4.493  14.377  0.00  0.00    +0.000 A 
ATOM      8  C   UNL     1      46.685   5.730  13.910  0.00  0.00    +0.000 A 
ATOM      9  C   UNL     1      45.837   5.790  12.784  0.00  0.00    +0.000 A 
ENDROOT
BRANCH   1  10
ATOM     10  C   UNL     1      45.310   8.326  12.381  0.00  0.00    +0.000 C 
BRANCH  10  11
ATOM     11  C   UNL     1      44.501   9.175  11.394  0.00  0.00    +0.000 C 
BRANCH  11  12
ATOM     12  N   UNL     1      43.753  10.235  12.074  0.00  0.00    +0.000 NA
ATOM     13  H   UNL     1      44.409  10.942  12.406  0.00  0.00    +0.000 HD
ATOM     14  H   UNL     1      43.302   9.855  12.905  0.00  0.00    +0.000 HD
ENDBRANCH  11  12
ENDBRANCH  10  11
ENDBRANCH   1  10
BRANCH   3  15
ATOM     15  C   UNL     1      44.078   3.999  10.128  0.00  0.00    +0.000 C 
BRANCH  15  16
ATOM     16  C   UNL     1      45.103   3.536   9.120  0.00  0.00    +0.000 A 
ATOM     17  C   UNL     1      45.758   4.455   8.286  0.00  0.00    +0.000 A 
ATOM     18  C   UNL     1      46.619   4.017   7.279  0.00  0.00    +0.000 A 
ATOM     19  C   UNL     1      46.859   2.653   7.104  0.00  0.00    +0.000 A 
ATOM     20 CL   UNL     1      47.882   2.178   5.796  0.00  0.00    +0.000 Cl
ATOM     21  C   UNL     1      46.261   1.728   7.967  0.00  0.00    +0.000 A 
ATOM     22 CL   UNL     1      46.537   0.028   7.836  0.00  0.00    +0.000 Cl
ATOM     23  C   UNL     1      45.392   2.170   8.972  0.00  0.00    +0.000 A 
ENDBRANCH  15  16
ENDBRANCH   3  15
TORSDOF 5
ENDMDL
MODEL 2
REMARK VINA RESULT:    -7.308      1.664      3.461
REMARK INTER + INTRA:          -9.917
REMARK INTER:                  -9.372
REMARK INTRA:                  -0.545
REMARK UNBOUND:                -0.687
REMARK  Name = 
REMARK  5 active torsions:
REMARK  status: ('A' for Active; 'I' for Inactive)
REMARK    1  A    between atoms: N_1  and  C_2
REMARK    2  A    between atoms: C_2  and  C_3
REMARK    3  A    between atoms: C_3  and  C_4
REMARK    4  A    between atoms: N_6  and  C_7
REMARK    5  A    between atoms: C_7  and  C_8
REMARK                            x       y       z     vdW  Elec       q    Type
REMARK                         _______ _______ _______ _____ _____    ______ ____
ROOT
ATOM      1  C   UNL     1      46.663   4.062  13.609  0.00  0.00    +0.000 A 
ATOM      2  C   UNL     1      45.945   3.278  12.731  0.00  0.00    +0.000 A 
ATOM      3  N   UNL     1      45.345   4.094  11.804  0.00  0.00    +0.000 N 
ATOM      4  C   UNL     1      45.672   5.413  12.052  0.00  0.00    +0.000 A 
ATOM      5  C   UNL     1      45.323   6.596  11.382  0.00  0.00    +0.000 A 
ATOM      6  C   UNL     1      45.815   7.806  11.879  0.00  0.00    +0.000 A 
ATOM      7  C   UNL     1      46.628   7.839  13.005  0.00  0.00    +0.000 A 
ATOM      8  C   UNL     1      46.974   6.656  13.663  0.00  0.00    +0.000 A 
ATOM      9  C   UNL     1      46.497   5.418  13.183  0.00  0.00    +0.000 A 
ENDROOT
BRANCH   1  10
ATOM     10  C   UNL     1      47.461   3.576  14.781  0.00  0.00    +0.000 C 
BRANCH  10  11
ATOM     11  C   UNL     1      47.029   4.252  16.088  0.00  0.00    +0.000 C 
BRANCH  11  12
ATOM     12  N   UNL     1      46.717   3.271  17.130  0.00  0.00    +0.000 NA
ATOM     13  H   UNL     1      47.589   2.884  17.492  0.00  0.00    +0.000 HD
ATOM     14  H   UNL     1      46.210   2.489  16.720  0.00  0.00    +0.000 HD
ENDBRANCH  11  12
ENDBRANCH  10  11
ENDBRANCH   1  10
BRANCH   3  15
ATOM     15  C   UNL     1      44.466   3.614  10.738  0.00  0.00    +0.000 C 
BRANCH  15  16
ATOM     16  C   UNL     1      45.240   3.331   9.471  0.00  0.00    +0.000 A 
ATOM     17  C   UNL     1      45.533   4.360   8.563  0.00  0.00    +0.000 A 
ATOM     18  C   UNL     1      46.146   4.080   7.341  0.00  0.00    +0.000 A 
ATOM     19  C   UNL     1      46.497   2.768   7.016  0.00  0.00    +0.000 A 
ATOM     20 CL   UNL     1      47.191   2.484   5.460  0.00  0.00    +0.000 Cl
ATOM     21  C   UNL     1      46.267   1.741   7.937  0.00  0.00    +0.000 A 
ATOM     22 CL   UNL     1      46.705   0.100   7.622  0.00  0.00    +0.000 Cl
ATOM     23  C   UNL     1      45.645   2.024   9.160  0.00  0.00    +0.000 A 
ENDBRANCH  15  16
ENDBRANCH   3  15
TORSDOF 5
ENDMDL
MODEL 3
REMARK VINA RESULT:    -7.271      1.439      3.867
REMARK INTER + INTRA:          -9.871
REMARK INTER:                  -9.245
REMARK INTRA:                  -0.626
REMARK UNBOUND:                -0.687
REMARK  Name = 
REMARK  5 active torsions:
REMARK  status: ('A' for Active; 'I' for Inactive)
REMARK    1  A    between atoms: N_1  and  C_2
REMARK    2  A    between atoms: C_2  and  C_3
REMARK    3  A    between atoms: C_3  and  C_4
REMARK    4  A    between atoms: N_6  and  C_7
REMARK    5  A    between atoms: C_7  and  C_8
REMARK                            x       y       z     vdW  Elec       q    Type
REMARK                         _______ _______ _______ _____ _____    ______ ____
ROOT
ATOM      1  C   UNL     1      46.323   5.879  12.988  0.00  0.00    +0.000 A 
ATOM      2  C   UNL     1      45.612   4.963  12.241  0.00  0.00    +0.000 A 
ATOM      3  N   UNL     1      44.726   5.642  11.442  0.00  0.00    +0.000 N 
ATOM      4  C   UNL     1      44.853   7.003  11.644  0.00  0.00    +0.000 A 
ATOM      5  C   UNL     1      44.190   8.092  11.058  0.00  0.00    +0.000 A 
ATOM      6  C   UNL     1      44.539   9.380  11.474  0.00  0.00    +0.000 A 
ATOM      7  C   UNL     1      45.518   9.578  12.441  0.00  0.00    +0.000 A 
ATOM      8  C   UNL     1      46.176   8.487  13.015  0.00  0.00    +0.000 A 
ATOM      9  C   UNL     1      45.848   7.176  12.613  0.00  0.00    +0.000 A 
ENDROOT
BRANCH   1  10
ATOM     10  C   UNL     1      47.385   5.564  13.997  0.00  0.00    +0.000 C 
BRANCH  10  11
ATOM     11  C   UNL     1      46.949   4.456  14.963  0.00  0.00    +0.000 C 
BRANCH  11  12
ATOM     12  N   UNL     1      47.540   3.164  14.611  0.00  0.00    +0.000 NA
ATOM     13  H   UNL     1      47.372   2.982  13.621  0.00  0.00    +0.000 HD
ATOM     14  H   UNL     1      47.064   2.421  15.120  0.00  0.00    +0.000 HD
ENDBRANCH  11  12
ENDBRANCH  10  11
ENDBRANCH   1  10
BRANCH   3  15
ATOM     15  C   UNL     1      43.773   4.994  10.541  0.00  0.00    +0.000 C 
BRANCH  15  16
ATOM     16  C   UNL     1      44.450   3.958   9.674  0.00  0.00    +0.000 A 
ATOM     17  C   UNL     1      44.256   2.588   9.907  0.00  0.00    +0.000 A 
ATOM     18  C   UNL     1      44.969   1.633   9.181  0.00  0.00    +0.000 A 
ATOM     19  C   UNL     1      45.871   2.032   8.193  0.00  0.00    +0.000 A 
ATOM     20 CL   UNL     1      46.769   0.800   7.381  0.00  0.00    +0.000 Cl
ATOM     21  C   UNL     1      46.030   3.392   7.908  0.00  0.00    +0.000 A 
ATOM     22 CL   UNL     1      47.101   3.961   6.677  0.00  0.00    +0.000 Cl
ATOM     23  C   UNL     1      45.318   4.349   8.643  0.00  0.00    +0.000 A 
ENDBRANCH  15  16
ENDBRANCH   3  15
TORSDOF 5
ENDMDL
MODEL 4
REMARK VINA RESULT:    -6.960      1.029      1.774
REMARK INTER + INTRA:          -9.478
REMARK INTER:                  -8.907
REMARK INTRA:                  -0.571
REMARK UNBOUND:                -0.687
REMARK  Name = 
REMARK  5 active torsions:
REMARK  status: ('A' for Active; 'I' for Inactive)
REMARK    1  A    between atoms: N_1  and  C_2
REMARK    2  A    between atoms: C_2  and  C_3
REMARK    3  A    between atoms: C_3  and  C_4
REMARK    4  A    between atoms: N_6  and  C_7
REMARK    5  A    between atoms: C_7  and  C_8
REMARK                            x       y       z     vdW  Elec       q    Type
REMARK                         _______ _______ _______ _____ _____    ______ ____
ROOT
ATOM      1  C   UNL     1      45.612   7.486  12.197  0.00  0.00    +0.000 A 
ATOM      2  C   UNL     1      44.630   7.076  11.320  0.00  0.00    +0.000 A 
ATOM      3  N   UNL     1      44.532   5.708  11.378  0.00  0.00    +0.000 N 
ATOM      4  C   UNL     1      45.432   5.208  12.298  0.00  0.00    +0.000 A 
ATOM      5  C   UNL     1      45.693   3.894  12.719  0.00  0.00    +0.000 A 
ATOM      6  C   UNL     1      46.685   3.695  13.684  0.00  0.00    +0.000 A 
ATOM      7  C   UNL     1      47.392   4.767  14.215  0.00  0.00    +0.000 A 
ATOM      8  C   UNL     1      47.122   6.071  13.793  0.00  0.00    +0.000 A 
ATOM      9  C   UNL     1      46.124   6.305  12.824  0.00  0.00    +0.000 A 
ENDROOT
BRANCH   1  10
ATOM     10  C   UNL     1      46.051   8.898  12.439  0.00  0.00    +0.000 C 
BRANCH  10  11
ATOM     11  C   UNL     1      44.921   9.902  12.180  0.00  0.00    +0.000 C 
BRANCH  11  12
ATOM     12  N   UNL     1      45.411  11.281  12.175  0.00  0.00    +0.000 NA
ATOM     13  H   UNL     1      44.620  11.913  12.051  0.00  0.00    +0.000 HD
ATOM     14  H   UNL     1      46.016  11.425  11.368  0.00  0.00    +0.000 HD
ENDBRANCH  11  12
ENDBRANCH  10  11
ENDBRANCH   1  10
BRANCH   3  15
ATOM     15  C   UNL     1      43.620   4.916  10.552  0.00  0.00    +0.000 C 
BRANCH  15  16
ATOM     16  C   UNL     1      44.374   3.930   9.690  0.00  0.00    +0.000 A 
ATOM     17  C   UNL     1      44.193   2.548   9.856  0.00  0.00    +0.000 A 
ATOM     18  C   UNL     1      44.972   1.637   9.140  0.00  0.00    +0.000 A 
ATOM     19  C   UNL     1      45.927   2.092   8.230  0.00  0.00    +0.000 A 
ATOM     20 CL   UNL     1      46.901   0.912   7.429  0.00  0.00    +0.000 Cl
ATOM     21  C   UNL     1      46.075   3.466   8.009  0.00  0.00    +0.000 A 
ATOM     22 CL   UNL     1      47.210   4.104   6.874  0.00  0.00    +0.000 Cl
ATOM     23  C   UNL     1      45.297   4.378   8.734  0.00  0.00    +0.000 A 
ENDBRANCH  15  16
ENDBRANCH   3  15
TORSDOF 5
ENDMDL
MODEL 5
REMARK VINA RESULT:    -6.256      3.687      6.171
REMARK INTER + INTRA:          -8.589
REMARK INTER:                  -7.867
REMARK INTRA:                  -0.722
REMARK UNBOUND:                -0.687
REMARK  Name = 
REMARK  5 active torsions:
REMARK  status: ('A' for Active; 'I' for Inactive)
REMARK    1  A    between atoms: N_1  and  C_2
REMARK    2  A    between atoms: C_2  and  C_3
REMARK    3  A    between atoms: C_3  and  C_4
REMARK    4  A    between atoms: N_6  and  C_7
REMARK    5  A    between atoms: C_7  and  C_8
REMARK                            x       y       z     vdW  Elec       q    Type
REMARK                         _______ _______ _______ _____ _____    ______ ____
ROOT
ATOM      1  C   UNL     1      45.296   4.249   9.143  0.00  0.00    +0.000 A 
ATOM      2  C   UNL     1      45.776   5.519   9.385  0.00  0.00    +0.000 A 
ATOM      3  N   UNL     1      45.411   5.891  10.654  0.00  0.00    +0.000 N 
ATOM      4  C   UNL     1      44.704   4.873  11.263  0.00  0.00    +0.000 A 
ATOM      5  C   UNL     1      44.143   4.772  12.545  0.00  0.00    +0.000 A 
ATOM      6  C   UNL     1      43.471   3.593  12.881  0.00  0.00    +0.000 A 
ATOM      7  C   UNL     1      43.362   2.548  11.972  0.00  0.00    +0.000 A 
ATOM      8  C   UNL     1      43.928   2.656  10.698  0.00  0.00    +0.000 A 
ATOM      9  C   UNL     1      44.616   3.831  10.331  0.00  0.00    +0.000 A 
ENDROOT
BRANCH   1  10
ATOM     10  C   UNL     1      45.459   3.467   7.876  0.00  0.00    +0.000 C 
BRANCH  10  11
ATOM     11  C   UNL     1      46.872   3.604   7.295  0.00  0.00    +0.000 C 
BRANCH  11  12
ATOM     12  N   UNL     1      46.844   3.979   5.880  0.00  0.00    +0.000 NA
ATOM     13  H   UNL     1      47.540   3.429   5.378  0.00  0.00    +0.000 HD
ATOM     14  H   UNL     1      47.125   4.953   5.780  0.00  0.00    +0.000 HD
ENDBRANCH  11  12
ENDBRANCH  10  11
ENDBRANCH   1  10
BRANCH   3  15
ATOM     15  C   UNL     1      45.712   7.197  11.243  0.00  0.00    +0.000 C 
BRANCH  15  16
ATOM     16  C   UNL     1      46.985   7.155  12.057  0.00  0.00    +0.000 A 
ATOM     17  C   UNL     1      46.951   6.865  13.429  0.00  0.00    +0.000 A 
ATOM     18  C   UNL     1      48.111   6.939  14.202  0.00  0.00    +0.000 A 
ATOM     19  C   UNL     1      49.328   7.280  13.611  0.00  0.00    +0.000 A 
ATOM     20 CL   UNL     1      50.709   7.419  14.639  0.00  0.00    +0.000 Cl
ATOM     21  C   UNL     1      49.389   7.512  12.233  0.00  0.00    +0.000 A 
ATOM     22 CL   UNL     1      50.864   7.905  11.424  0.00  0.00    +0.000 Cl
ATOM     23  C   UNL     1      48.222   7.444  11.461  0.00  0.00    +0.000 A 
ENDBRANCH  15  16
ENDBRANCH   3  15
TORSDOF 5
ENDMDL
MODEL 6
REMARK VINA RESULT:    -6.012      2.596      4.551
REMARK INTER + INTRA:          -8.280
REMARK INTER:                  -7.602
REMARK INTRA:                  -0.678
REMARK UNBOUND:                -0.687
REMARK  Name = 
REMARK  5 active torsions:
REMARK  status: ('A' for Active; 'I' for Inactive)
REMARK    1  A    between atoms: N_1  and  C_2
REMARK    2  A    between atoms: C_2  and  C_3
REMARK    3  A    between atoms: C_3  and  C_4
REMARK    4  A    between atoms: N_6  and  C_7
REMARK    5  A    between atoms: C_7  and  C_8
REMARK                            x       y       z     vdW  Elec       q    Type
REMARK                         _______ _______ _______ _____ _____    ______ ____
ROOT
ATOM      1  C   UNL     1      47.560   5.673  14.606  0.00  0.00    +0.000 A 
ATOM      2  C   UNL     1      46.320   5.498  14.029  0.00  0.00    +0.000 A 
ATOM      3  N   UNL     1      46.227   6.316  12.931  0.00  0.00    +0.000 N 
ATOM      4  C   UNL     1      47.403   7.023  12.766  0.00  0.00    +0.000 A 
ATOM      5  C   UNL     1      47.794   7.957  11.794  0.00  0.00    +0.000 A 
ATOM      6  C   UNL     1      49.071   8.517  11.893  0.00  0.00    +0.000 A 
ATOM      7  C   UNL     1      49.933   8.157  12.923  0.00  0.00    +0.000 A 
ATOM      8  C   UNL     1      49.536   7.223  13.883  0.00  0.00    +0.000 A 
ATOM      9  C   UNL     1      48.254   6.638  13.809  0.00  0.00    +0.000 A 
ENDROOT
BRANCH   1  10
ATOM     10  C   UNL     1      48.072   4.981  15.833  0.00  0.00    +0.000 C 
BRANCH  10  11
ATOM     11  C   UNL     1      47.425   3.604  16.026  0.00  0.00    +0.000 C 
BRANCH  11  12
ATOM     12  N   UNL     1      46.694   3.520  17.292  0.00  0.00    +0.000 NA
ATOM     13  H   UNL     1      46.979   4.294  17.891  0.00  0.00    +0.000 HD
ATOM     14  H   UNL     1      46.959   2.669  17.783  0.00  0.00    +0.000 HD
ENDBRANCH  11  12
ENDBRANCH  10  11
ENDBRANCH   1  10
BRANCH   3  15
ATOM     15  C   UNL     1      45.034   6.430  12.092  0.00  0.00    +0.000 C 
BRANCH  15  16
ATOM     16  C   UNL     1      44.874   5.224  11.195  0.00  0.00    +0.000 A 
ATOM     17  C   UNL     1      44.118   4.117  11.609  0.00  0.00    +0.000 A 
ATOM     18  C   UNL     1      44.064   2.959  10.831  0.00  0.00    +0.000 A 
ATOM     19  C   UNL     1      44.746   2.898   9.615  0.00  0.00    +0.000 A 
ATOM     20 CL   UNL     1      44.691   1.412   8.736  0.00  0.00    +0.000 Cl
ATOM     21  C   UNL     1      45.454   4.016   9.160  0.00  0.00    +0.000 A 
ATOM     22 CL   UNL     1      46.294   4.028   7.651  0.00  0.00    +0.000 Cl
ATOM     23  C   UNL     1      45.512   5.174   9.946  0.00  0.00    +0.000 A 
ENDBRANCH  15  16
ENDBRANCH   3  15
TORSDOF 5
ENDMDL
MODEL 7
REMARK VINA RESULT:    -5.891      2.686      4.831
REMARK INTER + INTRA:          -8.127
REMARK INTER:                  -7.586
REMARK INTRA:                  -0.542
REMARK UNBOUND:                -0.687
REMARK  Name = 
REMARK  5 active torsions:
REMARK  status: ('A' for Active; 'I' for Inactive)
REMARK    1  A    between atoms: N_1  and  C_2
REMARK    2  A    between atoms: C_2  and  C_3
REMARK    3  A    between atoms: C_3  and  C_4
REMARK    4  A    between atoms: N_6  and  C_7
REMARK    5  A    between atoms: C_7  and  C_8
REMARK                            x       y       z     vdW  Elec       q    Type
REMARK                         _______ _______ _______ _____ _____    ______ ____
ROOT
ATOM      1  C   UNL     1      47.805   7.401  13.015  0.00  0.00    +0.000 A 
ATOM      2  C   UNL     1      46.823   6.445  13.165  0.00  0.00    +0.000 A 
ATOM      3  N   UNL     1      45.625   6.978  12.759  0.00  0.00    +0.000 N 
ATOM      4  C   UNL     1      45.808   8.278  12.327  0.00  0.00    +0.000 A 
ATOM      5  C   UNL     1      44.903   9.218  11.810  0.00  0.00    +0.000 A 
ATOM      6  C   UNL     1      45.392  10.478  11.454  0.00  0.00    +0.000 A 
ATOM      7  C   UNL     1      46.737  10.792  11.605  0.00  0.00    +0.000 A 
ATOM      8  C   UNL     1      47.631   9.848  12.116  0.00  0.00    +0.000 A 
ATOM      9  C   UNL     1      47.169   8.566  12.481  0.00  0.00    +0.000 A 
ENDROOT
BRANCH   1  10
ATOM     10  C   UNL     1      49.257   7.239  13.350  0.00  0.00    +0.000 C 
BRANCH  10  11
ATOM     11  C   UNL     1      49.480   7.042  14.854  0.00  0.00    +0.000 C 
BRANCH  11  12
ATOM     12  N   UNL     1      50.903   6.959  15.186  0.00  0.00    +0.000 NA
ATOM     13  H   UNL     1      51.282   7.903  15.258  0.00  0.00    +0.000 HD
ATOM     14  H   UNL     1      51.406   6.510  14.422  0.00  0.00    +0.000 HD
ENDBRANCH  11  12
ENDBRANCH  10  11
ENDBRANCH   1  10
BRANCH   3  15
ATOM     15  C   UNL     1      44.349   6.265  12.817  0.00  0.00    +0.000 C 
BRANCH  15  16
ATOM     16  C   UNL     1      44.302   5.137  11.812  0.00  0.00    +0.000 A 
ATOM     17  C   UNL     1      43.639   3.937  12.111  0.00  0.00    +0.000 A 
ATOM     18  C   UNL     1      43.692   2.855  11.231  0.00  0.00    +0.000 A 
ATOM     19  C   UNL     1      44.390   2.963  10.027  0.00  0.00    +0.000 A 
ATOM     20 CL   UNL     1      44.472   1.564   9.017  0.00  0.00    +0.000 Cl
ATOM     21  C   UNL     1      45.004   4.173   9.688  0.00  0.00    +0.000 A 
ATOM     22 CL   UNL     1      45.856   4.395   8.201  0.00  0.00    +0.000 Cl
ATOM     23  C   UNL     1      44.955   5.255  10.576  0.00  0.00    +0.000 A 
ENDBRANCH  15  16
ENDBRANCH   3  15
TORSDOF 5
ENDMDL
MODEL 8
REMARK VINA RESULT:    -5.654      4.288      6.539
REMARK INTER + INTRA:          -7.828
REMARK INTER:                  -7.205
REMARK INTRA:                  -0.623
REMARK UNBOUND:                -0.687
REMARK  Name = 
REMARK  5 active torsions:
REMARK  status: ('A' for Active; 'I' for Inactive)
REMARK    1  A    between atoms: N_1  and  C_2
REMARK    2  A    between atoms: C_2  and  C_3
REMARK    3  A    between atoms: C_3  and  C_4
REMARK    4  A    between atoms: N_6  and  C_7
REMARK    5  A    between atoms: C_7  and  C_8
REMARK                            x       y       z     vdW  Elec       q    Type
REMARK                         _______ _______ _______ _____ _____    ______ ____
ROOT
ATOM      1  C   UNL     1      46.892   4.632  13.932  0.00  0.00    +0.000 A 
ATOM      2  C   UNL     1      47.352   5.931  13.904  0.00  0.00    +0.000 A 
ATOM      3  N   UNL     1      46.855   6.550  12.785  0.00  0.00    +0.000 N 
ATOM      4  C   UNL     1      46.055   5.675  12.075  0.00  0.00    +0.000 A 
ATOM      5  C   UNL     1      45.322   5.843  10.891  0.00  0.00    +0.000 A 
ATOM      6  C   UNL     1      44.595   4.753  10.404  0.00  0.00    +0.000 A 
ATOM      7  C   UNL     1      44.595   3.536  11.076  0.00  0.00    +0.000 A 
ATOM      8  C   UNL     1      45.324   3.380  12.257  0.00  0.00    +0.000 A 
ATOM      9  C   UNL     1      46.065   4.463  12.775  0.00  0.00    +0.000 A 
ENDROOT
BRANCH   1  10
ATOM     10  C   UNL     1      47.203   3.604  14.976  0.00  0.00    +0.000 C 
BRANCH  10  11
ATOM     11  C   UNL     1      47.168   4.194  16.391  0.00  0.00    +0.000 C 
BRANCH  11  12
ATOM     12  N   UNL     1      46.679   3.224  17.373  0.00  0.00    +0.000 NA
ATOM     13  H   UNL     1      46.305   3.727  18.177  0.00  0.00    +0.000 HD
ATOM     14  H   UNL     1      47.460   2.671  17.722  0.00  0.00    +0.000 HD
ENDBRANCH  11  12
ENDBRANCH  10  11
ENDBRANCH   1  10
BRANCH   3  15
ATOM     15  C   UNL     1      47.167   7.927  12.403  0.00  0.00    +0.000 C 
BRANCH  15  16
ATOM     16  C   UNL     1      48.658   8.177  12.408  0.00  0.00    +0.000 A 
ATOM     17  C   UNL     1      49.242   9.019  13.366  0.00  0.00    +0.000 A 
ATOM     18  C   UNL     1      50.599   9.340  13.301  0.00  0.00    +0.000 A 
ATOM     19  C   UNL     1      51.399   8.804  12.291  0.00  0.00    +0.000 A 
ATOM     20 CL   UNL     1      53.054   9.297  12.230  0.00  0.00    +0.000 Cl
ATOM     21  C   UNL     1      50.844   7.915  11.365  0.00  0.00    +0.000 A 
ATOM     22 CL   UNL     1      51.777   7.185  10.107  0.00  0.00    +0.000 Cl
ATOM     23  C   UNL     1      49.480   7.601  11.428  0.00  0.00    +0.000 A 
ENDBRANCH  15  16
ENDBRANCH   3  15
TORSDOF 5
ENDMDL
MODEL 9
REMARK VINA RESULT:    -5.620      4.435      6.961
REMARK INTER + INTRA:          -7.785
REMARK INTER:                  -7.094
REMARK INTRA:                  -0.691
REMARK UNBOUND:                -0.687
REMARK  Name = 
REMARK  5 active torsions:
REMARK  status: ('A' for Active; 'I' for Inactive)
REMARK    1  A    between atoms: N_1  and  C_2
REMARK    2  A    between atoms: C_2  and  C_3
REMARK    3  A    between atoms: C_3  and  C_4
REMARK    4  A    between atoms: N_6  and  C_7
REMARK    5  A    between atoms: C_7  and  C_8
REMARK                            x       y       z     vdW  Elec       q    Type
REMARK                         _______ _______ _______ _____ _____    ______ ____
ROOT
ATOM      1  C   UNL     1      44.894   6.047  11.560  0.00  0.00    +0.000 A 
ATOM      2  C   UNL     1      46.036   5.468  12.073  0.00  0.00    +0.000 A 
ATOM      3  N   UNL     1      46.907   6.463  12.436  0.00  0.00    +0.000 N 
ATOM      4  C   UNL     1      46.347   7.700  12.182  0.00  0.00    +0.000 A 
ATOM      5  C   UNL     1      46.833   8.999  12.395  0.00  0.00    +0.000 A 
ATOM      6  C   UNL     1      46.022  10.077  12.027  0.00  0.00    +0.000 A 
ATOM      7  C   UNL     1      44.767   9.869  11.469  0.00  0.00    +0.000 A 
ATOM      8  C   UNL     1      44.289   8.571  11.265  0.00  0.00    +0.000 A 
ATOM      9  C   UNL     1      45.083   7.464  11.629  0.00  0.00    +0.000 A 
ENDROOT
BRANCH   1  10
ATOM     10  C   UNL     1      43.692   5.322  11.035  0.00  0.00    +0.000 C 
BRANCH  10  11
ATOM     11  C   UNL     1      42.444   5.588  11.886  0.00  0.00    +0.000 C 
BRANCH  11  12
ATOM     12  N   UNL     1      42.685   5.317  13.304  0.00  0.00    +0.000 NA
ATOM     13  H   UNL     1      42.419   4.354  13.507  0.00  0.00    +0.000 HD
ATOM     14  H   UNL     1      42.077   5.905  13.871  0.00  0.00    +0.000 HD
ENDBRANCH  11  12
ENDBRANCH  10  11
ENDBRANCH   1  10
BRANCH   3  15
ATOM     15  C   UNL     1      48.244   6.223  12.982  0.00  0.00    +0.000 C 
BRANCH  15  16
ATOM     16  C   UNL     1      48.217   6.142  14.491  0.00  0.00    +0.000 A 
ATOM     17  C   UNL     1      48.760   7.171  15.275  0.00  0.00    +0.000 A 
ATOM     18  C   UNL     1      48.839   7.044  16.663  0.00  0.00    +0.000 A 
ATOM     19  C   UNL     1      48.354   5.896  17.291  0.00  0.00    +0.000 A 
ATOM     20 CL   UNL     1      48.545   5.776  19.004  0.00  0.00    +0.000 Cl
ATOM     21  C   UNL     1      47.755   4.888  16.528  0.00  0.00    +0.000 A 
ATOM     22 CL   UNL     1      47.102   3.454  17.236  0.00  0.00    +0.000 Cl
ATOM     23  C   UNL     1      47.684   5.015  15.134  0.00  0.00    +0.000 A 
ENDBRANCH  15  16
ENDBRANCH   3  15
TORSDOF 5
ENDMDL
