MODEL 1
REMARK VINA RESULT:    -8.819      0.000      0.000
REMARK INTER + INTRA:         -12.753
REMARK INTER:                 -11.913
REMARK INTRA:                  -0.840
REMARK UNBOUND:                -0.840
REMARK  Name = 
REMARK  9 active torsions:
REMARK  status: ('A' for Active; 'I' for Inactive)
REMARK    1  A    between atoms: C_1  and  N_2
REMARK    2  A    between atoms: N_5  and  C_6
REMARK    3  A    between atoms: C_10  and  C_11
REMARK    4  A    between atoms: C_11  and  C_12
REMARK    5  A    between atoms: C_11  and  C_13
REMARK    6  A    between atoms: C_11  and  C_14
REMARK    7  A    between atoms: C_14  and  N_15
REMARK    8  A    between atoms: N_15  and  C_16
REMARK    9  A    between atoms: C_19  and  C_20
REMARK                            x       y       z     vdW  Elec       q    Type
REMARK                         _______ _______ _______ _____ _____    ______ ____
ROOT
ATOM      1  C   UNL     1      43.781   5.212  11.985  0.00  0.00    +0.000 C 
ATOM      2  C   UNL     1      43.104   4.806  13.318  0.00  0.00    +0.000 C 
ATOM      3  C   UNL     1      42.953   6.352  11.349  0.00  0.00    +0.000 C 
ENDROOT
BRANCH   1   8
ATOM      4  C   UNL     1      47.164   5.824  13.820  0.00  0.00    +0.000 A 
ATOM      5  C   UNL     1      47.876   6.473  12.817  0.00  0.00    +0.000 A 
ATOM      6  C   UNL     1      47.281   6.776  11.589  0.00  0.00    +0.000 A 
ATOM      7  C   UNL     1      45.964   6.393  11.324  0.00  0.00    +0.000 A 
ATOM      8  C   UNL     1      45.203   5.719  12.286  0.00  0.00    +0.000 A 
ATOM      9  C   UNL     1      45.820   5.510  13.534  0.00  0.00    +0.000 A 
BRANCH   4  14
ATOM     10  C   UNL     1      48.178   5.136  19.250  0.00  0.00    +0.000 C 
ATOM     11  N   UNL     1      48.422   4.960  17.820  0.00  0.00    +0.000 NA
ATOM     12  C   UNL     1      47.250   4.324  17.173  0.00  0.00    +0.000 C 
ATOM     13  C   UNL     1      47.446   4.178  15.649  0.00  0.00    +0.000 C 
ATOM     14  N   UNL     1      47.688   5.510  15.059  0.00  0.00    +0.000 N 
ATOM     15  C   UNL     1      48.877   6.154  15.625  0.00  0.00    +0.000 C 
ATOM     16  C   UNL     1      48.698   6.261  17.165  0.00  0.00    +0.000 C 
ENDBRANCH   4  14
ENDBRANCH   1   8
BRANCH   1  17
ATOM     17  C   UNL     1      43.700   3.948  11.057  0.00  0.00    +0.000 C 
BRANCH  17  18
ATOM     18  N   UNL     1      43.698   4.245   9.618  0.00  0.00    +0.000 N 
ATOM     19  H   UNL     1      43.646   5.231   9.365  0.00  0.00    +0.000 HD
BRANCH  18  20
ATOM     20  C   UNL     1      44.684   3.658   8.827  0.00  0.00    +0.000 A 
ATOM     21  N   UNL     1      45.439   4.521   8.112  0.00  0.00    +0.000 NA
ATOM     22  C   UNL     1      46.456   4.019   7.358  0.00  0.00    +0.000 A 
ATOM     23  C   UNL     1      46.748   2.668   7.256  0.00  0.00    +0.000 A 
ATOM     24  C   UNL     1      45.956   1.778   7.973  0.00  0.00    +0.000 A 
ATOM     25  C   UNL     1      44.914   2.279   8.749  0.00  0.00    +0.000 A 
ATOM     26  F   UNL     1      44.170   1.407   9.447  0.00  0.00    +0.000 F 
BRANCH  23  27
ATOM     27  C   UNL     1      47.889   2.240   6.424  0.00  0.00    +0.000 C 
ATOM     28  N   UNL     1      48.068   2.885   5.232  0.00  0.00    +0.000 N 
ATOM     29  O   UNL     1      48.655   1.364   6.798  0.00  0.00    +0.000 OA
ATOM     30  H   UNL     1      47.606   3.753   5.003  0.00  0.00    +0.000 HD
ATOM     31  H   UNL     1      48.912   2.659   4.718  0.00  0.00    +0.000 HD
ENDBRANCH  23  27
ENDBRANCH  18  20
ENDBRANCH  17  18
ENDBRANCH   1  17
TORSDOF 6
ENDMDL
MODEL 2
REMARK VINA RESULT:    -8.170      2.001      2.621
REMARK INTER + INTRA:         -11.876
REMARK INTER:                 -11.569
REMARK INTRA:                  -0.307
REMARK UNBOUND:                -0.840
REMARK  Name = 
REMARK  9 active torsions:
REMARK  status: ('A' for Active; 'I' for Inactive)
REMARK    1  A    between atoms: C_1  and  N_2
REMARK    2  A    between atoms: N_5  and  C_6
REMARK    3  A    between atoms: C_10  and  C_11
REMARK    4  A    between atoms: C_11  and  C_12
REMARK    5  A    between atoms: C_11  and  C_13
REMARK    6  A    between atoms: C_11  and  C_14
REMARK    7  A    between atoms: C_14  and  N_15
REMARK    8  A    between atoms: N_15  and  C_16
REMARK    9  A    between atoms: C_19  and  C_20
REMARK                            x       y       z     vdW  Elec       q    Type
REMARK                         _______ _______ _______ _____ _____    ______ ____
ROOT
ATOM      1  C   UNL     1      44.057   4.693  12.273  0.00  0.00    +0.000 C 
ATOM      2  C   UNL     1      45.092   3.571  12.535  0.00  0.00    +0.000 C 
ATOM      3  C   UNL     1      43.033   4.688  13.431  0.00  0.00    +0.000 C 
ENDROOT
BRANCH   1   8
ATOM      4  C   UNL     1      46.871   7.368  12.616  0.00  0.00    +0.000 A 
ATOM      5  C   UNL     1      46.238   8.468  12.046  0.00  0.00    +0.000 A 
ATOM      6  C   UNL     1      44.911   8.394  11.612  0.00  0.00    +0.000 A 
ATOM      7  C   UNL     1      44.201   7.193  11.700  0.00  0.00    +0.000 A 
ATOM      8  C   UNL     1      44.791   6.046  12.245  0.00  0.00    +0.000 A 
ATOM      9  C   UNL     1      46.100   6.195  12.743  0.00  0.00    +0.000 A 
BRANCH   4  14
ATOM     10  C   UNL     1      51.813   8.651  14.831  0.00  0.00    +0.000 C 
ATOM     11  N   UNL     1      50.814   7.768  14.235  0.00  0.00    +0.000 NA
ATOM     12  C   UNL     1      49.584   7.747  15.063  0.00  0.00    +0.000 C 
ATOM     13  C   UNL     1      48.482   6.873  14.430  0.00  0.00    +0.000 C 
ATOM     14  N   UNL     1      48.173   7.381  13.078  0.00  0.00    +0.000 N 
ATOM     15  C   UNL     1      49.347   7.362  12.201  0.00  0.00    +0.000 C 
ATOM     16  C   UNL     1      50.472   8.207  12.860  0.00  0.00    +0.000 C 
ENDBRANCH   4  14
ENDBRANCH   1   8
BRANCH   1  17
ATOM     17  C   UNL     1      43.321   4.300  10.943  0.00  0.00    +0.000 C 
BRANCH  17  18
ATOM     18  N   UNL     1      43.920   4.859   9.723  0.00  0.00    +0.000 N 
ATOM     19  H   UNL     1      44.333   5.787   9.813  0.00  0.00    +0.000 HD
BRANCH  18  20
ATOM     20  C   UNL     1      44.817   4.065   9.011  0.00  0.00    +0.000 A 
ATOM     21  N   UNL     1      45.695   4.741   8.237  0.00  0.00    +0.000 NA
ATOM     22  C   UNL     1      46.635   4.029   7.554  0.00  0.00    +0.000 A 
ATOM     23  C   UNL     1      46.729   2.647   7.583  0.00  0.00    +0.000 A 
ATOM     24  C   UNL     1      45.812   1.951   8.362  0.00  0.00    +0.000 A 
ATOM     25  C   UNL     1      44.847   2.667   9.066  0.00  0.00    +0.000 A 
ATOM     26  F   UNL     1      43.979   1.979   9.825  0.00  0.00    +0.000 F 
BRANCH  23  27
ATOM     27  C   UNL     1      47.803   1.984   6.819  0.00  0.00    +0.000 C 
ATOM     28  N   UNL     1      48.671   2.789   6.135  0.00  0.00    +0.000 N 
ATOM     29  O   UNL     1      47.926   0.767   6.818  0.00  0.00    +0.000 OA
ATOM     30  H   UNL     1      48.742   3.784   6.299  0.00  0.00    +0.000 HD
ATOM     31  H   UNL     1      49.465   2.333   5.701  0.00  0.00    +0.000 HD
ENDBRANCH  23  27
ENDBRANCH  18  20
ENDBRANCH  17  18
ENDBRANCH   1  17
TORSDOF 6
ENDMDL
MODEL 3
REMARK VINA RESULT:    -8.084      2.247      3.688
REMARK INTER + INTRA:         -11.760
REMARK INTER:                 -10.985
REMARK INTRA:                  -0.775
REMARK UNBOUND:                -0.840
REMARK  Name = 
REMARK  9 active torsions:
REMARK  status: ('A' for Active; 'I' for Inactive)
REMARK    1  A    between atoms: C_1  and  N_2
REMARK    2  A    between atoms: N_5  and  C_6
REMARK    3  A    between atoms: C_10  and  C_11
REMARK    4  A    between atoms: C_11  and  C_12
REMARK    5  A    between atoms: C_11  and  C_13
REMARK    6  A    between atoms: C_11  and  C_14
REMARK    7  A    between atoms: C_14  and  N_15
REMARK    8  A    between atoms: N_15  and  C_16
REMARK    9  A    between atoms: C_19  and  C_20
REMARK                            x       y       z     vdW  Elec       q    Type
REMARK                         _______ _______ _______ _____ _____    ______ ____
ROOT
ATOM      1  C   UNL     1      44.480   4.892  12.229  0.00  0.00    +0.000 C 
ATOM      2  C   UNL     1      44.414   3.345  12.243  0.00  0.00    +0.000 C 
ATOM      3  C   UNL     1      43.278   5.436  13.033  0.00  0.00    +0.000 C 
ENDROOT
BRANCH   1   8
ATOM      4  C   UNL     1      47.704   6.929  13.036  0.00  0.00    +0.000 A 
ATOM      5  C   UNL     1      48.105   6.302  14.211  0.00  0.00    +0.000 A 
ATOM      6  C   UNL     1      47.407   5.203  14.719  0.00  0.00    +0.000 A 
ATOM      7  C   UNL     1      46.256   4.734  14.078  0.00  0.00    +0.000 A 
ATOM      8  C   UNL     1      45.791   5.337  12.903  0.00  0.00    +0.000 A 
ATOM      9  C   UNL     1      46.576   6.386  12.388  0.00  0.00    +0.000 A 
BRANCH   4  14
ATOM     10  C   UNL     1      51.058  11.215  11.874  0.00  0.00    +0.000 C 
ATOM     11  N   UNL     1      50.019  10.227  11.593  0.00  0.00    +0.000 NA
ATOM     12  C   UNL     1      50.556   8.855  11.753  0.00  0.00    +0.000 C 
ATOM     13  C   UNL     1      49.470   7.785  11.525  0.00  0.00    +0.000 C 
ATOM     14  N   UNL     1      48.360   8.007  12.474  0.00  0.00    +0.000 N 
ATOM     15  C   UNL     1      47.754   9.331  12.312  0.00  0.00    +0.000 C 
ATOM     16  C   UNL     1      48.858  10.408  12.498  0.00  0.00    +0.000 C 
ENDBRANCH   4  14
ENDBRANCH   1   8
BRANCH   1  17
ATOM     17  C   UNL     1      44.319   5.318  10.726  0.00  0.00    +0.000 C 
BRANCH  17  18
ATOM     18  N   UNL     1      43.863   4.246   9.831  0.00  0.00    +0.000 N 
ATOM     19  H   UNL     1      43.022   4.443   9.289  0.00  0.00    +0.000 HD
BRANCH  18  20
ATOM     20  C   UNL     1      44.796   3.670   8.970  0.00  0.00    +0.000 A 
ATOM     21  N   UNL     1      45.534   4.546   8.252  0.00  0.00    +0.000 NA
ATOM     22  C   UNL     1      46.501   4.053   7.429  0.00  0.00    +0.000 A 
ATOM     23  C   UNL     1      46.757   2.701   7.261  0.00  0.00    +0.000 A 
ATOM     24  C   UNL     1      45.982   1.800   7.982  0.00  0.00    +0.000 A 
ATOM     25  C   UNL     1      44.992   2.292   8.828  0.00  0.00    +0.000 A 
ATOM     26  F   UNL     1      44.263   1.408   9.528  0.00  0.00    +0.000 F 
BRANCH  23  27
ATOM     27  C   UNL     1      47.846   2.284   6.357  0.00  0.00    +0.000 C 
ATOM     28  N   UNL     1      47.951   2.939   5.162  0.00  0.00    +0.000 N 
ATOM     29  O   UNL     1      48.635   1.406   6.675  0.00  0.00    +0.000 OA
ATOM     30  H   UNL     1      47.475   3.809   4.970  0.00  0.00    +0.000 HD
ATOM     31  H   UNL     1      48.763   2.720   4.595  0.00  0.00    +0.000 HD
ENDBRANCH  23  27
ENDBRANCH  18  20
ENDBRANCH  17  18
ENDBRANCH   1  17
TORSDOF 6
ENDMDL
MODEL 4
REMARK VINA RESULT:    -7.421      3.133      8.375
REMARK INTER + INTRA:         -10.864
REMARK INTER:                  -9.727
REMARK INTRA:                  -1.137
REMARK UNBOUND:                -0.840
REMARK  Name = 
REMARK  9 active torsions:
REMARK  status: ('A' for Active; 'I' for Inactive)
REMARK    1  A    between atoms: C_1  and  N_2
REMARK    2  A    between atoms: N_5  and  C_6
REMARK    3  A    between atoms: C_10  and  C_11
REMARK    4  A    between atoms: C_11  and  C_12
REMARK    5  A    between atoms: C_11  and  C_13
REMARK    6  A    between atoms: C_11  and  C_14
REMARK    7  A    between atoms: C_14  and  N_15
REMARK    8  A    between atoms: N_15  and  C_16
REMARK    9  A    between atoms: C_19  and  C_20
REMARK                            x       y       z     vdW  Elec       q    Type
REMARK                         _______ _______ _______ _____ _____    ______ ____
ROOT
ATOM      1  C   UNL     1      46.420   7.561  12.460  0.00  0.00    +0.000 C 
ATOM      2  C   UNL     1      47.585   7.652  11.443  0.00  0.00    +0.000 C 
ATOM      3  C   UNL     1      45.621   8.883  12.399  0.00  0.00    +0.000 C 
ENDROOT
BRANCH   1   8
ATOM      4  C   UNL     1      44.992   4.491  10.529  0.00  0.00    +0.000 A 
ATOM      5  C   UNL     1      43.957   4.122  11.382  0.00  0.00    +0.000 A 
ATOM      6  C   UNL     1      43.664   4.868  12.527  0.00  0.00    +0.000 A 
ATOM      7  C   UNL     1      44.436   5.982  12.868  0.00  0.00    +0.000 A 
ATOM      8  C   UNL     1      45.504   6.390  12.060  0.00  0.00    +0.000 A 
ATOM      9  C   UNL     1      45.706   5.656  10.876  0.00  0.00    +0.000 A 
BRANCH   4  14
ATOM     10  C   UNL     1      47.407   1.432   6.556  0.00  0.00    +0.000 C 
ATOM     11  N   UNL     1      46.327   2.203   7.167  0.00  0.00    +0.000 NA
ATOM     12  C   UNL     1      45.937   1.603   8.465  0.00  0.00    +0.000 C 
ATOM     13  C   UNL     1      44.839   2.427   9.170  0.00  0.00    +0.000 C 
ATOM     14  N   UNL     1      45.322   3.808   9.375  0.00  0.00    +0.000 N 
ATOM     15  C   UNL     1      45.663   4.465   8.111  0.00  0.00    +0.000 C 
ATOM     16  C   UNL     1      46.736   3.612   7.380  0.00  0.00    +0.000 C 
ENDBRANCH   4  14
ENDBRANCH   1   8
BRANCH   1  17
ATOM     17  C   UNL     1      47.090   7.438  13.875  0.00  0.00    +0.000 C 
BRANCH  17  18
ATOM     18  N   UNL     1      48.098   6.375  13.985  0.00  0.00    +0.000 N 
ATOM     19  H   UNL     1      49.031   6.607  13.644  0.00  0.00    +0.000 HD
BRANCH  18  20
ATOM     20  C   UNL     1      48.245   5.736  15.214  0.00  0.00    +0.000 A 
ATOM     21  N   UNL     1      49.281   6.167  15.968  0.00  0.00    +0.000 NA
ATOM     22  C   UNL     1      49.451   5.622  17.205  0.00  0.00    +0.000 A 
ATOM     23  C   UNL     1      48.640   4.628  17.729  0.00  0.00    +0.000 A 
ATOM     24  C   UNL     1      47.588   4.169  16.944  0.00  0.00    +0.000 A 
ATOM     25  C   UNL     1      47.403   4.719  15.679  0.00  0.00    +0.000 A 
ATOM     26  F   UNL     1      46.373   4.275  14.942  0.00  0.00    +0.000 F 
BRANCH  23  27
ATOM     27  C   UNL     1      48.907   4.127  19.091  0.00  0.00    +0.000 C 
ATOM     28  N   UNL     1      48.278   2.973  19.466  0.00  0.00    +0.000 N 
ATOM     29  O   UNL     1      49.677   4.708  19.842  0.00  0.00    +0.000 OA
ATOM     30  H   UNL     1      47.830   2.353  18.806  0.00  0.00    +0.000 HD
ATOM     31  H   UNL     1      48.548   2.580  20.360  0.00  0.00    +0.000 HD
ENDBRANCH  23  27
ENDBRANCH  18  20
ENDBRANCH  17  18
ENDBRANCH   1  17
TORSDOF 6
ENDMDL
MODEL 5
REMARK VINA RESULT:    -7.050      3.250      5.059
REMARK INTER + INTRA:         -10.363
REMARK INTER:                  -9.135
REMARK INTRA:                  -1.227
REMARK UNBOUND:                -0.840
REMARK  Name = 
REMARK  9 active torsions:
REMARK  status: ('A' for Active; 'I' for Inactive)
REMARK    1  A    between atoms: C_1  and  N_2
REMARK    2  A    between atoms: N_5  and  C_6
REMARK    3  A    between atoms: C_10  and  C_11
REMARK    4  A    between atoms: C_11  and  C_12
REMARK    5  A    between atoms: C_11  and  C_13
REMARK    6  A    between atoms: C_11  and  C_14
REMARK    7  A    between atoms: C_14  and  N_15
REMARK    8  A    between atoms: N_15  and  C_16
REMARK    9  A    between atoms: C_19  and  C_20
REMARK                            x       y       z     vdW  Elec       q    Type
REMARK                         _______ _______ _______ _____ _____    ______ ____
ROOT
ATOM      1  C   UNL     1      48.263   8.322  12.889  0.00  0.00    +0.000 C 
ATOM      2  C   UNL     1      48.919   9.642  12.416  0.00  0.00    +0.000 C 
ATOM      3  C   UNL     1      49.015   7.144  12.229  0.00  0.00    +0.000 C 
ENDROOT
BRANCH   1   8
ATOM      4  C   UNL     1      48.959   6.879  16.443  0.00  0.00    +0.000 A 
ATOM      5  C   UNL     1      48.835   8.034  17.207  0.00  0.00    +0.000 A 
ATOM      6  C   UNL     1      48.472   9.252  16.624  0.00  0.00    +0.000 A 
ATOM      7  C   UNL     1      48.268   9.346  15.245  0.00  0.00    +0.000 A 
ATOM      8  C   UNL     1      48.399   8.223  14.420  0.00  0.00    +0.000 A 
ATOM      9  C   UNL     1      48.684   7.005  15.066  0.00  0.00    +0.000 A 
BRANCH   4  14
ATOM     10  C   UNL     1      50.844   1.719  17.333  0.00  0.00    +0.000 C 
ATOM     11  N   UNL     1      50.243   2.997  17.708  0.00  0.00    +0.000 NA
ATOM     12  C   UNL     1      51.173   4.112  17.407  0.00  0.00    +0.000 C 
ATOM     13  C   UNL     1      50.547   5.483  17.732  0.00  0.00    +0.000 C 
ATOM     14  N   UNL     1      49.298   5.644  16.960  0.00  0.00    +0.000 N 
ATOM     15  C   UNL     1      48.320   4.597  17.270  0.00  0.00    +0.000 C 
ATOM     16  C   UNL     1      48.967   3.214  16.985  0.00  0.00    +0.000 C 
ENDBRANCH   4  14
ENDBRANCH   1   8
BRANCH   1  17
ATOM     17  C   UNL     1      46.790   8.352  12.346  0.00  0.00    +0.000 C 
BRANCH  17  18
ATOM     18  N   UNL     1      45.814   7.640  13.182  0.00  0.00    +0.000 N 
ATOM     19  H   UNL     1      45.002   8.181  13.480  0.00  0.00    +0.000 HD
BRANCH  18  20
ATOM     20  C   UNL     1      45.357   6.399  12.743  0.00  0.00    +0.000 A 
ATOM     21  N   UNL     1      44.551   6.432  11.659  0.00  0.00    +0.000 NA
ATOM     22  C   UNL     1      44.111   5.250  11.144  0.00  0.00    +0.000 A 
ATOM     23  C   UNL     1      44.418   4.011  11.683  0.00  0.00    +0.000 A 
ATOM     24  C   UNL     1      45.229   3.978  12.812  0.00  0.00    +0.000 A 
ATOM     25  C   UNL     1      45.686   5.180  13.347  0.00  0.00    +0.000 A 
ATOM     26  F   UNL     1      46.480   5.128  14.428  0.00  0.00    +0.000 F 
BRANCH  23  27
ATOM     27  C   UNL     1      43.901   2.795  11.028  0.00  0.00    +0.000 C 
ATOM     28  N   UNL     1      44.583   2.337   9.935  0.00  0.00    +0.000 N 
ATOM     29  O   UNL     1      42.918   2.208  11.459  0.00  0.00    +0.000 OA
ATOM     30  H   UNL     1      45.513   2.652   9.698  0.00  0.00    +0.000 HD
ATOM     31  H   UNL     1      44.285   1.445   9.557  0.00  0.00    +0.000 HD
ENDBRANCH  23  27
ENDBRANCH  18  20
ENDBRANCH  17  18
ENDBRANCH   1  17
TORSDOF 6
ENDMDL
MODEL 6
REMARK VINA RESULT:    -7.013      4.272      8.052
REMARK INTER + INTRA:         -10.314
REMARK INTER:                  -9.123
REMARK INTRA:                  -1.191
REMARK UNBOUND:                -0.840
REMARK  Name = 
REMARK  9 active torsions:
REMARK  status: ('A' for Active; 'I' for Inactive)
REMARK    1  A    between atoms: C_1  and  N_2
REMARK    2  A    between atoms: N_5  and  C_6
REMARK    3  A    between atoms: C_10  and  C_11
REMARK    4  A    between atoms: C_11  and  C_12
REMARK    5  A    between atoms: C_11  and  C_13
REMARK    6  A    between atoms: C_11  and  C_14
REMARK    7  A    between atoms: C_14  and  N_15
REMARK    8  A    between atoms: N_15  and  C_16
REMARK    9  A    between atoms: C_19  and  C_20
REMARK                            x       y       z     vdW  Elec       q    Type
REMARK                         _______ _______ _______ _____ _____    ______ ____
ROOT
ATOM      1  C   UNL     1      49.526   8.490  12.399  0.00  0.00    +0.000 C 
ATOM      2  C   UNL     1      50.071   7.671  11.204  0.00  0.00    +0.000 C 
ATOM      3  C   UNL     1      50.224   9.870  12.399  0.00  0.00    +0.000 C 
ENDROOT
BRANCH   1   8
ATOM      4  C   UNL     1      45.717   7.710  12.136  0.00  0.00    +0.000 A 
ATOM      5  C   UNL     1      45.204   9.001  12.066  0.00  0.00    +0.000 A 
ATOM      6  C   UNL     1      46.049  10.114  12.037  0.00  0.00    +0.000 A 
ATOM      7  C   UNL     1      47.435   9.956  12.123  0.00  0.00    +0.000 A 
ATOM      8  C   UNL     1      48.010   8.683  12.217  0.00  0.00    +0.000 A 
ATOM      9  C   UNL     1      47.121   7.593  12.159  0.00  0.00    +0.000 A 
BRANCH   4  14
ATOM     10  C   UNL     1      43.491   2.667  11.370  0.00  0.00    +0.000 C 
ATOM     11  N   UNL     1      43.610   3.987  11.984  0.00  0.00    +0.000 NA
ATOM     12  C   UNL     1      44.946   4.149  12.604  0.00  0.00    +0.000 C 
ATOM     13  C   UNL     1      45.131   5.556  13.208  0.00  0.00    +0.000 C 
ATOM     14  N   UNL     1      44.937   6.570  12.152  0.00  0.00    +0.000 N 
ATOM     15  C   UNL     1      43.603   6.489  11.550  0.00  0.00    +0.000 C 
ATOM     16  C   UNL     1      43.401   5.058  10.980  0.00  0.00    +0.000 C 
ENDBRANCH   4  14
ENDBRANCH   1   8
BRANCH   1  17
ATOM     17  C   UNL     1      49.954   7.706  13.691  0.00  0.00    +0.000 C 
BRANCH  17  18
ATOM     18  N   UNL     1      49.165   8.024  14.889  0.00  0.00    +0.000 N 
ATOM     19  H   UNL     1      48.359   8.632  14.745  0.00  0.00    +0.000 HD
BRANCH  18  20
ATOM     20  C   UNL     1      48.758   6.970  15.705  0.00  0.00    +0.000 A 
ATOM     21  N   UNL     1      48.287   5.885  15.051  0.00  0.00    +0.000 NA
ATOM     22  C   UNL     1      47.921   4.797  15.784  0.00  0.00    +0.000 A 
ATOM     23  C   UNL     1      47.977   4.744  17.168  0.00  0.00    +0.000 A 
ATOM     24  C   UNL     1      48.442   5.868  17.841  0.00  0.00    +0.000 A 
ATOM     25  C   UNL     1      48.819   6.986  17.103  0.00  0.00    +0.000 A 
ATOM     26  F   UNL     1      49.280   8.057  17.769  0.00  0.00    +0.000 F 
BRANCH  23  27
ATOM     27  C   UNL     1      47.575   3.502  17.856  0.00  0.00    +0.000 C 
ATOM     28  N   UNL     1      48.298   3.136  18.957  0.00  0.00    +0.000 N 
ATOM     29  O   UNL     1      46.619   2.843  17.471  0.00  0.00    +0.000 OA
ATOM     30  H   UNL     1      48.930   3.765  19.432  0.00  0.00    +0.000 HD
ATOM     31  H   UNL     1      47.950   2.343  19.484  0.00  0.00    +0.000 HD
ENDBRANCH  23  27
ENDBRANCH  18  20
ENDBRANCH  17  18
ENDBRANCH   1  17
TORSDOF 6
ENDMDL
MODEL 7
REMARK VINA RESULT:    -6.593      2.957      5.956
REMARK INTER + INTRA:          -9.745
REMARK INTER:                  -8.624
REMARK INTRA:                  -1.121
REMARK UNBOUND:                -0.840
REMARK  Name = 
REMARK  9 active torsions:
REMARK  status: ('A' for Active; 'I' for Inactive)
REMARK    1  A    between atoms: C_1  and  N_2
REMARK    2  A    between atoms: N_5  and  C_6
REMARK    3  A    between atoms: C_10  and  C_11
REMARK    4  A    between atoms: C_11  and  C_12
REMARK    5  A    between atoms: C_11  and  C_13
REMARK    6  A    between atoms: C_11  and  C_14
REMARK    7  A    between atoms: C_14  and  N_15
REMARK    8  A    between atoms: N_15  and  C_16
REMARK    9  A    between atoms: C_19  and  C_20
REMARK                            x       y       z     vdW  Elec       q    Type
REMARK                         _______ _______ _______ _____ _____    ______ ____
ROOT
ATOM      1  C   UNL     1      48.084   3.622  16.835  0.00  0.00    +0.000 C 
ATOM      2  C   UNL     1      49.442   2.884  16.929  0.00  0.00    +0.000 C 
ATOM      3  C   UNL     1      47.091   2.932  17.798  0.00  0.00    +0.000 C 
ENDROOT
BRANCH   1   8
ATOM      4  C   UNL     1      48.945   7.421  16.702  0.00  0.00    +0.000 A 
ATOM      5  C   UNL     1      48.505   7.818  17.960  0.00  0.00    +0.000 A 
ATOM      6  C   UNL     1      47.997   6.892  18.875  0.00  0.00    +0.000 A 
ATOM      7  C   UNL     1      47.878   5.543  18.528  0.00  0.00    +0.000 A 
ATOM      8  C   UNL     1      48.285   5.085  17.269  0.00  0.00    +0.000 A 
ATOM      9  C   UNL     1      48.865   6.043  16.416  0.00  0.00    +0.000 A 
BRANCH   4  14
ATOM     10  C   UNL     1      49.800  11.087  12.603  0.00  0.00    +0.000 C 
ATOM     11  N   UNL     1      50.188  10.227  13.718  0.00  0.00    +0.000 NA
ATOM     12  C   UNL     1      49.447  10.607  14.944  0.00  0.00    +0.000 C 
ATOM     13  C   UNL     1      49.786   9.678  16.129  0.00  0.00    +0.000 C 
ATOM     14  N   UNL     1      49.471   8.283  15.760  0.00  0.00    +0.000 N 
ATOM     15  C   UNL     1      50.229   7.840  14.586  0.00  0.00    +0.000 C 
ATOM     16  C   UNL     1      49.922   8.802  13.405  0.00  0.00    +0.000 C 
ENDBRANCH   4  14
ENDBRANCH   1   8
BRANCH   1  17
ATOM     17  C   UNL     1      47.584   3.420  15.361  0.00  0.00    +0.000 C 
BRANCH  17  18
ATOM     18  N   UNL     1      46.410   4.225  14.997  0.00  0.00    +0.000 N 
ATOM     19  H   UNL     1      46.312   5.117  15.483  0.00  0.00    +0.000 HD
BRANCH  18  20
ATOM     20  C   UNL     1      46.165   4.452  13.644  0.00  0.00    +0.000 A 
ATOM     21  N   UNL     1      45.613   3.415  12.976  0.00  0.00    +0.000 NA
ATOM     22  C   UNL     1      45.297   3.586  11.662  0.00  0.00    +0.000 A 
ATOM     23  C   UNL     1      45.534   4.756  10.957  0.00  0.00    +0.000 A 
ATOM     24  C   UNL     1      46.123   5.815  11.639  0.00  0.00    +0.000 A 
ATOM     25  C   UNL     1      46.449   5.653  12.983  0.00  0.00    +0.000 A 
ATOM     26  F   UNL     1      47.002   6.692  13.629  0.00  0.00    +0.000 F 
BRANCH  23  27
ATOM     27  C   UNL     1      45.131   4.835   9.540  0.00  0.00    +0.000 C 
ATOM     28  N   UNL     1      43.836   4.514   9.242  0.00  0.00    +0.000 N 
ATOM     29  O   UNL     1      45.916   5.196   8.675  0.00  0.00    +0.000 OA
ATOM     30  H   UNL     1      43.113   4.441   9.943  0.00  0.00    +0.000 HD
ATOM     31  H   UNL     1      43.539   4.672   8.285  0.00  0.00    +0.000 HD
ENDBRANCH  23  27
ENDBRANCH  18  20
ENDBRANCH  17  18
ENDBRANCH   1  17
TORSDOF 6
ENDMDL
MODEL 8
REMARK VINA RESULT:    -6.352      4.056      6.594
REMARK INTER + INTRA:          -9.420
REMARK INTER:                  -9.046
REMARK INTRA:                  -0.375
REMARK UNBOUND:                -0.840
REMARK  Name = 
REMARK  9 active torsions:
REMARK  status: ('A' for Active; 'I' for Inactive)
REMARK    1  A    between atoms: C_1  and  N_2
REMARK    2  A    between atoms: N_5  and  C_6
REMARK    3  A    between atoms: C_10  and  C_11
REMARK    4  A    between atoms: C_11  and  C_12
REMARK    5  A    between atoms: C_11  and  C_13
REMARK    6  A    between atoms: C_11  and  C_14
REMARK    7  A    between atoms: C_14  and  N_15
REMARK    8  A    between atoms: N_15  and  C_16
REMARK    9  A    between atoms: C_19  and  C_20
REMARK                            x       y       z     vdW  Elec       q    Type
REMARK                         _______ _______ _______ _____ _____    ______ ____
ROOT
ATOM      1  C   UNL     1      48.021   4.046  17.232  0.00  0.00    +0.000 C 
ATOM      2  C   UNL     1      47.067   2.855  17.496  0.00  0.00    +0.000 C 
ATOM      3  C   UNL     1      47.780   5.111  18.327  0.00  0.00    +0.000 C 
ENDROOT
BRANCH   1   8
ATOM      4  C   UNL     1      51.873   3.991  17.823  0.00  0.00    +0.000 A 
ATOM      5  C   UNL     1      52.129   2.634  17.659  0.00  0.00    +0.000 A 
ATOM      6  C   UNL     1      51.112   1.744  17.303  0.00  0.00    +0.000 A 
ATOM      7  C   UNL     1      49.797   2.193  17.145  0.00  0.00    +0.000 A 
ATOM      8  C   UNL     1      49.474   3.544  17.317  0.00  0.00    +0.000 A 
ATOM      9  C   UNL     1      50.547   4.412  17.594  0.00  0.00    +0.000 A 
BRANCH   4  14
ATOM     10  C   UNL     1      55.212   8.428  18.189  0.00  0.00    +0.000 C 
ATOM     11  N   UNL     1      54.660   7.143  18.609  0.00  0.00    +0.000 NA
ATOM     12  C   UNL     1      53.202   7.260  18.844  0.00  0.00    +0.000 C 
ATOM     13  C   UNL     1      52.573   5.905  19.230  0.00  0.00    +0.000 C 
ATOM     14  N   UNL     1      52.836   4.923  18.158  0.00  0.00    +0.000 N 
ATOM     15  C   UNL     1      54.270   4.726  17.932  0.00  0.00    +0.000 C 
ATOM     16  C   UNL     1      54.911   6.099  17.587  0.00  0.00    +0.000 C 
ENDBRANCH   4  14
ENDBRANCH   1   8
BRANCH   1  17
ATOM     17  C   UNL     1      47.595   4.641  15.843  0.00  0.00    +0.000 C 
BRANCH  17  18
ATOM     18  N   UNL     1      47.337   3.639  14.801  0.00  0.00    +0.000 N 
ATOM     19  H   UNL     1      46.971   2.743  15.123  0.00  0.00    +0.000 HD
BRANCH  18  20
ATOM     20  C   UNL     1      46.588   4.025  13.691  0.00  0.00    +0.000 A 
ATOM     21  N   UNL     1      45.897   3.033  13.088  0.00  0.00    +0.000 NA
ATOM     22  C   UNL     1      45.101   3.350  12.029  0.00  0.00    +0.000 A 
ATOM     23  C   UNL     1      44.979   4.630  11.511  0.00  0.00    +0.000 A 
ATOM     24  C   UNL     1      45.708   5.647  12.117  0.00  0.00    +0.000 A 
ATOM     25  C   UNL     1      46.523   5.335  13.202  0.00  0.00    +0.000 A 
ATOM     26  F   UNL     1      47.208   6.332  13.784  0.00  0.00    +0.000 F 
BRANCH  23  27
ATOM     27  C   UNL     1      44.070   4.860  10.372  0.00  0.00    +0.000 C 
ATOM     28  N   UNL     1      44.506   4.470   9.137  0.00  0.00    +0.000 N 
ATOM     29  O   UNL     1      42.963   5.356  10.531  0.00  0.00    +0.000 OA
ATOM     30  H   UNL     1      45.297   3.856   9.003  0.00  0.00    +0.000 HD
ATOM     31  H   UNL     1      43.836   4.533   8.379  0.00  0.00    +0.000 HD
ENDBRANCH  23  27
ENDBRANCH  18  20
ENDBRANCH  17  18
ENDBRANCH   1  17
TORSDOF 6
ENDMDL
MODEL 9
REMARK VINA RESULT:    -6.245      3.669      5.987
REMARK INTER + INTRA:          -9.276
REMARK INTER:                  -8.358
REMARK INTRA:                  -0.918
REMARK UNBOUND:                -0.840
REMARK  Name = 
REMARK  9 active torsions:
REMARK  status: ('A' for Active; 'I' for Inactive)
REMARK    1  A    between atoms: C_1  and  N_2
REMARK    2  A    between atoms: N_5  and  C_6
REMARK    3  A    between atoms: C_10  and  C_11
REMARK    4  A    between atoms: C_11  and  C_12
REMARK    5  A    between atoms: C_11  and  C_13
REMARK    6  A    between atoms: C_11  and  C_14
REMARK    7  A    between atoms: C_14  and  N_15
REMARK    8  A    between atoms: N_15  and  C_16
REMARK    9  A    between atoms: C_19  and  C_20
REMARK                            x       y       z     vdW  Elec       q    Type
REMARK                         _______ _______ _______ _____ _____    ______ ____
ROOT
ATOM      1  C   UNL     1      49.352   8.225  14.538  0.00  0.00    +0.000 C 
ATOM      2  C   UNL     1      48.965   9.723  14.592  0.00  0.00    +0.000 C 
ATOM      3  C   UNL     1      50.839   8.124  14.128  0.00  0.00    +0.000 C 
ENDROOT
BRANCH   1   8
ATOM      4  C   UNL     1      49.613   5.771  17.555  0.00  0.00    +0.000 A 
ATOM      5  C   UNL     1      49.002   6.532  18.546  0.00  0.00    +0.000 A 
ATOM      6  C   UNL     1      48.452   7.785  18.260  0.00  0.00    +0.000 A 
ATOM      7  C   UNL     1      48.543   8.324  16.974  0.00  0.00    +0.000 A 
ATOM      8  C   UNL     1      49.165   7.615  15.939  0.00  0.00    +0.000 A 
ATOM      9  C   UNL     1      49.629   6.325  16.259  0.00  0.00    +0.000 A 
BRANCH   4  14
ATOM     10  C   UNL     1      52.497   1.017  17.326  0.00  0.00    +0.000 C 
ATOM     11  N   UNL     1      51.587   1.991  17.924  0.00  0.00    +0.000 NA
ATOM     12  C   UNL     1      52.270   3.294  18.100  0.00  0.00    +0.000 C 
ATOM     13  C   UNL     1      51.320   4.366  18.672  0.00  0.00    +0.000 C 
ATOM     14  N   UNL     1      50.161   4.521  17.769  0.00  0.00    +0.000 N 
ATOM     15  C   UNL     1      49.415   3.270  17.612  0.00  0.00    +0.000 C 
ATOM     16  C   UNL     1      50.383   2.178  17.078  0.00  0.00    +0.000 C 
ENDBRANCH   4  14
ENDBRANCH   1   8
BRANCH   1  17
ATOM     17  C   UNL     1      48.470   7.590  13.405  0.00  0.00    +0.000 C 
BRANCH  17  18
ATOM     18  N   UNL     1      47.037   7.507  13.719  0.00  0.00    +0.000 N 
ATOM     19  H   UNL     1      46.512   8.379  13.645  0.00  0.00    +0.000 HD
BRANCH  18  20
ATOM     20  C   UNL     1      46.287   6.509  13.100  0.00  0.00    +0.000 A 
ATOM     21  N   UNL     1      46.331   5.299  13.701  0.00  0.00    +0.000 NA
ATOM     22  C   UNL     1      45.578   4.291  13.179  0.00  0.00    +0.000 A 
ATOM     23  C   UNL     1      44.788   4.422  12.048  0.00  0.00    +0.000 A 
ATOM     24  C   UNL     1      44.761   5.661  11.417  0.00  0.00    +0.000 A 
ATOM     25  C   UNL     1      45.525   6.700  11.942  0.00  0.00    +0.000 A 
ATOM     26  F   UNL     1      45.474   7.893  11.329  0.00  0.00    +0.000 F 
BRANCH  23  27
ATOM     27  C   UNL     1      43.998   3.265  11.585  0.00  0.00    +0.000 C 
ATOM     28  N   UNL     1      43.773   2.263  12.487  0.00  0.00    +0.000 N 
ATOM     29  O   UNL     1      43.544   3.218  10.451  0.00  0.00    +0.000 OA
ATOM     30  H   UNL     1      43.928   2.372  13.479  0.00  0.00    +0.000 HD
ATOM     31  H   UNL     1      43.143   1.524  12.195  0.00  0.00    +0.000 HD
ENDBRANCH  23  27
ENDBRANCH  18  20
ENDBRANCH  17  18
ENDBRANCH   1  17
TORSDOF 6
ENDMDL
