MODEL 1
REMARK VINA RESULT:    -8.607      0.000      0.000
REMARK INTER + INTRA:         -14.165
REMARK INTER:                 -12.633
REMARK INTRA:                  -1.533
REMARK UNBOUND:                -1.533
REMARK  Name = 
REMARK  9 active torsions:
REMARK  status: ('A' for Active; 'I' for Inactive)
REMARK    1  A    between atoms: C_1  and  O_2
REMARK    2  A    between atoms: O_2  and  C_3
REMARK    3  A    between atoms: C_10  and  C_11
REMARK    4  A    between atoms: N_13  and  C_14
REMARK    5  A    between atoms: C_14  and  C_15
REMARK    6  A    between atoms: C_18  and  C_19
REMARK    7  A    between atoms: C_19  and  N_20
REMARK    8  A    between atoms: N_20  and  C_21
REMARK    9  A    between atoms: C_21  and  C_22
REMARK                            x       y       z     vdW  Elec       q    Type
REMARK                         _______ _______ _______ _____ _____    ______ ____
ROOT
ATOM      1  C   UNL     1      47.058   8.173  13.203  0.00  0.00    +0.000 C 
ENDROOT
BRANCH   1   2
ATOM      2  C   UNL     1      46.133   7.271  12.426  0.00  0.00    +0.000 A 
ATOM      3  C   UNL     1      44.832   7.021  12.881  0.00  0.00    +0.000 A 
ATOM      4  C   UNL     1      43.985   6.158  12.178  0.00  0.00    +0.000 A 
ATOM      5  C   UNL     1      44.420   5.520  11.007  0.00  0.00    +0.000 A 
ATOM      6  C   UNL     1      45.728   5.756  10.563  0.00  0.00    +0.000 A 
ATOM      7  C   UNL     1      46.576   6.618  11.267  0.00  0.00    +0.000 A 
BRANCH   5   8
ATOM      8  C   UNL     1      43.495   4.594  10.247  0.00  0.00    +0.000 C 
BRANCH   8   9
ATOM      9  N   UNL     1      44.082   4.207   8.968  0.00  0.00    +0.000 NA
ATOM     10  H   UNL     1      44.933   4.745   8.813  0.00  0.00    +0.000 HD
BRANCH   9  11
ATOM     11  C   UNL     1      44.406   2.783   8.924  0.00  0.00    +0.000 C 
BRANCH  11  12
ATOM     12  C   UNL     1      45.580   2.524   8.005  0.00  0.00    +0.000 A 
ATOM     13  C   UNL     1      45.971   3.469   7.046  0.00  0.00    +0.000 A 
ATOM     14  C   UNL     1      47.069   3.225   6.218  0.00  0.00    +0.000 A 
ATOM     15  C   UNL     1      47.787   2.036   6.338  0.00  0.00    +0.000 A 
ATOM     16  C   UNL     1      47.406   1.088   7.285  0.00  0.00    +0.000 A 
ATOM     17  C   UNL     1      46.311   1.331   8.114  0.00  0.00    +0.000 A 
ENDBRANCH  11  12
ENDBRANCH   9  11
ENDBRANCH   8   9
ENDBRANCH   5   8
ENDBRANCH   1   2
BRANCH   1  20
ATOM     18  C   UNL     1      48.714   6.914  14.529  0.00  0.00    +0.000 C 
ATOM     19  O   UNL     1      49.508   6.897  13.590  0.00  0.00    +0.000 OA
ATOM     20  N   UNL     1      47.498   7.527  14.416  0.00  0.00    +0.000 N 
ATOM     21  H   UNL     1      46.854   7.524  15.195  0.00  0.00    +0.000 HD
BRANCH  18  29
ATOM     22  C   UNL     1      47.320   4.283  16.261  0.00  0.00    +0.000 A 
ATOM     23  N   UNL     1      47.016   3.274  17.102  0.00  0.00    +0.000 NA
ATOM     24  C   UNL     1      47.773   3.117  18.192  0.00  0.00    +0.000 A 
ATOM     25  N   UNL     1      48.808   3.863  18.562  0.00  0.00    +0.000 NA
ATOM     26  C   UNL     1      49.083   4.851  17.692  0.00  0.00    +0.000 A 
ATOM     27  S   UNL     1      50.369   5.912  18.010  0.00  0.00    +0.000 S 
ATOM     28  C   UNL     1      50.087   6.764  16.567  0.00  0.00    +0.000 A 
ATOM     29  C   UNL     1      49.030   6.266  15.815  0.00  0.00    +0.000 A 
ATOM     30  C   UNL     1      48.414   5.132  16.506  0.00  0.00    +0.000 A 
BRANCH  22  32
ATOM     31  C   UNL     1      47.021   3.659  14.025  0.00  0.00    +0.000 C 
ATOM     32  O   UNL     1      46.553   4.435  15.126  0.00  0.00    +0.000 OA
ENDBRANCH  22  32
ENDBRANCH  18  29
ENDBRANCH   1  20
TORSDOF 8
ENDMDL
MODEL 2
REMARK VINA RESULT:    -8.214      1.522      2.072
REMARK INTER + INTRA:         -13.588
REMARK INTER:                 -12.350
REMARK INTRA:                  -1.237
REMARK UNBOUND:                -1.533
REMARK  Name = 
REMARK  9 active torsions:
REMARK  status: ('A' for Active; 'I' for Inactive)
REMARK    1  A    between atoms: C_1  and  O_2
REMARK    2  A    between atoms: O_2  and  C_3
REMARK    3  A    between atoms: C_10  and  C_11
REMARK    4  A    between atoms: N_13  and  C_14
REMARK    5  A    between atoms: C_14  and  C_15
REMARK    6  A    between atoms: C_18  and  C_19
REMARK    7  A    between atoms: C_19  and  N_20
REMARK    8  A    between atoms: N_20  and  C_21
REMARK    9  A    between atoms: C_21  and  C_22
REMARK                            x       y       z     vdW  Elec       q    Type
REMARK                         _______ _______ _______ _____ _____    ______ ____
ROOT
ATOM      1  C   UNL     1      48.045   6.848  13.197  0.00  0.00    +0.000 C 
ENDROOT
BRANCH   1   2
ATOM      2  C   UNL     1      46.897   6.053  12.628  0.00  0.00    +0.000 A 
ATOM      3  C   UNL     1      46.416   6.317  11.339  0.00  0.00    +0.000 A 
ATOM      4  C   UNL     1      45.329   5.603  10.825  0.00  0.00    +0.000 A 
ATOM      5  C   UNL     1      44.693   4.613  11.588  0.00  0.00    +0.000 A 
ATOM      6  C   UNL     1      45.163   4.363  12.884  0.00  0.00    +0.000 A 
ATOM      7  C   UNL     1      46.249   5.079  13.400  0.00  0.00    +0.000 A 
BRANCH   5   8
ATOM      8  C   UNL     1      43.522   3.838  11.021  0.00  0.00    +0.000 C 
BRANCH   8   9
ATOM      9  N   UNL     1      43.793   3.414   9.651  0.00  0.00    +0.000 NA
ATOM     10  H   UNL     1      44.261   4.169   9.153  0.00  0.00    +0.000 HD
BRANCH   9  11
ATOM     11  C   UNL     1      44.636   2.222   9.606  0.00  0.00    +0.000 C 
BRANCH  11  12
ATOM     12  C   UNL     1      45.615   2.295   8.455  0.00  0.00    +0.000 A 
ATOM     13  C   UNL     1      46.354   1.171   8.059  0.00  0.00    +0.000 A 
ATOM     14  C   UNL     1      47.240   1.248   6.982  0.00  0.00    +0.000 A 
ATOM     15  C   UNL     1      47.400   2.448   6.291  0.00  0.00    +0.000 A 
ATOM     16  C   UNL     1      46.674   3.573   6.676  0.00  0.00    +0.000 A 
ATOM     17  C   UNL     1      45.787   3.497   7.751  0.00  0.00    +0.000 A 
ENDBRANCH  11  12
ENDBRANCH   9  11
ENDBRANCH   8   9
ENDBRANCH   5   8
ENDBRANCH   1   2
BRANCH   1  20
ATOM     18  C   UNL     1      49.073   6.908  15.438  0.00  0.00    +0.000 C 
ATOM     19  O   UNL     1      50.205   6.888  14.960  0.00  0.00    +0.000 OA
ATOM     20  N   UNL     1      47.965   6.898  14.637  0.00  0.00    +0.000 N 
ATOM     21  H   UNL     1      47.042   6.906  15.047  0.00  0.00    +0.000 HD
BRANCH  18  29
ATOM     22  C   UNL     1      48.795   4.447  17.833  0.00  0.00    +0.000 A 
ATOM     23  N   UNL     1      48.710   3.707  18.956  0.00  0.00    +0.000 NA
ATOM     24  C   UNL     1      48.566   4.349  20.120  0.00  0.00    +0.000 A 
ATOM     25  N   UNL     1      48.481   5.661  20.305  0.00  0.00    +0.000 NA
ATOM     26  C   UNL     1      48.580   6.362  19.161  0.00  0.00    +0.000 A 
ATOM     27  S   UNL     1      48.481   8.056  19.206  0.00  0.00    +0.000 S 
ATOM     28  C   UNL     1      48.696   8.161  17.524  0.00  0.00    +0.000 A 
ATOM     29  C   UNL     1      48.853   6.931  16.896  0.00  0.00    +0.000 A 
ATOM     30  C   UNL     1      48.758   5.851  17.880  0.00  0.00    +0.000 A 
BRANCH  22  32
ATOM     31  C   UNL     1      48.889   2.370  16.758  0.00  0.00    +0.000 C 
ATOM     32  O   UNL     1      48.964   3.788  16.634  0.00  0.00    +0.000 OA
ENDBRANCH  22  32
ENDBRANCH  18  29
ENDBRANCH   1  20
TORSDOF 8
ENDMDL
MODEL 3
REMARK VINA RESULT:    -7.875      2.244      3.066
REMARK INTER + INTRA:         -13.091
REMARK INTER:                 -11.886
REMARK INTRA:                  -1.205
REMARK UNBOUND:                -1.533
REMARK  Name = 
REMARK  9 active torsions:
REMARK  status: ('A' for Active; 'I' for Inactive)
REMARK    1  A    between atoms: C_1  and  O_2
REMARK    2  A    between atoms: O_2  and  C_3
REMARK    3  A    between atoms: C_10  and  C_11
REMARK    4  A    between atoms: N_13  and  C_14
REMARK    5  A    between atoms: C_14  and  C_15
REMARK    6  A    between atoms: C_18  and  C_19
REMARK    7  A    between atoms: C_19  and  N_20
REMARK    8  A    between atoms: N_20  and  C_21
REMARK    9  A    between atoms: C_21  and  C_22
REMARK                            x       y       z     vdW  Elec       q    Type
REMARK                         _______ _______ _______ _____ _____    ______ ____
ROOT
ATOM      1  C   UNL     1      48.041   6.635  13.671  0.00  0.00    +0.000 C 
ENDROOT
BRANCH   1   2
ATOM      2  C   UNL     1      46.873   6.009  12.953  0.00  0.00    +0.000 A 
ATOM      3  C   UNL     1      46.510   6.440  11.670  0.00  0.00    +0.000 A 
ATOM      4  C   UNL     1      45.406   5.882  11.017  0.00  0.00    +0.000 A 
ATOM      5  C   UNL     1      44.635   4.885  11.633  0.00  0.00    +0.000 A 
ATOM      6  C   UNL     1      44.988   4.468  12.924  0.00  0.00    +0.000 A 
ATOM      7  C   UNL     1      46.091   5.028  13.577  0.00  0.00    +0.000 A 
BRANCH   5   8
ATOM      8  C   UNL     1      43.446   4.281  10.918  0.00  0.00    +0.000 C 
BRANCH   8   9
ATOM      9  N   UNL     1      43.812   3.852   9.571  0.00  0.00    +0.000 NA
ATOM     10  H   UNL     1      44.432   4.545   9.155  0.00  0.00    +0.000 HD
BRANCH   9  11
ATOM     11  C   UNL     1      44.485   2.555   9.576  0.00  0.00    +0.000 C 
BRANCH  11  12
ATOM     12  C   UNL     1      45.503   2.470   8.460  0.00  0.00    +0.000 A 
ATOM     13  C   UNL     1      46.220   1.289   8.222  0.00  0.00    +0.000 A 
ATOM     14  C   UNL     1      47.142   1.218   7.175  0.00  0.00    +0.000 A 
ATOM     15  C   UNL     1      47.359   2.325   6.356  0.00  0.00    +0.000 A 
ATOM     16  C   UNL     1      46.655   3.506   6.584  0.00  0.00    +0.000 A 
ATOM     17  C   UNL     1      45.732   3.577   7.628  0.00  0.00    +0.000 A 
ENDBRANCH  11  12
ENDBRANCH   9  11
ENDBRANCH   8   9
ENDBRANCH   5   8
ENDBRANCH   1   2
BRANCH   1  20
ATOM     18  C   UNL     1      49.028   6.371  15.916  0.00  0.00    +0.000 C 
ATOM     19  O   UNL     1      50.166   6.520  15.474  0.00  0.00    +0.000 OA
ATOM     20  N   UNL     1      47.937   6.422  15.094  0.00  0.00    +0.000 N 
ATOM     21  H   UNL     1      47.010   6.289  15.473  0.00  0.00    +0.000 HD
BRANCH  18  29
ATOM     22  C   UNL     1      47.896   8.332  18.512  0.00  0.00    +0.000 A 
ATOM     23  N   UNL     1      47.433   8.846  19.669  0.00  0.00    +0.000 NA
ATOM     24  C   UNL     1      47.376   8.039  20.734  0.00  0.00    +0.000 A 
ATOM     25  N   UNL     1      47.742   6.763  20.792  0.00  0.00    +0.000 NA
ATOM     26  C   UNL     1      48.189   6.290  19.616  0.00  0.00    +0.000 A 
ATOM     27  S   UNL     1      48.712   4.678  19.507  0.00  0.00    +0.000 S 
ATOM     28  C   UNL     1      49.061   4.852  17.853  0.00  0.00    +0.000 A 
ATOM     29  C   UNL     1      48.787   6.118  17.348  0.00  0.00    +0.000 A 
ATOM     30  C   UNL     1      48.286   6.985  18.415  0.00  0.00    +0.000 A 
BRANCH  22  32
ATOM     31  C   UNL     1      49.160   9.880  17.293  0.00  0.00    +0.000 C 
ATOM     32  O   UNL     1      47.937   9.157  17.408  0.00  0.00    +0.000 OA
ENDBRANCH  22  32
ENDBRANCH  18  29
ENDBRANCH   1  20
TORSDOF 8
ENDMDL
MODEL 4
REMARK VINA RESULT:    -7.454      1.960      3.453
REMARK INTER + INTRA:         -12.472
REMARK INTER:                 -11.137
REMARK INTRA:                  -1.335
REMARK UNBOUND:                -1.533
REMARK  Name = 
REMARK  9 active torsions:
REMARK  status: ('A' for Active; 'I' for Inactive)
REMARK    1  A    between atoms: C_1  and  O_2
REMARK    2  A    between atoms: O_2  and  C_3
REMARK    3  A    between atoms: C_10  and  C_11
REMARK    4  A    between atoms: N_13  and  C_14
REMARK    5  A    between atoms: C_14  and  C_15
REMARK    6  A    between atoms: C_18  and  C_19
REMARK    7  A    between atoms: C_19  and  N_20
REMARK    8  A    between atoms: N_20  and  C_21
REMARK    9  A    between atoms: C_21  and  C_22
REMARK                            x       y       z     vdW  Elec       q    Type
REMARK                         _______ _______ _______ _____ _____    ______ ____
ROOT
ATOM      1  C   UNL     1      47.257   3.966  14.723  0.00  0.00    +0.000 C 
ENDROOT
BRANCH   1   2
ATOM      2  C   UNL     1      46.297   4.244  13.594  0.00  0.00    +0.000 A 
ATOM      3  C   UNL     1      45.706   3.191  12.884  0.00  0.00    +0.000 A 
ATOM      4  C   UNL     1      44.842   3.449  11.815  0.00  0.00    +0.000 A 
ATOM      5  C   UNL     1      44.554   4.765  11.425  0.00  0.00    +0.000 A 
ATOM      6  C   UNL     1      45.161   5.817  12.123  0.00  0.00    +0.000 A 
ATOM      7  C   UNL     1      46.026   5.559  13.193  0.00  0.00    +0.000 A 
BRANCH   5   8
ATOM      8  C   UNL     1      43.612   5.037  10.272  0.00  0.00    +0.000 C 
BRANCH   8   9
ATOM      9  N   UNL     1      44.011   4.285   9.086  0.00  0.00    +0.000 NA
ATOM     10  H   UNL     1      43.383   4.512   8.318  0.00  0.00    +0.000 HD
BRANCH   9  11
ATOM     11  C   UNL     1      45.382   4.587   8.684  0.00  0.00    +0.000 C 
BRANCH  11  12
ATOM     12  C   UNL     1      46.033   3.385   8.035  0.00  0.00    +0.000 A 
ATOM     13  C   UNL     1      46.879   3.530   6.926  0.00  0.00    +0.000 A 
ATOM     14  C   UNL     1      47.489   2.413   6.350  0.00  0.00    +0.000 A 
ATOM     15  C   UNL     1      47.260   1.141   6.872  0.00  0.00    +0.000 A 
ATOM     16  C   UNL     1      46.418   0.984   7.972  0.00  0.00    +0.000 A 
ATOM     17  C   UNL     1      45.810   2.098   8.550  0.00  0.00    +0.000 A 
ENDBRANCH  11  12
ENDBRANCH   9  11
ENDBRANCH   8   9
ENDBRANCH   5   8
ENDBRANCH   1   2
BRANCH   1  20
ATOM     18  C   UNL     1      48.480   5.238  16.446  0.00  0.00    +0.000 C 
ATOM     19  O   UNL     1      49.182   4.266  16.718  0.00  0.00    +0.000 OA
ATOM     20  N   UNL     1      47.520   5.168  15.475  0.00  0.00    +0.000 N 
ATOM     21  H   UNL     1      46.946   5.975  15.270  0.00  0.00    +0.000 HD
BRANCH  18  29
ATOM     22  C   UNL     1      48.775   8.510  15.410  0.00  0.00    +0.000 A 
ATOM     23  N   UNL     1      48.847   9.850  15.286  0.00  0.00    +0.000 NA
ATOM     24  C   UNL     1      48.901  10.580  16.405  0.00  0.00    +0.000 A 
ATOM     25  N   UNL     1      48.906  10.131  17.654  0.00  0.00    +0.000 NA
ATOM     26  C   UNL     1      48.824   8.791  17.732  0.00  0.00    +0.000 A 
ATOM     27  S   UNL     1      48.830   8.040  19.255  0.00  0.00    +0.000 S 
ATOM     28  C   UNL     1      48.689   6.500  18.549  0.00  0.00    +0.000 A 
ATOM     29  C   UNL     1      48.629   6.519  17.161  0.00  0.00    +0.000 A 
ATOM     30  C   UNL     1      48.735   7.895  16.673  0.00  0.00    +0.000 A 
BRANCH  22  32
ATOM     31  C   UNL     1      49.804   7.958  13.381  0.00  0.00    +0.000 C 
ATOM     32  O   UNL     1      48.699   7.756  14.258  0.00  0.00    +0.000 OA
ENDBRANCH  22  32
ENDBRANCH  18  29
ENDBRANCH   1  20
TORSDOF 8
ENDMDL
MODEL 5
REMARK VINA RESULT:    -6.797      3.230      7.749
REMARK INTER + INTRA:         -11.508
REMARK INTER:                  -9.760
REMARK INTRA:                  -1.747
REMARK UNBOUND:                -1.533
REMARK  Name = 
REMARK  9 active torsions:
REMARK  status: ('A' for Active; 'I' for Inactive)
REMARK    1  A    between atoms: C_1  and  O_2
REMARK    2  A    between atoms: O_2  and  C_3
REMARK    3  A    between atoms: C_10  and  C_11
REMARK    4  A    between atoms: N_13  and  C_14
REMARK    5  A    between atoms: C_14  and  C_15
REMARK    6  A    between atoms: C_18  and  C_19
REMARK    7  A    between atoms: C_19  and  N_20
REMARK    8  A    between atoms: N_20  and  C_21
REMARK    9  A    between atoms: C_21  and  C_22
REMARK                            x       y       z     vdW  Elec       q    Type
REMARK                         _______ _______ _______ _____ _____    ______ ____
ROOT
ATOM      1  C   UNL     1      48.396   8.092  11.967  0.00  0.00    +0.000 C 
ENDROOT
BRANCH   1   2
ATOM      2  C   UNL     1      48.466   7.955  13.467  0.00  0.00    +0.000 A 
ATOM      3  C   UNL     1      48.130   9.032  14.298  0.00  0.00    +0.000 A 
ATOM      4  C   UNL     1      48.227   8.916  15.689  0.00  0.00    +0.000 A 
ATOM      5  C   UNL     1      48.667   7.723  16.282  0.00  0.00    +0.000 A 
ATOM      6  C   UNL     1      49.020   6.653  15.449  0.00  0.00    +0.000 A 
ATOM      7  C   UNL     1      48.925   6.770  14.057  0.00  0.00    +0.000 A 
BRANCH   5   8
ATOM      8  C   UNL     1      48.761   7.602  17.787  0.00  0.00    +0.000 C 
BRANCH   8   9
ATOM      9  N   UNL     1      47.549   7.004  18.338  0.00  0.00    +0.000 NA
ATOM     10  H   UNL     1      46.955   6.686  17.574  0.00  0.00    +0.000 HD
BRANCH   9  11
ATOM     11  C   UNL     1      47.848   5.871  19.210  0.00  0.00    +0.000 C 
BRANCH  11  12
ATOM     12  C   UNL     1      48.360   4.693  18.410  0.00  0.00    +0.000 A 
ATOM     13  C   UNL     1      49.711   4.322  18.451  0.00  0.00    +0.000 A 
ATOM     14  C   UNL     1      50.166   3.219  17.723  0.00  0.00    +0.000 A 
ATOM     15  C   UNL     1      49.277   2.478  16.946  0.00  0.00    +0.000 A 
ATOM     16  C   UNL     1      47.932   2.839  16.894  0.00  0.00    +0.000 A 
ATOM     17  C   UNL     1      47.476   3.938  17.622  0.00  0.00    +0.000 A 
ENDBRANCH  11  12
ENDBRANCH   9  11
ENDBRANCH   8   9
ENDBRANCH   5   8
ENDBRANCH   1   2
BRANCH   1  20
ATOM     18  C   UNL     1      46.304   6.939  11.354  0.00  0.00    +0.000 C 
ATOM     19  O   UNL     1      45.622   7.854  11.811  0.00  0.00    +0.000 OA
ATOM     20  N   UNL     1      47.670   6.988  11.389  0.00  0.00    +0.000 N 
ATOM     21  H   UNL     1      48.215   6.223  11.016  0.00  0.00    +0.000 HD
BRANCH  18  29
ATOM     22  C   UNL     1      44.495   4.313  12.658  0.00  0.00    +0.000 A 
ATOM     23  N   UNL     1      43.731   3.227  12.888  0.00  0.00    +0.000 NA
ATOM     24  C   UNL     1      43.393   2.465  11.842  0.00  0.00    +0.000 A 
ATOM     25  N   UNL     1      43.740   2.649  10.573  0.00  0.00    +0.000 NA
ATOM     26  C   UNL     1      44.492   3.748  10.387  0.00  0.00    +0.000 A 
ATOM     27  S   UNL     1      45.038   4.134   8.827  0.00  0.00    +0.000 S 
ATOM     28  C   UNL     1      45.822   5.531   9.393  0.00  0.00    +0.000 A 
ATOM     29  C   UNL     1      45.685   5.740  10.761  0.00  0.00    +0.000 A 
ATOM     30  C   UNL     1      44.906   4.654  11.358  0.00  0.00    +0.000 A 
BRANCH  22  32
ATOM     31  C   UNL     1      46.090   4.782  14.305  0.00  0.00    +0.000 C 
ATOM     32  O   UNL     1      44.827   5.111  13.732  0.00  0.00    +0.000 OA
ENDBRANCH  22  32
ENDBRANCH  18  29
ENDBRANCH   1  20
TORSDOF 8
ENDMDL
MODEL 6
REMARK VINA RESULT:    -6.266      3.567      8.189
REMARK INTER + INTRA:         -10.728
REMARK INTER:                  -8.501
REMARK INTRA:                  -2.228
REMARK UNBOUND:                -1.533
REMARK  Name = 
REMARK  9 active torsions:
REMARK  status: ('A' for Active; 'I' for Inactive)
REMARK    1  A    between atoms: C_1  and  O_2
REMARK    2  A    between atoms: O_2  and  C_3
REMARK    3  A    between atoms: C_10  and  C_11
REMARK    4  A    between atoms: N_13  and  C_14
REMARK    5  A    between atoms: C_14  and  C_15
REMARK    6  A    between atoms: C_18  and  C_19
REMARK    7  A    between atoms: C_19  and  N_20
REMARK    8  A    between atoms: N_20  and  C_21
REMARK    9  A    between atoms: C_21  and  C_22
REMARK                            x       y       z     vdW  Elec       q    Type
REMARK                         _______ _______ _______ _____ _____    ______ ____
ROOT
ATOM      1  C   UNL     1      48.484   8.410  14.556  0.00  0.00    +0.000 C 
ENDROOT
BRANCH   1   2
ATOM      2  C   UNL     1      49.038   8.043  15.910  0.00  0.00    +0.000 A 
ATOM      3  C   UNL     1      50.131   7.174  16.022  0.00  0.00    +0.000 A 
ATOM      4  C   UNL     1      50.623   6.807  17.279  0.00  0.00    +0.000 A 
ATOM      5  C   UNL     1      50.032   7.295  18.453  0.00  0.00    +0.000 A 
ATOM      6  C   UNL     1      48.927   8.150  18.340  0.00  0.00    +0.000 A 
ATOM      7  C   UNL     1      48.433   8.515  17.082  0.00  0.00    +0.000 A 
BRANCH   5   8
ATOM      8  C   UNL     1      50.575   6.900  19.809  0.00  0.00    +0.000 C 
BRANCH   8   9
ATOM      9  N   UNL     1      50.589   5.449  19.961  0.00  0.00    +0.000 NA
ATOM     10  H   UNL     1      51.146   5.202  20.778  0.00  0.00    +0.000 HD
BRANCH   9  11
ATOM     11  C   UNL     1      49.243   4.904  20.123  0.00  0.00    +0.000 C 
BRANCH  11  12
ATOM     12  C   UNL     1      48.763   4.262  18.840  0.00  0.00    +0.000 A 
ATOM     13  C   UNL     1      47.562   4.662  18.235  0.00  0.00    +0.000 A 
ATOM     14  C   UNL     1      47.141   4.075  17.040  0.00  0.00    +0.000 A 
ATOM     15  C   UNL     1      47.912   3.082  16.436  0.00  0.00    +0.000 A 
ATOM     16  C   UNL     1      49.105   2.674  17.029  0.00  0.00    +0.000 A 
ATOM     17  C   UNL     1      49.528   3.260  18.222  0.00  0.00    +0.000 A 
ENDBRANCH  11  12
ENDBRANCH   9  11
ENDBRANCH   8   9
ENDBRANCH   5   8
ENDBRANCH   1   2
BRANCH   1  20
ATOM     18  C   UNL     1      47.748   6.401  13.329  0.00  0.00    +0.000 C 
ATOM     19  O   UNL     1      48.885   6.194  12.911  0.00  0.00    +0.000 OA
ATOM     20  N   UNL     1      47.476   7.463  14.146  0.00  0.00    +0.000 N 
ATOM     21  H   UNL     1      46.533   7.624  14.473  0.00  0.00    +0.000 HD
BRANCH  18  29
ATOM     22  C   UNL     1      44.687   6.969  11.853  0.00  0.00    +0.000 A 
ATOM     23  N   UNL     1      43.481   6.901  11.254  0.00  0.00    +0.000 NA
ATOM     24  C   UNL     1      42.910   5.698  11.132  0.00  0.00    +0.000 A 
ATOM     25  N   UNL     1      43.395   4.535  11.553  0.00  0.00    +0.000 NA
ATOM     26  C   UNL     1      44.601   4.647  12.135  0.00  0.00    +0.000 A 
ATOM     27  S   UNL     1      45.368   3.261  12.744  0.00  0.00    +0.000 S 
ATOM     28  C   UNL     1      46.716   4.167  13.245  0.00  0.00    +0.000 A 
ATOM     29  C   UNL     1      46.621   5.525  12.960  0.00  0.00    +0.000 A 
ATOM     30  C   UNL     1      45.339   5.813  12.316  0.00  0.00    +0.000 A 
BRANCH  22  32
ATOM     31  C   UNL     1      44.517   9.256  11.383  0.00  0.00    +0.000 C 
ATOM     32  O   UNL     1      45.288   8.205  11.962  0.00  0.00    +0.000 OA
ENDBRANCH  22  32
ENDBRANCH  18  29
ENDBRANCH   1  20
TORSDOF 8
ENDMDL
MODEL 7
REMARK VINA RESULT:    -6.004      2.938      8.183
REMARK INTER + INTRA:         -10.344
REMARK INTER:                  -8.836
REMARK INTRA:                  -1.508
REMARK UNBOUND:                -1.533
REMARK  Name = 
REMARK  9 active torsions:
REMARK  status: ('A' for Active; 'I' for Inactive)
REMARK    1  A    between atoms: C_1  and  O_2
REMARK    2  A    between atoms: O_2  and  C_3
REMARK    3  A    between atoms: C_10  and  C_11
REMARK    4  A    between atoms: N_13  and  C_14
REMARK    5  A    between atoms: C_14  and  C_15
REMARK    6  A    between atoms: C_18  and  C_19
REMARK    7  A    between atoms: C_19  and  N_20
REMARK    8  A    between atoms: N_20  and  C_21
REMARK    9  A    between atoms: C_21  and  C_22
REMARK                            x       y       z     vdW  Elec       q    Type
REMARK                         _______ _______ _______ _____ _____    ______ ____
ROOT
ATOM      1  C   UNL     1      47.604   7.843  12.100  0.00  0.00    +0.000 C 
ENDROOT
BRANCH   1   2
ATOM      2  C   UNL     1      48.303   7.917  13.434  0.00  0.00    +0.000 A 
ATOM      3  C   UNL     1      47.793   8.719  14.462  0.00  0.00    +0.000 A 
ATOM      4  C   UNL     1      48.460   8.815  15.688  0.00  0.00    +0.000 A 
ATOM      5  C   UNL     1      49.655   8.116  15.913  0.00  0.00    +0.000 A 
ATOM      6  C   UNL     1      50.174   7.328  14.876  0.00  0.00    +0.000 A 
ATOM      7  C   UNL     1      49.507   7.234  13.649  0.00  0.00    +0.000 A 
BRANCH   5   8
ATOM      8  C   UNL     1      50.367   8.217  17.244  0.00  0.00    +0.000 C 
BRANCH   8   9
ATOM      9  N   UNL     1      49.652   7.469  18.274  0.00  0.00    +0.000 NA
ATOM     10  H   UNL     1      48.691   7.318  17.973  0.00  0.00    +0.000 HD
BRANCH   9  11
ATOM     11  C   UNL     1      50.276   6.176  18.541  0.00  0.00    +0.000 C 
BRANCH  11  12
ATOM     12  C   UNL     1      49.462   5.049  17.943  0.00  0.00    +0.000 A 
ATOM     13  C   UNL     1      50.033   3.791  17.702  0.00  0.00    +0.000 A 
ATOM     14  C   UNL     1      49.263   2.755  17.168  0.00  0.00    +0.000 A 
ATOM     15  C   UNL     1      47.918   2.962  16.869  0.00  0.00    +0.000 A 
ATOM     16  C   UNL     1      47.339   4.209  17.102  0.00  0.00    +0.000 A 
ATOM     17  C   UNL     1      48.106   5.245  17.637  0.00  0.00    +0.000 A 
ENDBRANCH  11  12
ENDBRANCH   9  11
ENDBRANCH   8   9
ENDBRANCH   5   8
ENDBRANCH   1   2
BRANCH   1  20
ATOM     18  C   UNL     1      45.519   6.600  11.663  0.00  0.00    +0.000 C 
ATOM     19  O   UNL     1      44.904   7.640  11.432  0.00  0.00    +0.000 OA
ATOM     20  N   UNL     1      46.846   6.621  11.989  0.00  0.00    +0.000 N 
ATOM     21  H   UNL     1      47.334   5.757  12.185  0.00  0.00    +0.000 HD
BRANCH  18  29
ATOM     22  C   UNL     1      45.305   4.143   9.258  0.00  0.00    +0.000 A 
ATOM     23  N   UNL     1      45.112   3.022   8.535  0.00  0.00    +0.000 NA
ATOM     24  C   UNL     1      44.408   2.031   9.092  0.00  0.00    +0.000 A 
ATOM     25  N   UNL     1      43.852   2.024  10.298  0.00  0.00    +0.000 NA
ATOM     26  C   UNL     1      44.077   3.156  10.988  0.00  0.00    +0.000 A 
ATOM     27  S   UNL     1      43.428   3.327  12.547  0.00  0.00    +0.000 S 
ATOM     28  C   UNL     1      44.119   4.871  12.717  0.00  0.00    +0.000 A 
ATOM     29  C   UNL     1      44.854   5.285  11.612  0.00  0.00    +0.000 A 
ATOM     30  C   UNL     1      44.805   4.263  10.566  0.00  0.00    +0.000 A 
BRANCH  22  32
ATOM     31  C   UNL     1      46.822   4.732   7.575  0.00  0.00    +0.000 C 
ATOM     32  O   UNL     1      46.048   5.158   8.694  0.00  0.00    +0.000 OA
ENDBRANCH  22  32
ENDBRANCH  18  29
ENDBRANCH   1  20
TORSDOF 8
ENDMDL
