MODEL 1
REMARK VINA RESULT:    -7.760      0.000      0.000
REMARK INTER + INTRA:         -11.617
REMARK INTER:                 -10.936
REMARK INTRA:                  -0.682
REMARK UNBOUND:                -0.682
REMARK  Name = 
REMARK  8 active torsions:
REMARK  status: ('A' for Active; 'I' for Inactive)
REMARK    1  A    between atoms: C_1  and  O_2
REMARK    2  A    between atoms: O_2  and  C_3
REMARK    3  A    between atoms: C_5  and  C_6
REMARK    4  A    between atoms: C_11  and  O_12
REMARK    5  A    between atoms: O_12  and  C_13
REMARK    6  A    between atoms: C_13  and  C_14
REMARK    7  A    between atoms: C_19  and  C_20
REMARK    8  A    between atoms: C_24  and  C_25
REMARK                            x       y       z     vdW  Elec       q    Type
REMARK                         _______ _______ _______ _____ _____    ______ ____
ROOT
ATOM      1  C   UNL     1      43.959   5.283  11.245  0.00  0.00    +0.000 C 
ENDROOT
BRANCH   1   2
ATOM      2  C   UNL     1      45.210   5.519  12.060  0.00  0.00    +0.000 A 
ATOM      3  C   UNL     1      45.499   4.716  13.162  0.00  0.00    +0.000 A 
ATOM      4  C   UNL     1      46.589   5.011  13.973  0.00  0.00    +0.000 A 
ATOM      5  C   UNL     1      47.420   6.102  13.684  0.00  0.00    +0.000 A 
ATOM      6 CL   UNL     1      48.634   6.429  14.883  0.00  0.00    +0.000 Cl
ATOM      7  C   UNL     1      47.215   6.890  12.529  0.00  0.00    +0.000 A 
ATOM      8  C   UNL     1      46.069   6.587  11.755  0.00  0.00    +0.000 A 
BRANCH   7   9
ATOM      9  C   UNL     1      48.124   7.978  12.075  0.00  0.00    +0.000 A 
ATOM     10  C   UNL     1      47.689   9.315  11.989  0.00  0.00    +0.000 A 
ATOM     11  C   UNL     1      48.532  10.337  11.542  0.00  0.00    +0.000 A 
ATOM     12  C   UNL     1      49.851  10.053  11.202  0.00  0.00    +0.000 A 
ATOM     13  C   UNL     1      50.313   8.740  11.271  0.00  0.00    +0.000 A 
ATOM     14  C   UNL     1      49.444   7.716  11.661  0.00  0.00    +0.000 A 
BRANCH  13  15
ATOM     15  C   UNL     1      51.680   8.437  10.968  0.00  0.00    +0.000 C 
ATOM     16  N   UNL     1      52.790   8.206  10.722  0.00  0.00    +0.000 NA
ENDBRANCH  13  15
ENDBRANCH   7   9
ENDBRANCH   1   2
BRANCH   1  17
ATOM     17  O   UNL     1      44.258   5.320   9.851  0.00  0.00    +0.000 OA
BRANCH  17  23
ATOM     18  C   UNL     1      44.513   2.854   9.526  0.00  0.00    +0.000 A 
ATOM     19  C   UNL     1      45.256   1.853   8.884  0.00  0.00    +0.000 A 
ATOM     20  C   UNL     1      46.300   2.161   8.001  0.00  0.00    +0.000 A 
ATOM     21  C   UNL     1      46.601   3.502   7.754  0.00  0.00    +0.000 A 
ATOM     22  C   UNL     1      45.876   4.509   8.405  0.00  0.00    +0.000 A 
ATOM     23  C   UNL     1      44.836   4.203   9.297  0.00  0.00    +0.000 A 
BRANCH  20  24
ATOM     24  C   UNL     1      47.006   1.011   7.367  0.00  0.00    +0.000 C 
ATOM     25  N   UNL     1      46.668  -0.257   7.737  0.00  0.00    +0.000 N 
ATOM     26  O   UNL     1      47.873   1.184   6.518  0.00  0.00    +0.000 OA
ATOM     27  H   UNL     1      45.967  -0.501   8.425  0.00  0.00    +0.000 HD
ATOM     28  H   UNL     1      47.169  -1.012   7.286  0.00  0.00    +0.000 HD
ENDBRANCH  20  24
BRANCH  18  30
ATOM     29  C   UNL     1      43.694   2.091  11.633  0.00  0.00    +0.000 C 
ATOM     30  O   UNL     1      43.433   2.553  10.313  0.00  0.00    +0.000 OA
ENDBRANCH  18  30
ENDBRANCH  17  23
ENDBRANCH   1  17
TORSDOF 7
ENDMDL
MODEL 2
REMARK VINA RESULT:    -7.708      2.372      4.000
REMARK INTER + INTRA:         -11.543
REMARK INTER:                 -11.218
REMARK INTRA:                  -0.325
REMARK UNBOUND:                -0.682
REMARK  Name = 
REMARK  8 active torsions:
REMARK  status: ('A' for Active; 'I' for Inactive)
REMARK    1  A    between atoms: C_1  and  O_2
REMARK    2  A    between atoms: O_2  and  C_3
REMARK    3  A    between atoms: C_5  and  C_6
REMARK    4  A    between atoms: C_11  and  O_12
REMARK    5  A    between atoms: O_12  and  C_13
REMARK    6  A    between atoms: C_13  and  C_14
REMARK    7  A    between atoms: C_19  and  C_20
REMARK    8  A    between atoms: C_24  and  C_25
REMARK                            x       y       z     vdW  Elec       q    Type
REMARK                         _______ _______ _______ _____ _____    ______ ____
ROOT
ATOM      1  C   UNL     1      44.001   5.217  11.474  0.00  0.00    +0.000 C 
ENDROOT
BRANCH   1   2
ATOM      2  C   UNL     1      45.303   5.759  12.020  0.00  0.00    +0.000 A 
ATOM      3  C   UNL     1      45.991   6.763  11.341  0.00  0.00    +0.000 A 
ATOM      4  C   UNL     1      47.242   7.174  11.788  0.00  0.00    +0.000 A 
ATOM      5  C   UNL     1      47.816   6.604  12.932  0.00  0.00    +0.000 A 
ATOM      6 CL   UNL     1      49.445   7.110  13.258  0.00  0.00    +0.000 Cl
ATOM      7  C   UNL     1      47.115   5.645  13.699  0.00  0.00    +0.000 A 
ATOM      8  C   UNL     1      45.866   5.219  13.186  0.00  0.00    +0.000 A 
BRANCH   7   9
ATOM      9  C   UNL     1      47.590   5.089  14.996  0.00  0.00    +0.000 A 
ATOM     10  C   UNL     1      47.349   3.749  15.357  0.00  0.00    +0.000 A 
ATOM     11  C   UNL     1      47.773   3.228  16.583  0.00  0.00    +0.000 A 
ATOM     12  C   UNL     1      48.484   4.029  17.471  0.00  0.00    +0.000 A 
ATOM     13  C   UNL     1      48.736   5.360  17.148  0.00  0.00    +0.000 A 
ATOM     14  C   UNL     1      48.255   5.888  15.945  0.00  0.00    +0.000 A 
BRANCH  13  15
ATOM     15  C   UNL     1      49.505   6.186  18.030  0.00  0.00    +0.000 C 
ATOM     16  N   UNL     1      50.142   6.848  18.740  0.00  0.00    +0.000 NA
ENDBRANCH  13  15
ENDBRANCH   7   9
ENDBRANCH   1   2
BRANCH   1  17
ATOM     17  O   UNL     1      44.037   5.173  10.049  0.00  0.00    +0.000 OA
BRANCH  17  23
ATOM     18  C   UNL     1      44.475   2.734   9.709  0.00  0.00    +0.000 A 
ATOM     19  C   UNL     1      45.261   1.796   9.027  0.00  0.00    +0.000 A 
ATOM     20  C   UNL     1      46.227   2.185   8.089  0.00  0.00    +0.000 A 
ATOM     21  C   UNL     1      46.404   3.544   7.828  0.00  0.00    +0.000 A 
ATOM     22  C   UNL     1      45.636   4.491   8.517  0.00  0.00    +0.000 A 
ATOM     23  C   UNL     1      44.674   4.104   9.464  0.00  0.00    +0.000 A 
BRANCH  20  24
ATOM     24  C   UNL     1      46.990   1.093   7.417  0.00  0.00    +0.000 C 
ATOM     25  N   UNL     1      46.657  -0.203   7.678  0.00  0.00    +0.000 N 
ATOM     26  O   UNL     1      47.899   1.340   6.633  0.00  0.00    +0.000 OA
ATOM     27  H   UNL     1      45.924  -0.506   8.306  0.00  0.00    +0.000 HD
ATOM     28  H   UNL     1      47.196  -0.916   7.204  0.00  0.00    +0.000 HD
ENDBRANCH  20  24
BRANCH  18  30
ATOM     29  C   UNL     1      43.781   2.233  11.936  0.00  0.00    +0.000 C 
ATOM     30  O   UNL     1      43.467   2.350  10.554  0.00  0.00    +0.000 OA
ENDBRANCH  18  30
ENDBRANCH  17  23
ENDBRANCH   1  17
TORSDOF 7
ENDMDL
MODEL 3
REMARK VINA RESULT:    -7.128      4.631      8.225
REMARK INTER + INTRA:         -10.727
REMARK INTER:                  -9.540
REMARK INTRA:                  -1.187
REMARK UNBOUND:                -0.682
REMARK  Name = 
REMARK  8 active torsions:
REMARK  status: ('A' for Active; 'I' for Inactive)
REMARK    1  A    between atoms: C_1  and  O_2
REMARK    2  A    between atoms: O_2  and  C_3
REMARK    3  A    between atoms: C_5  and  C_6
REMARK    4  A    between atoms: C_11  and  O_12
REMARK    5  A    between atoms: O_12  and  C_13
REMARK    6  A    between atoms: C_13  and  C_14
REMARK    7  A    between atoms: C_19  and  C_20
REMARK    8  A    between atoms: C_24  and  C_25
REMARK                            x       y       z     vdW  Elec       q    Type
REMARK                         _______ _______ _______ _____ _____    ______ ____
ROOT
ATOM      1  C   UNL     1      48.495   7.498  14.207  0.00  0.00    +0.000 C 
ENDROOT
BRANCH   1   2
ATOM      2  C   UNL     1      47.278   7.633  13.320  0.00  0.00    +0.000 A 
ATOM      3  C   UNL     1      46.597   8.846  13.233  0.00  0.00    +0.000 A 
ATOM      4  C   UNL     1      45.415   8.930  12.507  0.00  0.00    +0.000 A 
ATOM      5  C   UNL     1      44.905   7.810  11.838  0.00  0.00    +0.000 A 
ATOM      6 CL   UNL     1      43.342   8.041  11.117  0.00  0.00    +0.000 Cl
ATOM      7  C   UNL     1      45.609   6.584  11.827  0.00  0.00    +0.000 A 
ATOM      8  C   UNL     1      46.782   6.525  12.616  0.00  0.00    +0.000 A 
BRANCH   7   9
ATOM      9  C   UNL     1      45.211   5.388  11.035  0.00  0.00    +0.000 A 
ATOM     10  C   UNL     1      44.286   4.448  11.531  0.00  0.00    +0.000 A 
ATOM     11  C   UNL     1      43.926   3.311  10.801  0.00  0.00    +0.000 A 
ATOM     12  C   UNL     1      44.458   3.101   9.532  0.00  0.00    +0.000 A 
ATOM     13  C   UNL     1      45.379   4.008   9.013  0.00  0.00    +0.000 A 
ATOM     14  C   UNL     1      45.778   5.110   9.776  0.00  0.00    +0.000 A 
BRANCH  13  15
ATOM     15  C   UNL     1      45.902   3.832   7.691  0.00  0.00    +0.000 C 
ATOM     16  N   UNL     1      46.314   3.697   6.614  0.00  0.00    +0.000 NA
ENDBRANCH  13  15
ENDBRANCH   7   9
ENDBRANCH   1   2
BRANCH   1  17
ATOM     17  O   UNL     1      48.638   6.152  14.656  0.00  0.00    +0.000 OA
BRANCH  17  23
ATOM     18  C   UNL     1      48.009   4.712  16.602  0.00  0.00    +0.000 A 
ATOM     19  C   UNL     1      47.826   4.679  17.991  0.00  0.00    +0.000 A 
ATOM     20  C   UNL     1      48.079   5.799  18.795  0.00  0.00    +0.000 A 
ATOM     21  C   UNL     1      48.528   6.974  18.192  0.00  0.00    +0.000 A 
ATOM     22  C   UNL     1      48.697   7.023  16.802  0.00  0.00    +0.000 A 
ATOM     23  C   UNL     1      48.436   5.906  15.994  0.00  0.00    +0.000 A 
BRANCH  20  24
ATOM     24  C   UNL     1      47.863   5.635  20.262  0.00  0.00    +0.000 C 
ATOM     25  N   UNL     1      48.317   4.505  20.875  0.00  0.00    +0.000 N 
ATOM     26  O   UNL     1      47.296   6.498  20.923  0.00  0.00    +0.000 OA
ATOM     27  H   UNL     1      48.796   3.741  20.417  0.00  0.00    +0.000 HD
ATOM     28  H   UNL     1      48.152   4.429  21.870  0.00  0.00    +0.000 HD
ENDBRANCH  20  24
BRANCH  18  30
ATOM     29  C   UNL     1      48.499   2.401  16.266  0.00  0.00    +0.000 C 
ATOM     30  O   UNL     1      47.854   3.591  15.829  0.00  0.00    +0.000 OA
ENDBRANCH  18  30
ENDBRANCH  17  23
ENDBRANCH   1  17
TORSDOF 7
ENDMDL
MODEL 4
REMARK VINA RESULT:    -6.899      5.783      8.690
REMARK INTER + INTRA:         -10.404
REMARK INTER:                  -9.335
REMARK INTRA:                  -1.069
REMARK UNBOUND:                -0.682
REMARK  Name = 
REMARK  8 active torsions:
REMARK  status: ('A' for Active; 'I' for Inactive)
REMARK    1  A    between atoms: C_1  and  O_2
REMARK    2  A    between atoms: O_2  and  C_3
REMARK    3  A    between atoms: C_5  and  C_6
REMARK    4  A    between atoms: C_11  and  O_12
REMARK    5  A    between atoms: O_12  and  C_13
REMARK    6  A    between atoms: C_13  and  C_14
REMARK    7  A    between atoms: C_19  and  C_20
REMARK    8  A    between atoms: C_24  and  C_25
REMARK                            x       y       z     vdW  Elec       q    Type
REMARK                         _______ _______ _______ _____ _____    ______ ____
ROOT
ATOM      1  C   UNL     1      48.105   4.216  16.879  0.00  0.00    +0.000 C 
ENDROOT
BRANCH   1   2
ATOM      2  C   UNL     1      47.821   4.998  15.616  0.00  0.00    +0.000 A 
ATOM      3  C   UNL     1      48.588   6.115  15.288  0.00  0.00    +0.000 A 
ATOM      4  C   UNL     1      48.249   6.894  14.188  0.00  0.00    +0.000 A 
ATOM      5  C   UNL     1      47.151   6.558  13.385  0.00  0.00    +0.000 A 
ATOM      6 CL   UNL     1      46.767   7.721  12.153  0.00  0.00    +0.000 Cl
ATOM      7  C   UNL     1      46.400   5.385  13.630  0.00  0.00    +0.000 A 
ATOM      8  C   UNL     1      46.747   4.645  14.785  0.00  0.00    +0.000 A 
BRANCH   7   9
ATOM      9  C   UNL     1      45.308   4.883  12.752  0.00  0.00    +0.000 A 
ATOM     10  C   UNL     1      43.976   5.315  12.910  0.00  0.00    +0.000 A 
ATOM     11  C   UNL     1      42.943   4.829  12.103  0.00  0.00    +0.000 A 
ATOM     12  C   UNL     1      43.221   3.919  11.087  0.00  0.00    +0.000 A 
ATOM     13  C   UNL     1      44.527   3.467  10.907  0.00  0.00    +0.000 A 
ATOM     14  C   UNL     1      45.543   3.913  11.758  0.00  0.00    +0.000 A 
BRANCH  13  15
ATOM     15  C   UNL     1      44.839   2.565   9.838  0.00  0.00    +0.000 C 
ATOM     16  N   UNL     1      45.102   1.845   8.967  0.00  0.00    +0.000 NA
ENDBRANCH  13  15
ENDBRANCH   7   9
ENDBRANCH   1   2
BRANCH   1  17
ATOM     17  O   UNL     1      49.304   4.680  17.494  0.00  0.00    +0.000 OA
BRANCH  17  23
ATOM     18  C   UNL     1      51.675   4.049  17.982  0.00  0.00    +0.000 A 
ATOM     19  C   UNL     1      52.601   2.997  17.995  0.00  0.00    +0.000 A 
ATOM     20  C   UNL     1      52.233   1.685  17.664  0.00  0.00    +0.000 A 
ATOM     21  C   UNL     1      50.907   1.425  17.316  0.00  0.00    +0.000 A 
ATOM     22  C   UNL     1      49.977   2.473  17.282  0.00  0.00    +0.000 A 
ATOM     23  C   UNL     1      50.345   3.788  17.605  0.00  0.00    +0.000 A 
BRANCH  20  24
ATOM     24  C   UNL     1      53.303   0.649  17.731  0.00  0.00    +0.000 C 
ATOM     25  N   UNL     1      53.060  -0.509  18.407  0.00  0.00    +0.000 N 
ATOM     26  O   UNL     1      54.389   0.817  17.186  0.00  0.00    +0.000 OA
ATOM     27  H   UNL     1      52.200  -0.740  18.887  0.00  0.00    +0.000 HD
ATOM     28  H   UNL     1      53.810  -1.189  18.431  0.00  0.00    +0.000 HD
ENDBRANCH  20  24
BRANCH  18  30
ATOM     29  C   UNL     1      52.576   6.187  17.430  0.00  0.00    +0.000 C 
ATOM     30  O   UNL     1      52.013   5.310  18.398  0.00  0.00    +0.000 OA
ENDBRANCH  18  30
ENDBRANCH  17  23
ENDBRANCH   1  17
TORSDOF 7
ENDMDL
MODEL 5
REMARK VINA RESULT:    -6.753      4.772      7.983
REMARK INTER + INTRA:         -10.198
REMARK INTER:                  -9.228
REMARK INTRA:                  -0.970
REMARK UNBOUND:                -0.682
REMARK  Name = 
REMARK  8 active torsions:
REMARK  status: ('A' for Active; 'I' for Inactive)
REMARK    1  A    between atoms: C_1  and  O_2
REMARK    2  A    between atoms: O_2  and  C_3
REMARK    3  A    between atoms: C_5  and  C_6
REMARK    4  A    between atoms: C_11  and  O_12
REMARK    5  A    between atoms: O_12  and  C_13
REMARK    6  A    between atoms: C_13  and  C_14
REMARK    7  A    between atoms: C_19  and  C_20
REMARK    8  A    between atoms: C_24  and  C_25
REMARK                            x       y       z     vdW  Elec       q    Type
REMARK                         _______ _______ _______ _____ _____    ______ ____
ROOT
ATOM      1  C   UNL     1      49.068   7.351  14.141  0.00  0.00    +0.000 C 
ENDROOT
BRANCH   1   2
ATOM      2  C   UNL     1      47.874   7.722  13.290  0.00  0.00    +0.000 A 
ATOM      3  C   UNL     1      47.431   9.042  13.229  0.00  0.00    +0.000 A 
ATOM      4  C   UNL     1      46.266   9.355  12.537  0.00  0.00    +0.000 A 
ATOM      5  C   UNL     1      45.536   8.357  11.879  0.00  0.00    +0.000 A 
ATOM      6 CL   UNL     1      44.025   8.886  11.205  0.00  0.00    +0.000 Cl
ATOM      7  C   UNL     1      45.995   7.021  11.843  0.00  0.00    +0.000 A 
ATOM      8  C   UNL     1      47.158   6.734  12.597  0.00  0.00    +0.000 A 
BRANCH   7   9
ATOM      9  C   UNL     1      45.357   5.929  11.058  0.00  0.00    +0.000 A 
ATOM     10  C   UNL     1      44.180   5.292  11.501  0.00  0.00    +0.000 A 
ATOM     11  C   UNL     1      43.589   4.251  10.779  0.00  0.00    +0.000 A 
ATOM     12  C   UNL     1      44.143   3.840   9.570  0.00  0.00    +0.000 A 
ATOM     13  C   UNL     1      45.308   4.444   9.106  0.00  0.00    +0.000 A 
ATOM     14  C   UNL     1      45.925   5.443   9.865  0.00  0.00    +0.000 A 
BRANCH  13  15
ATOM     15  C   UNL     1      45.867   4.064   7.842  0.00  0.00    +0.000 C 
ATOM     16  N   UNL     1      46.310   3.743   6.819  0.00  0.00    +0.000 NA
ENDBRANCH  13  15
ENDBRANCH   7   9
ENDBRANCH   1   2
BRANCH   1  17
ATOM     17  O   UNL     1      48.673   7.157  15.497  0.00  0.00    +0.000 OA
BRANCH  17  23
ATOM     18  C   UNL     1      48.882   5.103  16.909  0.00  0.00    +0.000 A 
ATOM     19  C   UNL     1      49.768   4.303  17.644  0.00  0.00    +0.000 A 
ATOM     20  C   UNL     1      51.139   4.586  17.706  0.00  0.00    +0.000 A 
ATOM     21  C   UNL     1      51.631   5.693  17.013  0.00  0.00    +0.000 A 
ATOM     22  C   UNL     1      50.752   6.510  16.291  0.00  0.00    +0.000 A 
ATOM     23  C   UNL     1      49.377   6.234  16.235  0.00  0.00    +0.000 A 
BRANCH  20  24
ATOM     24  C   UNL     1      51.983   3.651  18.506  0.00  0.00    +0.000 C 
ATOM     25  N   UNL     1      52.033   2.337  18.149  0.00  0.00    +0.000 N 
ATOM     26  O   UNL     1      52.634   4.044  19.468  0.00  0.00    +0.000 OA
ATOM     27  H   UNL     1      51.535   1.919  17.373  0.00  0.00    +0.000 HD
ATOM     28  H   UNL     1      52.616   1.733  18.715  0.00  0.00    +0.000 HD
ENDBRANCH  20  24
BRANCH  18  30
ATOM     29  C   UNL     1      47.158   3.485  17.223  0.00  0.00    +0.000 C 
ATOM     30  O   UNL     1      47.560   4.772  16.771  0.00  0.00    +0.000 OA
ENDBRANCH  18  30
ENDBRANCH  17  23
ENDBRANCH   1  17
TORSDOF 7
ENDMDL
MODEL 6
REMARK VINA RESULT:    -6.542      4.752      6.698
REMARK INTER + INTRA:          -9.901
REMARK INTER:                  -8.694
REMARK INTRA:                  -1.207
REMARK UNBOUND:                -0.682
REMARK  Name = 
REMARK  8 active torsions:
REMARK  status: ('A' for Active; 'I' for Inactive)
REMARK    1  A    between atoms: C_1  and  O_2
REMARK    2  A    between atoms: O_2  and  C_3
REMARK    3  A    between atoms: C_5  and  C_6
REMARK    4  A    between atoms: C_11  and  O_12
REMARK    5  A    between atoms: O_12  and  C_13
REMARK    6  A    between atoms: C_13  and  C_14
REMARK    7  A    between atoms: C_19  and  C_20
REMARK    8  A    between atoms: C_24  and  C_25
REMARK                            x       y       z     vdW  Elec       q    Type
REMARK                         _______ _______ _______ _____ _____    ______ ____
ROOT
ATOM      1  C   UNL     1      49.034   7.150  12.774  0.00  0.00    +0.000 C 
ENDROOT
BRANCH   1   2
ATOM      2  C   UNL     1      49.583   7.837  14.003  0.00  0.00    +0.000 A 
ATOM      3  C   UNL     1      50.699   8.667  13.911  0.00  0.00    +0.000 A 
ATOM      4  C   UNL     1      51.266   9.202  15.062  0.00  0.00    +0.000 A 
ATOM      5  C   UNL     1      50.715   8.933  16.322  0.00  0.00    +0.000 A 
ATOM      6 CL   UNL     1      51.635   9.541  17.664  0.00  0.00    +0.000 Cl
ATOM      7  C   UNL     1      49.533   8.168  16.454  0.00  0.00    +0.000 A 
ATOM      8  C   UNL     1      49.014   7.603  15.264  0.00  0.00    +0.000 A 
BRANCH   7   9
ATOM      9  C   UNL     1      48.807   7.948  17.734  0.00  0.00    +0.000 A 
ATOM     10  C   UNL     1      47.938   8.920  18.267  0.00  0.00    +0.000 A 
ATOM     11  C   UNL     1      47.271   8.728  19.480  0.00  0.00    +0.000 A 
ATOM     12  C   UNL     1      47.429   7.535  20.180  0.00  0.00    +0.000 A 
ATOM     13  C   UNL     1      48.285   6.554  19.685  0.00  0.00    +0.000 A 
ATOM     14  C   UNL     1      48.994   6.781  18.501  0.00  0.00    +0.000 A 
BRANCH  13  15
ATOM     15  C   UNL     1      48.425   5.303  20.369  0.00  0.00    +0.000 C 
ATOM     16  N   UNL     1      48.549   4.296  20.932  0.00  0.00    +0.000 NA
ENDBRANCH  13  15
ENDBRANCH   7   9
ENDBRANCH   1   2
BRANCH   1  17
ATOM     17  O   UNL     1      48.553   5.848  13.102  0.00  0.00    +0.000 OA
BRANCH  17  23
ATOM     18  C   UNL     1      46.441   4.533  13.354  0.00  0.00    +0.000 A 
ATOM     19  C   UNL     1      45.112   4.407  12.928  0.00  0.00    +0.000 A 
ATOM     20  C   UNL     1      44.540   5.308  12.020  0.00  0.00    +0.000 A 
ATOM     21  C   UNL     1      45.318   6.359  11.533  0.00  0.00    +0.000 A 
ATOM     22  C   UNL     1      46.653   6.483  11.938  0.00  0.00    +0.000 A 
ATOM     23  C   UNL     1      47.231   5.576  12.840  0.00  0.00    +0.000 A 
BRANCH  20  24
ATOM     24  C   UNL     1      43.112   5.080  11.655  0.00  0.00    +0.000 C 
ATOM     25  N   UNL     1      42.241   6.127  11.709  0.00  0.00    +0.000 N 
ATOM     26  O   UNL     1      42.712   3.976  11.302  0.00  0.00    +0.000 OA
ATOM     27  H   UNL     1      42.474   7.072  11.985  0.00  0.00    +0.000 HD
ATOM     28  H   UNL     1      41.280   5.934  11.455  0.00  0.00    +0.000 HD
ENDBRANCH  20  24
BRANCH  18  30
ATOM     29  C   UNL     1      47.141   4.250  15.617  0.00  0.00    +0.000 C 
ATOM     30  O   UNL     1      46.970   3.709  14.313  0.00  0.00    +0.000 OA
ENDBRANCH  18  30
ENDBRANCH  17  23
ENDBRANCH   1  17
TORSDOF 7
ENDMDL
MODEL 7
REMARK VINA RESULT:    -6.490      5.650      7.369
REMARK INTER + INTRA:          -9.827
REMARK INTER:                  -8.591
REMARK INTRA:                  -1.236
REMARK UNBOUND:                -0.682
REMARK  Name = 
REMARK  8 active torsions:
REMARK  status: ('A' for Active; 'I' for Inactive)
REMARK    1  A    between atoms: C_1  and  O_2
REMARK    2  A    between atoms: O_2  and  C_3
REMARK    3  A    between atoms: C_5  and  C_6
REMARK    4  A    between atoms: C_11  and  O_12
REMARK    5  A    between atoms: O_12  and  C_13
REMARK    6  A    between atoms: C_13  and  C_14
REMARK    7  A    between atoms: C_19  and  C_20
REMARK    8  A    between atoms: C_24  and  C_25
REMARK                            x       y       z     vdW  Elec       q    Type
REMARK                         _______ _______ _______ _____ _____    ______ ____
ROOT
ATOM      1  C   UNL     1      48.659   7.149  15.132  0.00  0.00    +0.000 C 
ENDROOT
BRANCH   1   2
ATOM      2  C   UNL     1      49.086   6.541  16.449  0.00  0.00    +0.000 A 
ATOM      3  C   UNL     1      48.295   6.687  17.586  0.00  0.00    +0.000 A 
ATOM      4  C   UNL     1      48.750   6.224  18.816  0.00  0.00    +0.000 A 
ATOM      5  C   UNL     1      49.994   5.589  18.924  0.00  0.00    +0.000 A 
ATOM      6 CL   UNL     1      50.483   5.220  20.550  0.00  0.00    +0.000 Cl
ATOM      7  C   UNL     1      50.789   5.342  17.782  0.00  0.00    +0.000 A 
ATOM      8  C   UNL     1      50.314   5.870  16.558  0.00  0.00    +0.000 A 
BRANCH   7   9
ATOM      9  C   UNL     1      52.055   4.559  17.787  0.00  0.00    +0.000 A 
ATOM     10  C   UNL     1      53.310   5.182  17.638  0.00  0.00    +0.000 A 
ATOM     11  C   UNL     1      54.500   4.449  17.620  0.00  0.00    +0.000 A 
ATOM     12  C   UNL     1      54.469   3.067  17.785  0.00  0.00    +0.000 A 
ATOM     13  C   UNL     1      53.246   2.418  17.930  0.00  0.00    +0.000 A 
ATOM     14  C   UNL     1      52.057   3.154  17.887  0.00  0.00    +0.000 A 
BRANCH  13  15
ATOM     15  C   UNL     1      53.198   1.003  18.147  0.00  0.00    +0.000 C 
ATOM     16  N   UNL     1      53.152  -0.142  18.336  0.00  0.00    +0.000 NA
ENDBRANCH  13  15
ENDBRANCH   7   9
ENDBRANCH   1   2
BRANCH   1  17
ATOM     17  O   UNL     1      48.588   6.149  14.119  0.00  0.00    +0.000 OA
BRANCH  17  23
ATOM     18  C   UNL     1      46.791   4.443  13.778  0.00  0.00    +0.000 A 
ATOM     19  C   UNL     1      45.499   4.223  13.281  0.00  0.00    +0.000 A 
ATOM     20  C   UNL     1      44.727   5.264  12.748  0.00  0.00    +0.000 A 
ATOM     21  C   UNL     1      45.262   6.553  12.717  0.00  0.00    +0.000 A 
ATOM     22  C   UNL     1      46.559   6.780  13.195  0.00  0.00    +0.000 A 
ATOM     23  C   UNL     1      47.338   5.737  13.721  0.00  0.00    +0.000 A 
BRANCH  20  24
ATOM     24  C   UNL     1      43.361   4.909  12.265  0.00  0.00    +0.000 C 
ATOM     25  N   UNL     1      42.433   5.897  12.124  0.00  0.00    +0.000 N 
ATOM     26  O   UNL     1      43.063   3.752  11.988  0.00  0.00    +0.000 OA
ATOM     27  H   UNL     1      42.583   6.877  12.325  0.00  0.00    +0.000 HD
ATOM     28  H   UNL     1      41.517   5.618  11.795  0.00  0.00    +0.000 HD
ENDBRANCH  20  24
BRANCH  18  30
ATOM     29  C   UNL     1      47.508   3.412  15.807  0.00  0.00    +0.000 C 
ATOM     30  O   UNL     1      47.507   3.445  14.385  0.00  0.00    +0.000 OA
ENDBRANCH  18  30
ENDBRANCH  17  23
ENDBRANCH   1  17
TORSDOF 7
ENDMDL
MODEL 8
REMARK VINA RESULT:    -6.376      5.029      8.565
REMARK INTER + INTRA:          -9.666
REMARK INTER:                  -8.515
REMARK INTRA:                  -1.151
REMARK UNBOUND:                -0.682
REMARK  Name = 
REMARK  8 active torsions:
REMARK  status: ('A' for Active; 'I' for Inactive)
REMARK    1  A    between atoms: C_1  and  O_2
REMARK    2  A    between atoms: O_2  and  C_3
REMARK    3  A    between atoms: C_5  and  C_6
REMARK    4  A    between atoms: C_11  and  O_12
REMARK    5  A    between atoms: O_12  and  C_13
REMARK    6  A    between atoms: C_13  and  C_14
REMARK    7  A    between atoms: C_19  and  C_20
REMARK    8  A    between atoms: C_24  and  C_25
REMARK                            x       y       z     vdW  Elec       q    Type
REMARK                         _______ _______ _______ _____ _____    ______ ____
ROOT
ATOM      1  C   UNL     1      49.303   7.525  14.293  0.00  0.00    +0.000 C 
ENDROOT
BRANCH   1   2
ATOM      2  C   UNL     1      48.120   7.840  13.406  0.00  0.00    +0.000 A 
ATOM      3  C   UNL     1      47.781   9.161  13.120  0.00  0.00    +0.000 A 
ATOM      4  C   UNL     1      46.627   9.444  12.398  0.00  0.00    +0.000 A 
ATOM      5  C   UNL     1      45.803   8.410  11.933  0.00  0.00    +0.000 A 
ATOM      6 CL   UNL     1      44.321   8.937  11.196  0.00  0.00    +0.000 Cl
ATOM      7  C   UNL     1      46.155   7.055  12.126  0.00  0.00    +0.000 A 
ATOM      8  C   UNL     1      47.311   6.809  12.904  0.00  0.00    +0.000 A 
BRANCH   7   9
ATOM      9  C   UNL     1      45.412   5.899  11.552  0.00  0.00    +0.000 A 
ATOM     10  C   UNL     1      44.431   5.211  12.292  0.00  0.00    +0.000 A 
ATOM     11  C   UNL     1      43.747   4.111  11.766  0.00  0.00    +0.000 A 
ATOM     12  C   UNL     1      44.002   3.690  10.464  0.00  0.00    +0.000 A 
ATOM     13  C   UNL     1      44.969   4.345   9.705  0.00  0.00    +0.000 A 
ATOM     14  C   UNL     1      45.690   5.406  10.263  0.00  0.00    +0.000 A 
BRANCH  13  15
ATOM     15  C   UNL     1      45.212   3.954   8.349  0.00  0.00    +0.000 C 
ATOM     16  N   UNL     1      45.408   3.622   7.254  0.00  0.00    +0.000 NA
ENDBRANCH  13  15
ENDBRANCH   7   9
ENDBRANCH   1   2
BRANCH   1  17
ATOM     17  O   UNL     1      49.150   8.146  15.567  0.00  0.00    +0.000 OA
BRANCH  17  23
ATOM     18  C   UNL     1      48.538   7.671  17.945  0.00  0.00    +0.000 A 
ATOM     19  C   UNL     1      48.473   6.681  18.936  0.00  0.00    +0.000 A 
ATOM     20  C   UNL     1      48.818   5.349  18.671  0.00  0.00    +0.000 A 
ATOM     21  C   UNL     1      49.232   5.002  17.384  0.00  0.00    +0.000 A 
ATOM     22  C   UNL     1      49.318   5.988  16.392  0.00  0.00    +0.000 A 
ATOM     23  C   UNL     1      48.982   7.324  16.657  0.00  0.00    +0.000 A 
BRANCH  20  24
ATOM     24  C   UNL     1      48.692   4.384  19.802  0.00  0.00    +0.000 C 
ATOM     25  N   UNL     1      48.370   3.087  19.531  0.00  0.00    +0.000 N 
ATOM     26  O   UNL     1      48.879   4.733  20.962  0.00  0.00    +0.000 OA
ATOM     27  H   UNL     1      48.198   2.704  18.611  0.00  0.00    +0.000 HD
ATOM     28  H   UNL     1      48.293   2.462  20.323  0.00  0.00    +0.000 HD
ENDBRANCH  20  24
BRANCH  18  30
ATOM     29  C   UNL     1      47.205   9.151  19.258  0.00  0.00    +0.000 C 
ATOM     30  O   UNL     1      48.111   8.951  18.179  0.00  0.00    +0.000 OA
ENDBRANCH  18  30
ENDBRANCH  17  23
ENDBRANCH   1  17
TORSDOF 7
ENDMDL
MODEL 9
REMARK VINA RESULT:    -6.363      5.688      7.412
REMARK INTER + INTRA:          -9.649
REMARK INTER:                  -8.668
REMARK INTRA:                  -0.982
REMARK UNBOUND:                -0.682
REMARK  Name = 
REMARK  8 active torsions:
REMARK  status: ('A' for Active; 'I' for Inactive)
REMARK    1  A    between atoms: C_1  and  O_2
REMARK    2  A    between atoms: O_2  and  C_3
REMARK    3  A    between atoms: C_5  and  C_6
REMARK    4  A    between atoms: C_11  and  O_12
REMARK    5  A    between atoms: O_12  and  C_13
REMARK    6  A    between atoms: C_13  and  C_14
REMARK    7  A    between atoms: C_19  and  C_20
REMARK    8  A    between atoms: C_24  and  C_25
REMARK                            x       y       z     vdW  Elec       q    Type
REMARK                         _______ _______ _______ _____ _____    ______ ____
ROOT
ATOM      1  C   UNL     1      47.274   4.189  16.075  0.00  0.00    +0.000 C 
ENDROOT
BRANCH   1   2
ATOM      2  C   UNL     1      48.211   4.316  17.255  0.00  0.00    +0.000 A 
ATOM      3  C   UNL     1      47.753   4.820  18.471  0.00  0.00    +0.000 A 
ATOM      4  C   UNL     1      48.645   5.041  19.514  0.00  0.00    +0.000 A 
ATOM      5  C   UNL     1      50.006   4.743  19.366  0.00  0.00    +0.000 A 
ATOM      6 CL   UNL     1      51.007   5.229  20.700  0.00  0.00    +0.000 Cl
ATOM      7  C   UNL     1      50.498   4.150  18.181  0.00  0.00    +0.000 A 
ATOM      8  C   UNL     1      49.568   3.985  17.127  0.00  0.00    +0.000 A 
BRANCH   7   9
ATOM      9  C   UNL     1      51.897   3.679  17.989  0.00  0.00    +0.000 A 
ATOM     10  C   UNL     1      52.949   4.578  17.722  0.00  0.00    +0.000 A 
ATOM     11  C   UNL     1      54.260   4.139  17.519  0.00  0.00    +0.000 A 
ATOM     12  C   UNL     1      54.564   2.783  17.614  0.00  0.00    +0.000 A 
ATOM     13  C   UNL     1      53.547   1.867  17.873  0.00  0.00    +0.000 A 
ATOM     14  C   UNL     1      52.228   2.310  18.014  0.00  0.00    +0.000 A 
BRANCH  13  15
ATOM     15  C   UNL     1      53.848   0.474  18.018  0.00  0.00    +0.000 C 
ATOM     16  N   UNL     1      54.094  -0.656  18.121  0.00  0.00    +0.000 NA
ENDBRANCH  13  15
ENDBRANCH   7   9
ENDBRANCH   1   2
BRANCH   1  17
ATOM     17  O   UNL     1      47.843   4.800  14.919  0.00  0.00    +0.000 OA
BRANCH  17  23
ATOM     18  C   UNL     1      46.872   6.070  12.995  0.00  0.00    +0.000 A 
ATOM     19  C   UNL     1      45.962   6.019  11.930  0.00  0.00    +0.000 A 
ATOM     20  C   UNL     1      45.225   4.861  11.644  0.00  0.00    +0.000 A 
ATOM     21  C   UNL     1      45.410   3.731  12.442  0.00  0.00    +0.000 A 
ATOM     22  C   UNL     1      46.303   3.777  13.520  0.00  0.00    +0.000 A 
ATOM     23  C   UNL     1      47.035   4.939  13.814  0.00  0.00    +0.000 A 
BRANCH  20  24
ATOM     24  C   UNL     1      44.301   4.923  10.476  0.00  0.00    +0.000 C 
ATOM     25  N   UNL     1      44.812   4.769   9.221  0.00  0.00    +0.000 N 
ATOM     26  O   UNL     1      43.097   5.102  10.623  0.00  0.00    +0.000 OA
ATOM     27  H   UNL     1      45.787   4.616   8.998  0.00  0.00    +0.000 HD
ATOM     28  H   UNL     1      44.155   4.818   8.453  0.00  0.00    +0.000 HD
ENDBRANCH  20  24
BRANCH  18  30
ATOM     29  C   UNL     1      48.926   7.206  12.568  0.00  0.00    +0.000 C 
ATOM     30  O   UNL     1      47.660   7.169  13.215  0.00  0.00    +0.000 OA
ENDBRANCH  18  30
ENDBRANCH  17  23
ENDBRANCH   1  17
TORSDOF 7
ENDMDL
