MODEL 1
REMARK VINA RESULT:    -7.440      0.000      0.000
REMARK INTER + INTRA:         -12.076
REMARK INTER:                 -10.920
REMARK INTRA:                  -1.156
REMARK UNBOUND:                -1.156
REMARK  Name = 
REMARK  10 active torsions:
REMARK  status: ('A' for Active; 'I' for Inactive)
REMARK    1  A    between atoms: C_1  and  C_2
REMARK    2  A    between atoms: C_2  and  O_3
REMARK    3  A    between atoms: O_3  and  C_4
REMARK    4  A    between atoms: C_6  and  C_7
REMARK    5  A    between atoms: C_12  and  O_13
REMARK    6  A    between atoms: O_13  and  C_14
REMARK    7  A    between atoms: C_14  and  C_15
REMARK    8  A    between atoms: C_15  and  C_16
REMARK    9  A    between atoms: C_15  and  C_17
REMARK   10  A    between atoms: C_21  and  C_22
REMARK                            x       y       z     vdW  Elec       q    Type
REMARK                         _______ _______ _______ _____ _____    ______ ____
ROOT
ATOM      1  C   UNL     1      46.909   5.166  14.139  0.00  0.00    +0.000 A 
ATOM      2  C   UNL     1      48.073   5.941  14.159  0.00  0.00    +0.000 A 
ATOM      3  C   UNL     1      48.378   6.805  13.102  0.00  0.00    +0.000 A 
ATOM      4  C   UNL     1      47.494   6.916  12.026  0.00  0.00    +0.000 A 
ATOM      5  C   UNL     1      46.300   6.184  12.033  0.00  0.00    +0.000 A 
ATOM      6  C   UNL     1      45.977   5.333  13.101  0.00  0.00    +0.000 A 
ENDROOT
BRANCH   3   7
ATOM      7  C   UNL     1      49.650   7.570  13.183  0.00  0.00    +0.000 C 
ATOM      8  N   UNL     1      50.398   7.432  14.316  0.00  0.00    +0.000 N 
ATOM      9  O   UNL     1      49.994   8.337  12.292  0.00  0.00    +0.000 OA
ATOM     10  H   UNL     1      50.046   7.002  15.158  0.00  0.00    +0.000 HD
ATOM     11  H   UNL     1      51.192   8.054  14.402  0.00  0.00    +0.000 HD
ENDBRANCH   3   7
BRANCH   1  12
ATOM     12  O   UNL     1      46.662   4.266  15.143  0.00  0.00    +0.000 OA
BRANCH  12  14
ATOM     13  C   UNL     1      48.021   2.962  16.624  0.00  0.00    +0.000 C 
ATOM     14  C   UNL     1      47.538   4.358  16.271  0.00  0.00    +0.000 C 
ENDBRANCH  12  14
ENDBRANCH   1  12
BRANCH   6  15
ATOM     15  O   UNL     1      44.739   4.747  12.977  0.00  0.00    +0.000 OA
BRANCH  15  16
ATOM     16  C   UNL     1      44.684   3.480  12.313  0.00  0.00    +0.000 C 
BRANCH  16  17
ATOM     17  C   UNL     1      43.818   3.553  11.045  0.00  0.00    +0.000 C 
ATOM     18  C   UNL     1      43.013   4.859  10.999  0.00  0.00    +0.000 C 
BRANCH  17  19
ATOM     19  C   UNL     1      44.666   3.411   9.786  0.00  0.00    +0.000 A 
ATOM     20  C   UNL     1      45.115   4.552   9.106  0.00  0.00    +0.000 A 
ATOM     21  C   UNL     1      45.970   4.437   8.006  0.00  0.00    +0.000 A 
ATOM     22  C   UNL     1      46.404   3.181   7.582  0.00  0.00    +0.000 A 
ATOM     23  C   UNL     1      45.963   2.032   8.241  0.00  0.00    +0.000 A 
ATOM     24  C   UNL     1      45.073   2.148   9.316  0.00  0.00    +0.000 A 
BRANCH  23  25
ATOM     25  C   UNL     1      46.471   0.742   7.865  0.00  0.00    +0.000 C 
ATOM     26  N   UNL     1      46.866  -0.313   7.594  0.00  0.00    +0.000 NA
ENDBRANCH  23  25
ENDBRANCH  17  19
ENDBRANCH  16  17
ENDBRANCH  15  16
ENDBRANCH   6  15
TORSDOF 8
ENDMDL
MODEL 2
REMARK VINA RESULT:    -6.602      1.571      2.965
REMARK INTER + INTRA:         -10.846
REMARK INTER:                  -9.940
REMARK INTRA:                  -0.906
REMARK UNBOUND:                -1.156
REMARK  Name = 
REMARK  10 active torsions:
REMARK  status: ('A' for Active; 'I' for Inactive)
REMARK    1  A    between atoms: C_1  and  C_2
REMARK    2  A    between atoms: C_2  and  O_3
REMARK    3  A    between atoms: O_3  and  C_4
REMARK    4  A    between atoms: C_6  and  C_7
REMARK    5  A    between atoms: C_12  and  O_13
REMARK    6  A    between atoms: O_13  and  C_14
REMARK    7  A    between atoms: C_14  and  C_15
REMARK    8  A    between atoms: C_15  and  C_16
REMARK    9  A    between atoms: C_15  and  C_17
REMARK   10  A    between atoms: C_21  and  C_22
REMARK                            x       y       z     vdW  Elec       q    Type
REMARK                         _______ _______ _______ _____ _____    ______ ____
ROOT
ATOM      1  C   UNL     1      47.300   6.523  13.492  0.00  0.00    +0.000 A 
ATOM      2  C   UNL     1      48.195   6.534  14.567  0.00  0.00    +0.000 A 
ATOM      3  C   UNL     1      48.175   5.519  15.529  0.00  0.00    +0.000 A 
ATOM      4  C   UNL     1      47.269   4.464  15.396  0.00  0.00    +0.000 A 
ATOM      5  C   UNL     1      46.413   4.421  14.289  0.00  0.00    +0.000 A 
ATOM      6  C   UNL     1      46.444   5.424  13.309  0.00  0.00    +0.000 A 
ENDROOT
BRANCH   3   7
ATOM      7  C   UNL     1      49.136   5.621  16.658  0.00  0.00    +0.000 C 
ATOM      8  N   UNL     1      49.297   6.843  17.241  0.00  0.00    +0.000 N 
ATOM      9  O   UNL     1      49.799   4.658  17.024  0.00  0.00    +0.000 OA
ATOM     10  H   UNL     1      48.954   7.698  16.830  0.00  0.00    +0.000 HD
ATOM     11  H   UNL     1      50.043   6.916  17.921  0.00  0.00    +0.000 HD
ENDBRANCH   3   7
BRANCH   1  12
ATOM     12  O   UNL     1      47.279   7.564  12.602  0.00  0.00    +0.000 OA
BRANCH  12  14
ATOM     13  C   UNL     1      45.308   8.910  12.388  0.00  0.00    +0.000 C 
ATOM     14  C   UNL     1      46.653   8.760  13.078  0.00  0.00    +0.000 C 
ENDBRANCH  12  14
ENDBRANCH   1  12
BRANCH   6  15
ATOM     15  O   UNL     1      45.587   5.189  12.259  0.00  0.00    +0.000 OA
BRANCH  15  16
ATOM     16  C   UNL     1      45.171   3.834  12.052  0.00  0.00    +0.000 C 
BRANCH  16  17
ATOM     17  C   UNL     1      44.229   3.721  10.843  0.00  0.00    +0.000 C 
ATOM     18  C   UNL     1      43.389   4.993  10.673  0.00  0.00    +0.000 C 
BRANCH  17  19
ATOM     19  C   UNL     1      45.005   3.426   9.563  0.00  0.00    +0.000 A 
ATOM     20  C   UNL     1      45.492   4.478   8.775  0.00  0.00    +0.000 A 
ATOM     21  C   UNL     1      46.283   4.221   7.652  0.00  0.00    +0.000 A 
ATOM     22  C   UNL     1      46.615   2.909   7.310  0.00  0.00    +0.000 A 
ATOM     23  C   UNL     1      46.134   1.847   8.078  0.00  0.00    +0.000 A 
ATOM     24  C   UNL     1      45.307   2.105   9.178  0.00  0.00    +0.000 A 
BRANCH  23  25
ATOM     25  C   UNL     1      46.539   0.500   7.784  0.00  0.00    +0.000 C 
ATOM     26  N   UNL     1      46.829  -0.594   7.542  0.00  0.00    +0.000 NA
ENDBRANCH  23  25
ENDBRANCH  17  19
ENDBRANCH  16  17
ENDBRANCH  15  16
ENDBRANCH   6  15
TORSDOF 8
ENDMDL
MODEL 3
REMARK VINA RESULT:    -5.942      2.950      7.995
REMARK INTER + INTRA:          -9.877
REMARK INTER:                  -9.056
REMARK INTRA:                  -0.821
REMARK UNBOUND:                -1.156
REMARK  Name = 
REMARK  10 active torsions:
REMARK  status: ('A' for Active; 'I' for Inactive)
REMARK    1  A    between atoms: C_1  and  C_2
REMARK    2  A    between atoms: C_2  and  O_3
REMARK    3  A    between atoms: O_3  and  C_4
REMARK    4  A    between atoms: C_6  and  C_7
REMARK    5  A    between atoms: C_12  and  O_13
REMARK    6  A    between atoms: O_13  and  C_14
REMARK    7  A    between atoms: C_14  and  C_15
REMARK    8  A    between atoms: C_15  and  C_16
REMARK    9  A    between atoms: C_15  and  C_17
REMARK   10  A    between atoms: C_21  and  C_22
REMARK                            x       y       z     vdW  Elec       q    Type
REMARK                         _______ _______ _______ _____ _____    ______ ____
ROOT
ATOM      1  C   UNL     1      46.258   5.999  13.041  0.00  0.00    +0.000 A 
ATOM      2  C   UNL     1      45.251   5.686  12.123  0.00  0.00    +0.000 A 
ATOM      3  C   UNL     1      44.933   4.355  11.832  0.00  0.00    +0.000 A 
ATOM      4  C   UNL     1      45.611   3.326  12.489  0.00  0.00    +0.000 A 
ATOM      5  C   UNL     1      46.579   3.638  13.451  0.00  0.00    +0.000 A 
ATOM      6  C   UNL     1      46.887   4.971  13.765  0.00  0.00    +0.000 A 
ENDROOT
BRANCH   3   7
ATOM      7  C   UNL     1      43.872   4.106  10.821  0.00  0.00    +0.000 C 
ATOM      8  N   UNL     1      43.918   4.831   9.666  0.00  0.00    +0.000 N 
ATOM      9  O   UNL     1      42.960   3.317  11.031  0.00  0.00    +0.000 OA
ATOM     10  H   UNL     1      44.505   5.644   9.551  0.00  0.00    +0.000 HD
ATOM     11  H   UNL     1      43.121   4.736   9.050  0.00  0.00    +0.000 HD
ENDBRANCH   3   7
BRANCH   1  12
ATOM     12  O   UNL     1      46.612   7.305  13.258  0.00  0.00    +0.000 OA
BRANCH  12  14
ATOM     13  C   UNL     1      48.443   7.697  11.762  0.00  0.00    +0.000 C 
ATOM     14  C   UNL     1      46.998   8.034  12.088  0.00  0.00    +0.000 C 
ENDBRANCH  12  14
ENDBRANCH   1  12
BRANCH   6  15
ATOM     15  O   UNL     1      47.807   5.095  14.779  0.00  0.00    +0.000 OA
BRANCH  15  16
ATOM     16  C   UNL     1      47.512   4.425  16.009  0.00  0.00    +0.000 C 
BRANCH  16  17
ATOM     17  C   UNL     1      48.409   4.934  17.149  0.00  0.00    +0.000 C 
ATOM     18  C   UNL     1      47.610   5.113  18.446  0.00  0.00    +0.000 C 
BRANCH  17  19
ATOM     19  C   UNL     1      49.592   3.999  17.382  0.00  0.00    +0.000 A 
ATOM     20  C   UNL     1      49.460   2.623  17.147  0.00  0.00    +0.000 A 
ATOM     21  C   UNL     1      50.561   1.771  17.267  0.00  0.00    +0.000 A 
ATOM     22  C   UNL     1      51.813   2.283  17.606  0.00  0.00    +0.000 A 
ATOM     23  C   UNL     1      51.964   3.649  17.851  0.00  0.00    +0.000 A 
ATOM     24  C   UNL     1      50.851   4.494  17.772  0.00  0.00    +0.000 A 
BRANCH  23  25
ATOM     25  C   UNL     1      53.265   4.197  18.118  0.00  0.00    +0.000 C 
ATOM     26  N   UNL     1      54.329   4.612  18.309  0.00  0.00    +0.000 NA
ENDBRANCH  23  25
ENDBRANCH  17  19
ENDBRANCH  16  17
ENDBRANCH  15  16
ENDBRANCH   6  15
TORSDOF 8
ENDMDL
MODEL 4
REMARK VINA RESULT:    -5.871      3.168      7.369
REMARK INTER + INTRA:          -9.773
REMARK INTER:                  -8.427
REMARK INTRA:                  -1.345
REMARK UNBOUND:                -1.156
REMARK  Name = 
REMARK  10 active torsions:
REMARK  status: ('A' for Active; 'I' for Inactive)
REMARK    1  A    between atoms: C_1  and  C_2
REMARK    2  A    between atoms: C_2  and  O_3
REMARK    3  A    between atoms: O_3  and  C_4
REMARK    4  A    between atoms: C_6  and  C_7
REMARK    5  A    between atoms: C_12  and  O_13
REMARK    6  A    between atoms: O_13  and  C_14
REMARK    7  A    between atoms: C_14  and  C_15
REMARK    8  A    between atoms: C_15  and  C_16
REMARK    9  A    between atoms: C_15  and  C_17
REMARK   10  A    between atoms: C_21  and  C_22
REMARK                            x       y       z     vdW  Elec       q    Type
REMARK                         _______ _______ _______ _____ _____    ______ ____
ROOT
ATOM      1  C   UNL     1      46.464   5.984  12.228  0.00  0.00    +0.000 A 
ATOM      2  C   UNL     1      45.307   5.337  11.779  0.00  0.00    +0.000 A 
ATOM      3  C   UNL     1      44.994   4.044  12.211  0.00  0.00    +0.000 A 
ATOM      4  C   UNL     1      45.832   3.403  13.127  0.00  0.00    +0.000 A 
ATOM      5  C   UNL     1      46.958   4.072  13.622  0.00  0.00    +0.000 A 
ATOM      6  C   UNL     1      47.266   5.377  13.210  0.00  0.00    +0.000 A 
ENDROOT
BRANCH   3   7
ATOM      7  C   UNL     1      43.765   3.414  11.663  0.00  0.00    +0.000 C 
ATOM      8  N   UNL     1      43.523   2.112  11.991  0.00  0.00    +0.000 N 
ATOM      9  O   UNL     1      43.019   4.019  10.903  0.00  0.00    +0.000 OA
ATOM     10  H   UNL     1      44.217   1.514  12.415  0.00  0.00    +0.000 HD
ATOM     11  H   UNL     1      42.751   1.668  11.509  0.00  0.00    +0.000 HD
ENDBRANCH   3   7
BRANCH   1  12
ATOM     12  O   UNL     1      46.799   7.218  11.736  0.00  0.00    +0.000 OA
BRANCH  12  14
ATOM     13  C   UNL     1      45.644   8.845  13.063  0.00  0.00    +0.000 C 
ATOM     14  C   UNL     1      45.732   8.171  11.705  0.00  0.00    +0.000 C 
ENDBRANCH  12  14
ENDBRANCH   1  12
BRANCH   6  15
ATOM     15  O   UNL     1      48.363   5.906  13.847  0.00  0.00    +0.000 OA
BRANCH  15  16
ATOM     16  C   UNL     1      48.113   6.808  14.930  0.00  0.00    +0.000 C 
BRANCH  16  17
ATOM     17  C   UNL     1      49.042   6.519  16.121  0.00  0.00    +0.000 C 
ATOM     18  C   UNL     1      48.900   7.593  17.207  0.00  0.00    +0.000 C 
BRANCH  17  19
ATOM     19  C   UNL     1      48.775   5.136  16.707  0.00  0.00    +0.000 A 
ATOM     20  C   UNL     1      47.469   4.750  17.038  0.00  0.00    +0.000 A 
ATOM     21  C   UNL     1      47.200   3.455  17.488  0.00  0.00    +0.000 A 
ATOM     22  C   UNL     1      48.230   2.520  17.596  0.00  0.00    +0.000 A 
ATOM     23  C   UNL     1      49.540   2.887  17.278  0.00  0.00    +0.000 A 
ATOM     24  C   UNL     1      49.812   4.197  16.868  0.00  0.00    +0.000 A 
BRANCH  23  25
ATOM     25  C   UNL     1      50.592   1.909  17.304  0.00  0.00    +0.000 C 
ATOM     26  N   UNL     1      51.417   1.096  17.307  0.00  0.00    +0.000 NA
ENDBRANCH  23  25
ENDBRANCH  17  19
ENDBRANCH  16  17
ENDBRANCH  15  16
ENDBRANCH   6  15
TORSDOF 8
ENDMDL
MODEL 5
REMARK VINA RESULT:    -5.800      3.904      8.008
REMARK INTER + INTRA:          -9.669
REMARK INTER:                  -8.507
REMARK INTRA:                  -1.161
REMARK UNBOUND:                -1.156
REMARK  Name = 
REMARK  10 active torsions:
REMARK  status: ('A' for Active; 'I' for Inactive)
REMARK    1  A    between atoms: C_1  and  C_2
REMARK    2  A    between atoms: C_2  and  O_3
REMARK    3  A    between atoms: O_3  and  C_4
REMARK    4  A    between atoms: C_6  and  C_7
REMARK    5  A    between atoms: C_12  and  O_13
REMARK    6  A    between atoms: O_13  and  C_14
REMARK    7  A    between atoms: C_14  and  C_15
REMARK    8  A    between atoms: C_15  and  C_16
REMARK    9  A    between atoms: C_15  and  C_17
REMARK   10  A    between atoms: C_21  and  C_22
REMARK                            x       y       z     vdW  Elec       q    Type
REMARK                         _______ _______ _______ _____ _____    ______ ____
ROOT
ATOM      1  C   UNL     1      46.809   4.887  13.821  0.00  0.00    +0.000 A 
ATOM      2  C   UNL     1      45.447   4.741  13.538  0.00  0.00    +0.000 A 
ATOM      3  C   UNL     1      44.747   5.735  12.845  0.00  0.00    +0.000 A 
ATOM      4  C   UNL     1      45.425   6.874  12.404  0.00  0.00    +0.000 A 
ATOM      5  C   UNL     1      46.800   6.994  12.636  0.00  0.00    +0.000 A 
ATOM      6  C   UNL     1      47.513   5.991  13.311  0.00  0.00    +0.000 A 
ENDROOT
BRANCH   3   7
ATOM      7  C   UNL     1      43.295   5.519  12.612  0.00  0.00    +0.000 C 
ATOM      8  N   UNL     1      42.699   6.249  11.627  0.00  0.00    +0.000 N 
ATOM      9  O   UNL     1      42.642   4.751  13.308  0.00  0.00    +0.000 OA
ATOM     10  H   UNL     1      43.137   7.048  11.193  0.00  0.00    +0.000 HD
ATOM     11  H   UNL     1      41.691   6.178  11.569  0.00  0.00    +0.000 HD
ENDBRANCH   3   7
BRANCH   1  12
ATOM     12  O   UNL     1      47.463   3.943  14.569  0.00  0.00    +0.000 OA
BRANCH  12  14
ATOM     13  C   UNL     1      48.146   3.002  16.664  0.00  0.00    +0.000 C 
ATOM     14  C   UNL     1      47.342   4.098  15.987  0.00  0.00    +0.000 C 
ENDBRANCH  12  14
ENDBRANCH   1  12
BRANCH   6  15
ATOM     15  O   UNL     1      48.863   6.239  13.389  0.00  0.00    +0.000 OA
BRANCH  15  16
ATOM     16  C   UNL     1      49.270   7.388  14.141  0.00  0.00    +0.000 C 
BRANCH  16  17
ATOM     17  C   UNL     1      49.859   6.982  15.502  0.00  0.00    +0.000 C 
ATOM     18  C   UNL     1      51.350   7.332  15.587  0.00  0.00    +0.000 C 
BRANCH  17  19
ATOM     19  C   UNL     1      49.098   7.634  16.651  0.00  0.00    +0.000 A 
ATOM     20  C   UNL     1      48.612   8.943  16.523  0.00  0.00    +0.000 A 
ATOM     21  C   UNL     1      47.833   9.517  17.532  0.00  0.00    +0.000 A 
ATOM     22  C   UNL     1      47.513   8.785  18.676  0.00  0.00    +0.000 A 
ATOM     23  C   UNL     1      47.993   7.482  18.826  0.00  0.00    +0.000 A 
ATOM     24  C   UNL     1      48.808   6.925  17.833  0.00  0.00    +0.000 A 
BRANCH  23  25
ATOM     25  C   UNL     1      47.599   6.692  19.959  0.00  0.00    +0.000 C 
ATOM     26  N   UNL     1      47.299   6.026  20.858  0.00  0.00    +0.000 NA
ENDBRANCH  23  25
ENDBRANCH  17  19
ENDBRANCH  16  17
ENDBRANCH  15  16
ENDBRANCH   6  15
TORSDOF 8
ENDMDL
MODEL 6
REMARK VINA RESULT:    -5.748      2.956      6.829
REMARK INTER + INTRA:          -9.592
REMARK INTER:                  -8.664
REMARK INTRA:                  -0.928
REMARK UNBOUND:                -1.156
REMARK  Name = 
REMARK  10 active torsions:
REMARK  status: ('A' for Active; 'I' for Inactive)
REMARK    1  A    between atoms: C_1  and  C_2
REMARK    2  A    between atoms: C_2  and  O_3
REMARK    3  A    between atoms: O_3  and  C_4
REMARK    4  A    between atoms: C_6  and  C_7
REMARK    5  A    between atoms: C_12  and  O_13
REMARK    6  A    between atoms: O_13  and  C_14
REMARK    7  A    between atoms: C_14  and  C_15
REMARK    8  A    between atoms: C_15  and  C_16
REMARK    9  A    between atoms: C_15  and  C_17
REMARK   10  A    between atoms: C_21  and  C_22
REMARK                            x       y       z     vdW  Elec       q    Type
REMARK                         _______ _______ _______ _____ _____    ______ ____
ROOT
ATOM      1  C   UNL     1      46.736   4.244  13.427  0.00  0.00    +0.000 A 
ATOM      2  C   UNL     1      45.666   3.707  12.702  0.00  0.00    +0.000 A 
ATOM      3  C   UNL     1      45.067   4.430  11.665  0.00  0.00    +0.000 A 
ATOM      4  C   UNL     1      45.563   5.692  11.329  0.00  0.00    +0.000 A 
ATOM      5  C   UNL     1      46.671   6.205  12.015  0.00  0.00    +0.000 A 
ATOM      6  C   UNL     1      47.290   5.476  13.041  0.00  0.00    +0.000 A 
ENDROOT
BRANCH   3   7
ATOM      7  C   UNL     1      43.916   3.803  10.965  0.00  0.00    +0.000 C 
ATOM      8  N   UNL     1      44.175   3.114   9.816  0.00  0.00    +0.000 N 
ATOM      9  O   UNL     1      42.768   3.937  11.372  0.00  0.00    +0.000 OA
ATOM     10  H   UNL     1      45.055   3.172   9.327  0.00  0.00    +0.000 HD
ATOM     11  H   UNL     1      43.366   2.803   9.293  0.00  0.00    +0.000 HD
ENDBRANCH   3   7
BRANCH   1  12
ATOM     12  O   UNL     1      47.261   3.559  14.491  0.00  0.00    +0.000 OA
BRANCH  12  14
ATOM     13  C   UNL     1      47.750   3.324  16.825  0.00  0.00    +0.000 C 
ATOM     14  C   UNL     1      47.061   4.171  15.769  0.00  0.00    +0.000 C 
ENDBRANCH  12  14
ENDBRANCH   1  12
BRANCH   6  15
ATOM     15  O   UNL     1      48.403   6.098  13.558  0.00  0.00    +0.000 OA
BRANCH  15  16
ATOM     16  C   UNL     1      49.122   6.974  12.683  0.00  0.00    +0.000 C 
BRANCH  16  17
ATOM     17  C   UNL     1      49.332   8.354  13.327  0.00  0.00    +0.000 C 
ATOM     18  C   UNL     1      50.824   8.655  13.519  0.00  0.00    +0.000 C 
BRANCH  17  19
ATOM     19  C   UNL     1      48.674   9.455  12.502  0.00  0.00    +0.000 A 
ATOM     20  C   UNL     1      49.420  10.166  11.552  0.00  0.00    +0.000 A 
ATOM     21  C   UNL     1      48.807  11.112  10.725  0.00  0.00    +0.000 A 
ATOM     22  C   UNL     1      47.435  11.348  10.823  0.00  0.00    +0.000 A 
ATOM     23  C   UNL     1      46.676  10.655  11.768  0.00  0.00    +0.000 A 
ATOM     24  C   UNL     1      47.300   9.739  12.623  0.00  0.00    +0.000 A 
BRANCH  23  25
ATOM     25  C   UNL     1      45.250  10.829  11.819  0.00  0.00    +0.000 C 
ATOM     26  N   UNL     1      44.100  10.962  11.822  0.00  0.00    +0.000 NA
ENDBRANCH  23  25
ENDBRANCH  17  19
ENDBRANCH  16  17
ENDBRANCH  15  16
ENDBRANCH   6  15
TORSDOF 8
ENDMDL
MODEL 7
REMARK VINA RESULT:    -5.727      3.337      7.661
REMARK INTER + INTRA:          -9.562
REMARK INTER:                  -8.296
REMARK INTRA:                  -1.266
REMARK UNBOUND:                -1.156
REMARK  Name = 
REMARK  10 active torsions:
REMARK  status: ('A' for Active; 'I' for Inactive)
REMARK    1  A    between atoms: C_1  and  C_2
REMARK    2  A    between atoms: C_2  and  O_3
REMARK    3  A    between atoms: O_3  and  C_4
REMARK    4  A    between atoms: C_6  and  C_7
REMARK    5  A    between atoms: C_12  and  O_13
REMARK    6  A    between atoms: O_13  and  C_14
REMARK    7  A    between atoms: C_14  and  C_15
REMARK    8  A    between atoms: C_15  and  C_16
REMARK    9  A    between atoms: C_15  and  C_17
REMARK   10  A    between atoms: C_21  and  C_22
REMARK                            x       y       z     vdW  Elec       q    Type
REMARK                         _______ _______ _______ _____ _____    ______ ____
ROOT
ATOM      1  C   UNL     1      46.605   4.338  13.483  0.00  0.00    +0.000 A 
ATOM      2  C   UNL     1      45.370   3.960  12.946  0.00  0.00    +0.000 A 
ATOM      3  C   UNL     1      44.686   4.798  12.059  0.00  0.00    +0.000 A 
ATOM      4  C   UNL     1      45.260   6.015  11.681  0.00  0.00    +0.000 A 
ATOM      5  C   UNL     1      46.522   6.367  12.172  0.00  0.00    +0.000 A 
ATOM      6  C   UNL     1      47.224   5.521  13.045  0.00  0.00    +0.000 A 
ENDROOT
BRANCH   3   7
ATOM      7  C   UNL     1      43.364   4.339  11.558  0.00  0.00    +0.000 C 
ATOM      8  N   UNL     1      42.296   5.166  11.745  0.00  0.00    +0.000 N 
ATOM      9  O   UNL     1      43.223   3.238  11.040  0.00  0.00    +0.000 OA
ATOM     10  H   UNL     1      42.321   5.964  12.363  0.00  0.00    +0.000 HD
ATOM     11  H   UNL     1      41.390   4.782  11.510  0.00  0.00    +0.000 HD
ENDBRANCH   3   7
BRANCH   1  12
ATOM     12  O   UNL     1      47.226   3.544  14.411  0.00  0.00    +0.000 OA
BRANCH  12  14
ATOM     13  C   UNL     1      47.965   3.076  16.642  0.00  0.00    +0.000 C 
ATOM     14  C   UNL     1      47.184   4.031  15.756  0.00  0.00    +0.000 C 
ENDBRANCH  12  14
ENDBRANCH   1  12
BRANCH   6  15
ATOM     15  O   UNL     1      48.474   5.989  13.372  0.00  0.00    +0.000 OA
BRANCH  15  16
ATOM     16  C   UNL     1      48.535   7.196  14.141  0.00  0.00    +0.000 C 
BRANCH  16  17
ATOM     17  C   UNL     1      49.898   7.343  14.838  0.00  0.00    +0.000 C 
ATOM     18  C   UNL     1      50.342   8.811  14.881  0.00  0.00    +0.000 C 
BRANCH  17  19
ATOM     19  C   UNL     1      49.865   6.760  16.247  0.00  0.00    +0.000 A 
ATOM     20  C   UNL     1      48.809   7.072  17.115  0.00  0.00    +0.000 A 
ATOM     21  C   UNL     1      48.719   6.470  18.373  0.00  0.00    +0.000 A 
ATOM     22  C   UNL     1      49.673   5.534  18.775  0.00  0.00    +0.000 A 
ATOM     23  C   UNL     1      50.736   5.215  17.928  0.00  0.00    +0.000 A 
ATOM     24  C   UNL     1      50.847   5.851  16.685  0.00  0.00    +0.000 A 
BRANCH  23  25
ATOM     25  C   UNL     1      51.674   4.192  18.298  0.00  0.00    +0.000 C 
ATOM     26  N   UNL     1      52.410   3.343  18.575  0.00  0.00    +0.000 NA
ENDBRANCH  23  25
ENDBRANCH  17  19
ENDBRANCH  16  17
ENDBRANCH  15  16
ENDBRANCH   6  15
TORSDOF 8
ENDMDL
MODEL 8
REMARK VINA RESULT:    -5.600      3.013      7.897
REMARK INTER + INTRA:          -9.375
REMARK INTER:                  -8.286
REMARK INTRA:                  -1.088
REMARK UNBOUND:                -1.156
REMARK  Name = 
REMARK  10 active torsions:
REMARK  status: ('A' for Active; 'I' for Inactive)
REMARK    1  A    between atoms: C_1  and  C_2
REMARK    2  A    between atoms: C_2  and  O_3
REMARK    3  A    between atoms: O_3  and  C_4
REMARK    4  A    between atoms: C_6  and  C_7
REMARK    5  A    between atoms: C_12  and  O_13
REMARK    6  A    between atoms: O_13  and  C_14
REMARK    7  A    between atoms: C_14  and  C_15
REMARK    8  A    between atoms: C_15  and  C_16
REMARK    9  A    between atoms: C_15  and  C_17
REMARK   10  A    between atoms: C_21  and  C_22
REMARK                            x       y       z     vdW  Elec       q    Type
REMARK                         _______ _______ _______ _____ _____    ______ ____
ROOT
ATOM      1  C   UNL     1      46.762   4.216  13.566  0.00  0.00    +0.000 A 
ATOM      2  C   UNL     1      45.713   3.802  12.737  0.00  0.00    +0.000 A 
ATOM      3  C   UNL     1      45.168   4.668  11.784  0.00  0.00    +0.000 A 
ATOM      4  C   UNL     1      45.697   5.952  11.637  0.00  0.00    +0.000 A 
ATOM      5  C   UNL     1      46.785   6.347  12.425  0.00  0.00    +0.000 A 
ATOM      6  C   UNL     1      47.352   5.476  13.368  0.00  0.00    +0.000 A 
ENDROOT
BRANCH   3   7
ATOM      7  C   UNL     1      44.034   4.164  10.965  0.00  0.00    +0.000 C 
ATOM      8  N   UNL     1      43.812   4.762   9.760  0.00  0.00    +0.000 N 
ATOM      9  O   UNL     1      43.293   3.278  11.374  0.00  0.00    +0.000 OA
ATOM     10  H   UNL     1      44.243   5.633   9.491  0.00  0.00    +0.000 HD
ATOM     11  H   UNL     1      42.964   4.488   9.278  0.00  0.00    +0.000 HD
ENDBRANCH   3   7
BRANCH   1  12
ATOM     12  O   UNL     1      47.234   3.385  14.548  0.00  0.00    +0.000 OA
BRANCH  12  14
ATOM     13  C   UNL     1      47.870   2.940  16.815  0.00  0.00    +0.000 C 
ATOM     14  C   UNL     1      47.210   3.930  15.871  0.00  0.00    +0.000 C 
ENDBRANCH  12  14
ENDBRANCH   1  12
BRANCH   6  15
ATOM     15  O   UNL     1      48.454   5.999  14.003  0.00  0.00    +0.000 OA
BRANCH  15  16
ATOM     16  C   UNL     1      48.348   7.345  14.482  0.00  0.00    +0.000 C 
BRANCH  16  17
ATOM     17  C   UNL     1      49.545   7.713  15.373  0.00  0.00    +0.000 C 
ATOM     18  C   UNL     1      49.453   9.169  15.850  0.00  0.00    +0.000 C 
BRANCH  17  19
ATOM     19  C   UNL     1      49.655   6.772  16.568  0.00  0.00    +0.000 A 
ATOM     20  C   UNL     1      50.774   5.939  16.708  0.00  0.00    +0.000 A 
ATOM     21  C   UNL     1      50.930   5.141  17.845  0.00  0.00    +0.000 A 
ATOM     22  C   UNL     1      49.982   5.178  18.867  0.00  0.00    +0.000 A 
ATOM     23  C   UNL     1      48.857   5.997  18.744  0.00  0.00    +0.000 A 
ATOM     24  C   UNL     1      48.681   6.763  17.585  0.00  0.00    +0.000 A 
BRANCH  23  25
ATOM     25  C   UNL     1      47.919   6.105  19.826  0.00  0.00    +0.000 C 
ATOM     26  N   UNL     1      47.186   6.172  20.720  0.00  0.00    +0.000 NA
ENDBRANCH  23  25
ENDBRANCH  17  19
ENDBRANCH  16  17
ENDBRANCH  15  16
ENDBRANCH   6  15
TORSDOF 8
ENDMDL
MODEL 9
REMARK VINA RESULT:    -5.450      3.626      8.169
REMARK INTER + INTRA:          -9.155
REMARK INTER:                  -8.356
REMARK INTRA:                  -0.799
REMARK UNBOUND:                -1.156
REMARK  Name = 
REMARK  10 active torsions:
REMARK  status: ('A' for Active; 'I' for Inactive)
REMARK    1  A    between atoms: C_1  and  C_2
REMARK    2  A    between atoms: C_2  and  O_3
REMARK    3  A    between atoms: O_3  and  C_4
REMARK    4  A    between atoms: C_6  and  C_7
REMARK    5  A    between atoms: C_12  and  O_13
REMARK    6  A    between atoms: O_13  and  C_14
REMARK    7  A    between atoms: C_14  and  C_15
REMARK    8  A    between atoms: C_15  and  C_16
REMARK    9  A    between atoms: C_15  and  C_17
REMARK   10  A    between atoms: C_21  and  C_22
REMARK                            x       y       z     vdW  Elec       q    Type
REMARK                         _______ _______ _______ _____ _____    ______ ____
ROOT
ATOM      1  C   UNL     1      45.362   5.178  13.255  0.00  0.00    +0.000 A 
ATOM      2  C   UNL     1      44.771   6.199  12.501  0.00  0.00    +0.000 A 
ATOM      3  C   UNL     1      45.410   7.433  12.340  0.00  0.00    +0.000 A 
ATOM      4  C   UNL     1      46.667   7.638  12.914  0.00  0.00    +0.000 A 
ATOM      5  C   UNL     1      47.284   6.597  13.618  0.00  0.00    +0.000 A 
ATOM      6  C   UNL     1      46.660   5.350  13.765  0.00  0.00    +0.000 A 
ENDROOT
BRANCH   3   7
ATOM      7  C   UNL     1      44.702   8.476  11.552  0.00  0.00    +0.000 C 
ATOM      8  N   UNL     1      43.516   8.132  10.972  0.00  0.00    +0.000 N 
ATOM      9  O   UNL     1      45.184   9.589  11.385  0.00  0.00    +0.000 OA
ATOM     10  H   UNL     1      43.201   7.177  10.889  0.00  0.00    +0.000 HD
ATOM     11  H   UNL     1      43.116   8.815  10.342  0.00  0.00    +0.000 HD
ENDBRANCH   3   7
BRANCH   1  12
ATOM     12  O   UNL     1      44.690   4.003  13.470  0.00  0.00    +0.000 OA
BRANCH  12  14
ATOM     13  C   UNL     1      43.420   2.869  11.784  0.00  0.00    +0.000 C 
ATOM     14  C   UNL     1      43.391   3.926  12.874  0.00  0.00    +0.000 C 
ENDBRANCH  12  14
ENDBRANCH   1  12
BRANCH   6  15
ATOM     15  O   UNL     1      47.435   4.424  14.424  0.00  0.00    +0.000 OA
BRANCH  15  16
ATOM     16  C   UNL     1      48.037   4.841  15.654  0.00  0.00    +0.000 C 
BRANCH  16  17
ATOM     17  C   UNL     1      47.692   3.872  16.798  0.00  0.00    +0.000 C 
ATOM     18  C   UNL     1      48.527   2.588  16.707  0.00  0.00    +0.000 C 
BRANCH  17  19
ATOM     19  C   UNL     1      47.886   4.533  18.159  0.00  0.00    +0.000 A 
ATOM     20  C   UNL     1      48.545   3.847  19.188  0.00  0.00    +0.000 A 
ATOM     21  C   UNL     1      48.811   4.475  20.408  0.00  0.00    +0.000 A 
ATOM     22  C   UNL     1      48.437   5.804  20.611  0.00  0.00    +0.000 A 
ATOM     23  C   UNL     1      47.772   6.502  19.601  0.00  0.00    +0.000 A 
ATOM     24  C   UNL     1      47.470   5.857  18.396  0.00  0.00    +0.000 A 
BRANCH  23  25
ATOM     25  C   UNL     1      47.459   7.894  19.769  0.00  0.00    +0.000 C 
ATOM     26  N   UNL     1      47.244   9.023  19.908  0.00  0.00    +0.000 NA
ENDBRANCH  23  25
ENDBRANCH  17  19
ENDBRANCH  16  17
ENDBRANCH  15  16
ENDBRANCH   6  15
TORSDOF 8
ENDMDL
