MODEL 1
REMARK VINA RESULT:    -7.409      0.000      0.000
REMARK INTER + INTRA:         -10.095
REMARK INTER:                  -9.358
REMARK INTRA:                  -0.737
REMARK UNBOUND:                -0.737
REMARK  Name = 
REMARK  8 active torsions:
REMARK  status: ('A' for Active; 'I' for Inactive)
REMARK    1  A    between atoms: C_1  and  C_2
REMARK    2  A    between atoms: C_2  and  C_3
REMARK    3  A    between atoms: C_2  and  C_4
REMARK    4  A    between atoms: C_2  and  C_5
REMARK    5  A    between atoms: C_8  and  C_9
REMARK    6  A    between atoms: C_9  and  N_10
REMARK    7  A    between atoms: C_15  and  C_16
REMARK    8  A    between atoms: C_16  and  O_18
REMARK                            x       y       z     vdW  Elec       q    Type
REMARK                         _______ _______ _______ _____ _____    ______ ____
ROOT
ATOM      1  N   UNL     1      44.301   4.334  10.519  0.00  0.00    +0.000 N 
ATOM      2  C   UNL     1      43.707   3.169  10.938  0.00  0.00    +0.000 A 
ATOM      3  C   UNL     1      44.163   2.147  10.138  0.00  0.00    +0.000 A 
ATOM      4  C   UNL     1      45.067   2.706   9.197  0.00  0.00    +0.000 A 
ATOM      5  C   UNL     1      45.810   2.165   8.128  0.00  0.00    +0.000 A 
ATOM      6  C   UNL     1      46.624   3.003   7.349  0.00  0.00    +0.000 A 
ATOM      7  C   UNL     1      46.708   4.368   7.643  0.00  0.00    +0.000 A 
ATOM      8  C   UNL     1      45.988   4.923   8.710  0.00  0.00    +0.000 A 
ATOM      9  C   UNL     1      45.157   4.075   9.462  0.00  0.00    +0.000 A 
ENDROOT
BRANCH   6  10
ATOM     10  C   UNL     1      47.316   2.390   6.184  0.00  0.00    +0.000 C 
ATOM     11  O   UNL     1      47.995   1.384   6.277  0.00  0.00    +0.000 OA
BRANCH  10  12
ATOM     12  O   UNL     1      47.155   3.056   5.022  0.00  0.00    +0.000 OA
ATOM     13  H   UNL     1      47.805   3.764   4.856  0.00  0.00    +0.000 HD
ENDBRANCH  10  12
ENDBRANCH   6  10
BRANCH   1  14
ATOM     14  C   UNL     1      43.990   5.654  11.069  0.00  0.00    +0.000 C 
BRANCH  14  18
ATOM     15  C   UNL     1      47.229   7.191  13.412  0.00  0.00    +0.000 A 
ATOM     16  C   UNL     1      46.552   8.064  12.560  0.00  0.00    +0.000 A 
ATOM     17  C   UNL     1      45.489   7.594  11.793  0.00  0.00    +0.000 A 
ATOM     18  C   UNL     1      45.115   6.254  11.865  0.00  0.00    +0.000 A 
ATOM     19  C   UNL     1      45.808   5.466  12.778  0.00  0.00    +0.000 A 
ATOM     20  N   UNL     1      46.842   5.899  13.536  0.00  0.00    +0.000 NA
BRANCH  15  22
ATOM     21  C   UNL     1      49.687   7.734  13.308  0.00  0.00    +0.000 C 
ATOM     22  C   UNL     1      48.446   7.665  14.217  0.00  0.00    +0.000 C 
ATOM     23  C   UNL     1      48.705   6.691  15.382  0.00  0.00    +0.000 C 
ATOM     24  C   UNL     1      48.223   9.070  14.820  0.00  0.00    +0.000 C 
ENDBRANCH  15  22
ENDBRANCH  14  18
ENDBRANCH   1  14
TORSDOF 5
ENDMDL
MODEL 2
REMARK VINA RESULT:    -7.072      3.490      7.339
REMARK INTER + INTRA:          -9.669
REMARK INTER:                  -8.928
REMARK INTRA:                  -0.741
REMARK UNBOUND:                -0.737
REMARK  Name = 
REMARK  8 active torsions:
REMARK  status: ('A' for Active; 'I' for Inactive)
REMARK    1  A    between atoms: C_1  and  C_2
REMARK    2  A    between atoms: C_2  and  C_3
REMARK    3  A    between atoms: C_2  and  C_4
REMARK    4  A    between atoms: C_2  and  C_5
REMARK    5  A    between atoms: C_8  and  C_9
REMARK    6  A    between atoms: C_9  and  N_10
REMARK    7  A    between atoms: C_15  and  C_16
REMARK    8  A    between atoms: C_16  and  O_18
REMARK                            x       y       z     vdW  Elec       q    Type
REMARK                         _______ _______ _______ _____ _____    ______ ____
ROOT
ATOM      1  N   UNL     1      44.709   6.208  11.524  0.00  0.00    +0.000 N 
ATOM      2  C   UNL     1      44.493   7.539  11.259  0.00  0.00    +0.000 A 
ATOM      3  C   UNL     1      45.385   8.271  12.008  0.00  0.00    +0.000 A 
ATOM      4  C   UNL     1      46.172   7.358  12.758  0.00  0.00    +0.000 A 
ATOM      5  C   UNL     1      47.204   7.519  13.704  0.00  0.00    +0.000 A 
ATOM      6  C   UNL     1      47.789   6.389  14.299  0.00  0.00    +0.000 A 
ATOM      7  C   UNL     1      47.357   5.107  13.941  0.00  0.00    +0.000 A 
ATOM      8  C   UNL     1      46.341   4.926  12.992  0.00  0.00    +0.000 A 
ATOM      9  C   UNL     1      45.748   6.068  12.428  0.00  0.00    +0.000 A 
ENDROOT
BRANCH   6  10
ATOM     10  C   UNL     1      48.813   6.625  15.350  0.00  0.00    +0.000 C 
ATOM     11  O   UNL     1      50.007   6.651  15.113  0.00  0.00    +0.000 OA
BRANCH  10  12
ATOM     12  O   UNL     1      48.315   6.777  16.595  0.00  0.00    +0.000 OA
ATOM     13  H   UNL     1      48.785   6.285  17.293  0.00  0.00    +0.000 HD
ENDBRANCH  10  12
ENDBRANCH   6  10
BRANCH   1  14
ATOM     14  C   UNL     1      43.888   5.125  10.984  0.00  0.00    +0.000 C 
BRANCH  14  18
ATOM     15  C   UNL     1      45.998   2.870   8.016  0.00  0.00    +0.000 A 
ATOM     16  C   UNL     1      45.234   2.179   8.956  0.00  0.00    +0.000 A 
ATOM     17  C   UNL     1      44.529   2.887   9.927  0.00  0.00    +0.000 A 
ATOM     18  C   UNL     1      44.603   4.277   9.968  0.00  0.00    +0.000 A 
ATOM     19  C   UNL     1      45.345   4.888   8.963  0.00  0.00    +0.000 A 
ATOM     20  N   UNL     1      46.035   4.224   8.007  0.00  0.00    +0.000 NA
BRANCH  15  22
ATOM     21  C   UNL     1      46.208   2.257   5.581  0.00  0.00    +0.000 C 
ATOM     22  C   UNL     1      46.838   2.114   6.978  0.00  0.00    +0.000 C 
ATOM     23  C   UNL     1      46.915   0.624   7.365  0.00  0.00    +0.000 C 
ATOM     24  C   UNL     1      48.283   2.655   6.904  0.00  0.00    +0.000 C 
ENDBRANCH  15  22
ENDBRANCH  14  18
ENDBRANCH   1  14
TORSDOF 5
ENDMDL
MODEL 3
REMARK VINA RESULT:    -5.964      3.485      5.851
REMARK INTER + INTRA:          -8.269
REMARK INTER:                  -7.464
REMARK INTRA:                  -0.805
REMARK UNBOUND:                -0.737
REMARK  Name = 
REMARK  8 active torsions:
REMARK  status: ('A' for Active; 'I' for Inactive)
REMARK    1  A    between atoms: C_1  and  C_2
REMARK    2  A    between atoms: C_2  and  C_3
REMARK    3  A    between atoms: C_2  and  C_4
REMARK    4  A    between atoms: C_2  and  C_5
REMARK    5  A    between atoms: C_8  and  C_9
REMARK    6  A    between atoms: C_9  and  N_10
REMARK    7  A    between atoms: C_15  and  C_16
REMARK    8  A    between atoms: C_16  and  O_18
REMARK                            x       y       z     vdW  Elec       q    Type
REMARK                         _______ _______ _______ _____ _____    ______ ____
ROOT
ATOM      1  N   UNL     1      47.424   7.022  13.596  0.00  0.00    +0.000 N 
ATOM      2  C   UNL     1      46.794   8.152  13.133  0.00  0.00    +0.000 A 
ATOM      3  C   UNL     1      45.635   7.764  12.503  0.00  0.00    +0.000 A 
ATOM      4  C   UNL     1      45.553   6.349  12.581  0.00  0.00    +0.000 A 
ATOM      5  C   UNL     1      44.625   5.404  12.099  0.00  0.00    +0.000 A 
ATOM      6  C   UNL     1      44.837   4.035  12.331  0.00  0.00    +0.000 A 
ATOM      7  C   UNL     1      45.958   3.613  13.053  0.00  0.00    +0.000 A 
ATOM      8  C   UNL     1      46.886   4.538  13.552  0.00  0.00    +0.000 A 
ATOM      9  C   UNL     1      46.673   5.901  13.287  0.00  0.00    +0.000 A 
ENDROOT
BRANCH   6  10
ATOM     10  C   UNL     1      43.869   3.083  11.725  0.00  0.00    +0.000 C 
ATOM     11  O   UNL     1      43.443   3.209  10.592  0.00  0.00    +0.000 OA
BRANCH  10  12
ATOM     12  O   UNL     1      43.479   2.084  12.543  0.00  0.00    +0.000 OA
ATOM     13  H   UNL     1      44.142   1.802  13.199  0.00  0.00    +0.000 HD
ENDBRANCH  10  12
ENDBRANCH   6  10
BRANCH   1  14
ATOM     14  C   UNL     1      48.738   7.026  14.239  0.00  0.00    +0.000 C 
BRANCH  14  18
ATOM     15  C   UNL     1      48.540   7.170  18.515  0.00  0.00    +0.000 A 
ATOM     16  C   UNL     1      48.605   5.922  17.895  0.00  0.00    +0.000 A 
ATOM     17  C   UNL     1      48.680   5.846  16.507  0.00  0.00    +0.000 A 
ATOM     18  C   UNL     1      48.672   7.010  15.741  0.00  0.00    +0.000 A 
ATOM     19  C   UNL     1      48.658   8.211  16.442  0.00  0.00    +0.000 A 
ATOM     20  N   UNL     1      48.588   8.313  17.789  0.00  0.00    +0.000 NA
BRANCH  15  22
ATOM     21  C   UNL     1      49.773   7.270  20.711  0.00  0.00    +0.000 C 
ATOM     22  C   UNL     1      48.388   7.283  20.038  0.00  0.00    +0.000 C 
ATOM     23  C   UNL     1      47.544   6.104  20.560  0.00  0.00    +0.000 C 
ATOM     24  C   UNL     1      47.675   8.590  20.449  0.00  0.00    +0.000 C 
ENDBRANCH  15  22
ENDBRANCH  14  18
ENDBRANCH   1  14
TORSDOF 5
ENDMDL
MODEL 4
REMARK VINA RESULT:    -5.777      3.287      5.513
REMARK INTER + INTRA:          -8.033
REMARK INTER:                  -7.353
REMARK INTRA:                  -0.680
REMARK UNBOUND:                -0.737
REMARK  Name = 
REMARK  8 active torsions:
REMARK  status: ('A' for Active; 'I' for Inactive)
REMARK    1  A    between atoms: C_1  and  C_2
REMARK    2  A    between atoms: C_2  and  C_3
REMARK    3  A    between atoms: C_2  and  C_4
REMARK    4  A    between atoms: C_2  and  C_5
REMARK    5  A    between atoms: C_8  and  C_9
REMARK    6  A    between atoms: C_9  and  N_10
REMARK    7  A    between atoms: C_15  and  C_16
REMARK    8  A    between atoms: C_16  and  O_18
REMARK                            x       y       z     vdW  Elec       q    Type
REMARK                         _______ _______ _______ _____ _____    ______ ____
ROOT
ATOM      1  N   UNL     1      46.599   7.614  13.134  0.00  0.00    +0.000 N 
ATOM      2  C   UNL     1      45.856   8.553  12.461  0.00  0.00    +0.000 A 
ATOM      3  C   UNL     1      44.846   7.899  11.795  0.00  0.00    +0.000 A 
ATOM      4  C   UNL     1      44.975   6.512  12.068  0.00  0.00    +0.000 A 
ATOM      5  C   UNL     1      44.263   5.371  11.649  0.00  0.00    +0.000 A 
ATOM      6  C   UNL     1      44.657   4.098  12.091  0.00  0.00    +0.000 A 
ATOM      7  C   UNL     1      45.746   3.966  12.960  0.00  0.00    +0.000 A 
ATOM      8  C   UNL     1      46.460   5.089  13.400  0.00  0.00    +0.000 A 
ATOM      9  C   UNL     1      46.069   6.352  12.925  0.00  0.00    +0.000 A 
ENDROOT
BRANCH   6  10
ATOM     10  C   UNL     1      43.920   2.927  11.548  0.00  0.00    +0.000 C 
ATOM     11  O   UNL     1      43.717   2.772  10.357  0.00  0.00    +0.000 OA
BRANCH  10  12
ATOM     12  O   UNL     1      43.468   2.065  12.482  0.00  0.00    +0.000 OA
ATOM     13  H   UNL     1      43.058   1.253  12.133  0.00  0.00    +0.000 HD
ENDBRANCH  10  12
ENDBRANCH   6  10
BRANCH   1  14
ATOM     14  C   UNL     1      47.819   7.920  13.881  0.00  0.00    +0.000 C 
BRANCH  14  18
ATOM     15  C   UNL     1      51.435   8.101  11.592  0.00  0.00    +0.000 A 
ATOM     16  C   UNL     1      50.261   7.705  10.950  0.00  0.00    +0.000 A 
ATOM     17  C   UNL     1      49.069   7.646  11.667  0.00  0.00    +0.000 A 
ATOM     18  C   UNL     1      49.053   7.965  13.023  0.00  0.00    +0.000 A 
ATOM     19  C   UNL     1      50.256   8.400  13.571  0.00  0.00    +0.000 A 
ATOM     20  N   UNL     1      51.426   8.468  12.895  0.00  0.00    +0.000 NA
BRANCH  15  22
ATOM     21  C   UNL     1      53.940   8.187  11.845  0.00  0.00    +0.000 C 
ATOM     22  C   UNL     1      52.774   8.109  10.843  0.00  0.00    +0.000 C 
ATOM     23  C   UNL     1      52.824   9.319   9.890  0.00  0.00    +0.000 C 
ATOM     24  C   UNL     1      52.965   6.834   9.993  0.00  0.00    +0.000 C 
ENDBRANCH  15  22
ENDBRANCH  14  18
ENDBRANCH   1  14
TORSDOF 5
ENDMDL
MODEL 5
REMARK VINA RESULT:    -5.762      3.357      5.321
REMARK INTER + INTRA:          -8.014
REMARK INTER:                  -7.308
REMARK INTRA:                  -0.706
REMARK UNBOUND:                -0.737
REMARK  Name = 
REMARK  8 active torsions:
REMARK  status: ('A' for Active; 'I' for Inactive)
REMARK    1  A    between atoms: C_1  and  C_2
REMARK    2  A    between atoms: C_2  and  C_3
REMARK    3  A    between atoms: C_2  and  C_4
REMARK    4  A    between atoms: C_2  and  C_5
REMARK    5  A    between atoms: C_8  and  C_9
REMARK    6  A    between atoms: C_9  and  N_10
REMARK    7  A    between atoms: C_15  and  C_16
REMARK    8  A    between atoms: C_16  and  O_18
REMARK                            x       y       z     vdW  Elec       q    Type
REMARK                         _______ _______ _______ _____ _____    ______ ____
ROOT
ATOM      1  N   UNL     1      47.306   6.828  13.356  0.00  0.00    +0.000 N 
ATOM      2  C   UNL     1      47.697   6.145  14.482  0.00  0.00    +0.000 A 
ATOM      3  C   UNL     1      47.149   4.885  14.427  0.00  0.00    +0.000 A 
ATOM      4  C   UNL     1      46.396   4.793  13.227  0.00  0.00    +0.000 A 
ATOM      5  C   UNL     1      45.603   3.778  12.656  0.00  0.00    +0.000 A 
ATOM      6  C   UNL     1      44.953   4.004  11.432  0.00  0.00    +0.000 A 
ATOM      7  C   UNL     1      45.106   5.229  10.774  0.00  0.00    +0.000 A 
ATOM      8  C   UNL     1      45.900   6.247  11.319  0.00  0.00    +0.000 A 
ATOM      9  C   UNL     1      46.521   6.014  12.558  0.00  0.00    +0.000 A 
ENDROOT
BRANCH   6  10
ATOM     10  C   UNL     1      44.065   2.926  10.922  0.00  0.00    +0.000 C 
ATOM     11  O   UNL     1      42.965   2.701  11.394  0.00  0.00    +0.000 OA
BRANCH  10  12
ATOM     12  O   UNL     1      44.587   2.199   9.912  0.00  0.00    +0.000 OA
ATOM     13  H   UNL     1      44.100   1.383   9.694  0.00  0.00    +0.000 HD
ENDBRANCH  10  12
ENDBRANCH   6  10
BRANCH   1  14
ATOM     14  C   UNL     1      47.615   8.236  13.107  0.00  0.00    +0.000 C 
BRANCH  14  18
ATOM     15  C   UNL     1      51.260   9.018  10.998  0.00  0.00    +0.000 A 
ATOM     16  C   UNL     1      50.805   7.701  11.072  0.00  0.00    +0.000 A 
ATOM     17  C   UNL     1      49.617   7.419  11.743  0.00  0.00    +0.000 A 
ATOM     18  C   UNL     1      48.899   8.445  12.352  0.00  0.00    +0.000 A 
ATOM     19  C   UNL     1      49.397   9.733  12.185  0.00  0.00    +0.000 A 
ATOM     20  N   UNL     1      50.545  10.034  11.536  0.00  0.00    +0.000 NA
BRANCH  15  22
ATOM     21  C   UNL     1      52.393  10.414   9.233  0.00  0.00    +0.000 C 
ATOM     22  C   UNL     1      52.598   9.348  10.324  0.00  0.00    +0.000 C 
ATOM     23  C   UNL     1      53.190   8.070   9.699  0.00  0.00    +0.000 C 
ATOM     24  C   UNL     1      53.630   9.897  11.334  0.00  0.00    +0.000 C 
ENDBRANCH  15  22
ENDBRANCH  14  18
ENDBRANCH   1  14
TORSDOF 5
ENDMDL
MODEL 6
REMARK VINA RESULT:    -5.643      5.540      9.108
REMARK INTER + INTRA:          -7.865
REMARK INTER:                  -7.078
REMARK INTRA:                  -0.787
REMARK UNBOUND:                -0.737
REMARK  Name = 
REMARK  8 active torsions:
REMARK  status: ('A' for Active; 'I' for Inactive)
REMARK    1  A    between atoms: C_1  and  C_2
REMARK    2  A    between atoms: C_2  and  C_3
REMARK    3  A    between atoms: C_2  and  C_4
REMARK    4  A    between atoms: C_2  and  C_5
REMARK    5  A    between atoms: C_8  and  C_9
REMARK    6  A    between atoms: C_9  and  N_10
REMARK    7  A    between atoms: C_15  and  C_16
REMARK    8  A    between atoms: C_16  and  O_18
REMARK                            x       y       z     vdW  Elec       q    Type
REMARK                         _______ _______ _______ _____ _____    ______ ____
ROOT
ATOM      1  N   UNL     1      50.402   5.045  17.765  0.00  0.00    +0.000 N 
ATOM      2  C   UNL     1      51.406   5.979  17.843  0.00  0.00    +0.000 A 
ATOM      3  C   UNL     1      52.610   5.313  17.810  0.00  0.00    +0.000 A 
ATOM      4  C   UNL     1      52.332   3.924  17.709  0.00  0.00    +0.000 A 
ATOM      5  C   UNL     1      53.146   2.775  17.666  0.00  0.00    +0.000 A 
ATOM      6  C   UNL     1      52.556   1.504  17.579  0.00  0.00    +0.000 A 
ATOM      7  C   UNL     1      51.163   1.381  17.519  0.00  0.00    +0.000 A 
ATOM      8  C   UNL     1      50.337   2.513  17.547  0.00  0.00    +0.000 A 
ATOM      9  C   UNL     1      50.943   3.776  17.662  0.00  0.00    +0.000 A 
ENDROOT
BRANCH   6  10
ATOM     10  C   UNL     1      53.462   0.326  17.623  0.00  0.00    +0.000 C 
ATOM     11  O   UNL     1      54.456   0.233  16.926  0.00  0.00    +0.000 OA
BRANCH  10  12
ATOM     12  O   UNL     1      53.078  -0.646  18.477  0.00  0.00    +0.000 OA
ATOM     13  H   UNL     1      52.119  -0.820  18.503  0.00  0.00    +0.000 HD
ENDBRANCH  10  12
ENDBRANCH   6  10
BRANCH   1  14
ATOM     14  C   UNL     1      48.978   5.367  17.867  0.00  0.00    +0.000 C 
BRANCH  14  18
ATOM     15  C   UNL     1      46.821   5.080  14.178  0.00  0.00    +0.000 A 
ATOM     16  C   UNL     1      47.749   6.111  14.326  0.00  0.00    +0.000 A 
ATOM     17  C   UNL     1      48.472   6.223  15.511  0.00  0.00    +0.000 A 
ATOM     18  C   UNL     1      48.255   5.319  16.550  0.00  0.00    +0.000 A 
ATOM     19  C   UNL     1      47.351   4.293  16.298  0.00  0.00    +0.000 A 
ATOM     20  N   UNL     1      46.639   4.161  15.156  0.00  0.00    +0.000 NA
BRANCH  15  22
ATOM     21  C   UNL     1      45.881   3.508  12.448  0.00  0.00    +0.000 C 
ATOM     22  C   UNL     1      45.962   4.974  12.911  0.00  0.00    +0.000 C 
ATOM     23  C   UNL     1      46.581   5.839  11.796  0.00  0.00    +0.000 C 
ATOM     24  C   UNL     1      44.521   5.476  13.150  0.00  0.00    +0.000 C 
ENDBRANCH  15  22
ENDBRANCH  14  18
ENDBRANCH   1  14
TORSDOF 5
ENDMDL
MODEL 7
REMARK VINA RESULT:    -5.586      3.532      5.694
REMARK INTER + INTRA:          -7.792
REMARK INTER:                  -7.337
REMARK INTRA:                  -0.455
REMARK UNBOUND:                -0.737
REMARK  Name = 
REMARK  8 active torsions:
REMARK  status: ('A' for Active; 'I' for Inactive)
REMARK    1  A    between atoms: C_1  and  C_2
REMARK    2  A    between atoms: C_2  and  C_3
REMARK    3  A    between atoms: C_2  and  C_4
REMARK    4  A    between atoms: C_2  and  C_5
REMARK    5  A    between atoms: C_8  and  C_9
REMARK    6  A    between atoms: C_9  and  N_10
REMARK    7  A    between atoms: C_15  and  C_16
REMARK    8  A    between atoms: C_16  and  O_18
REMARK                            x       y       z     vdW  Elec       q    Type
REMARK                         _______ _______ _______ _____ _____    ______ ____
ROOT
ATOM      1  N   UNL     1      47.095   4.852  14.507  0.00  0.00    +0.000 N 
ATOM      2  C   UNL     1      47.689   6.090  14.480  0.00  0.00    +0.000 A 
ATOM      3  C   UNL     1      47.416   6.666  13.261  0.00  0.00    +0.000 A 
ATOM      4  C   UNL     1      46.629   5.748  12.516  0.00  0.00    +0.000 A 
ATOM      5  C   UNL     1      46.085   5.770  11.216  0.00  0.00    +0.000 A 
ATOM      6  C   UNL     1      45.347   4.671  10.749  0.00  0.00    +0.000 A 
ATOM      7  C   UNL     1      45.139   3.563  11.578  0.00  0.00    +0.000 A 
ATOM      8  C   UNL     1      45.661   3.527  12.878  0.00  0.00    +0.000 A 
ATOM      9  C   UNL     1      46.421   4.624  13.320  0.00  0.00    +0.000 A 
ENDROOT
BRANCH   6  10
ATOM     10  C   UNL     1      44.870   4.718   9.341  0.00  0.00    +0.000 C 
ATOM     11  O   UNL     1      45.629   4.761   8.390  0.00  0.00    +0.000 OA
BRANCH  10  12
ATOM     12  O   UNL     1      43.528   4.739   9.203  0.00  0.00    +0.000 OA
ATOM     13  H   UNL     1      43.186   5.398   8.572  0.00  0.00    +0.000 HD
ENDBRANCH  10  12
ENDBRANCH   6  10
BRANCH   1  14
ATOM     14  C   UNL     1      47.244   3.899  15.608  0.00  0.00    +0.000 C 
BRANCH  14  18
ATOM     15  C   UNL     1      49.136   5.567  19.069  0.00  0.00    +0.000 A 
ATOM     16  C   UNL     1      47.747   5.645  18.969  0.00  0.00    +0.000 A 
ATOM     17  C   UNL     1      47.104   5.102  17.859  0.00  0.00    +0.000 A 
ATOM     18  C   UNL     1      47.847   4.501  16.846  0.00  0.00    +0.000 A 
ATOM     19  C   UNL     1      49.221   4.421  17.051  0.00  0.00    +0.000 A 
ATOM     20  N   UNL     1      49.869   4.937  18.121  0.00  0.00    +0.000 NA
BRANCH  15  22
ATOM     21  C   UNL     1      48.882   6.984  21.137  0.00  0.00    +0.000 C 
ATOM     22  C   UNL     1      49.875   6.216  20.247  0.00  0.00    +0.000 C 
ATOM     23  C   UNL     1      50.950   7.182  19.711  0.00  0.00    +0.000 C 
ATOM     24  C   UNL     1      50.586   5.165  21.128  0.00  0.00    +0.000 C 
ENDBRANCH  15  22
ENDBRANCH  14  18
ENDBRANCH   1  14
TORSDOF 5
ENDMDL
MODEL 8
REMARK VINA RESULT:    -5.404      5.098      8.999
REMARK INTER + INTRA:          -7.562
REMARK INTER:                  -6.802
REMARK INTRA:                  -0.760
REMARK UNBOUND:                -0.737
REMARK  Name = 
REMARK  8 active torsions:
REMARK  status: ('A' for Active; 'I' for Inactive)
REMARK    1  A    between atoms: C_1  and  C_2
REMARK    2  A    between atoms: C_2  and  C_3
REMARK    3  A    between atoms: C_2  and  C_4
REMARK    4  A    between atoms: C_2  and  C_5
REMARK    5  A    between atoms: C_8  and  C_9
REMARK    6  A    between atoms: C_9  and  N_10
REMARK    7  A    between atoms: C_15  and  C_16
REMARK    8  A    between atoms: C_16  and  O_18
REMARK                            x       y       z     vdW  Elec       q    Type
REMARK                         _______ _______ _______ _____ _____    ______ ____
ROOT
ATOM      1  N   UNL     1      48.653   7.516  14.743  0.00  0.00    +0.000 N 
ATOM      2  C   UNL     1      48.412   8.868  14.749  0.00  0.00    +0.000 A 
ATOM      3  C   UNL     1      48.251   9.266  16.056  0.00  0.00    +0.000 A 
ATOM      4  C   UNL     1      48.396   8.117  16.878  0.00  0.00    +0.000 A 
ATOM      5  C   UNL     1      48.307   7.902  18.268  0.00  0.00    +0.000 A 
ATOM      6  C   UNL     1      48.488   6.611  18.789  0.00  0.00    +0.000 A 
ATOM      7  C   UNL     1      48.773   5.543  17.930  0.00  0.00    +0.000 A 
ATOM      8  C   UNL     1      48.879   5.739  16.546  0.00  0.00    +0.000 A 
ATOM      9  C   UNL     1      48.667   7.032  16.039  0.00  0.00    +0.000 A 
ENDROOT
BRANCH   6  10
ATOM     10  C   UNL     1      48.298   6.433  20.252  0.00  0.00    +0.000 C 
ATOM     11  O   UNL     1      48.575   5.398  20.831  0.00  0.00    +0.000 OA
BRANCH  10  12
ATOM     12  O   UNL     1      47.766   7.500  20.884  0.00  0.00    +0.000 OA
ATOM     13  H   UNL     1      47.330   7.304  21.733  0.00  0.00    +0.000 HD
ENDBRANCH  10  12
ENDBRANCH   6  10
BRANCH   1  14
ATOM     14  C   UNL     1      48.782   6.716  13.525  0.00  0.00    +0.000 C 
BRANCH  14  18
ATOM     15  C   UNL     1      45.097   5.094  12.062  0.00  0.00    +0.000 A 
ATOM     16  C   UNL     1      45.622   4.585  13.250  0.00  0.00    +0.000 A 
ATOM     17  C   UNL     1      46.814   5.100  13.754  0.00  0.00    +0.000 A 
ATOM     18  C   UNL     1      47.487   6.107  13.065  0.00  0.00    +0.000 A 
ATOM     19  C   UNL     1      46.867   6.592  11.919  0.00  0.00    +0.000 A 
ATOM     20  N   UNL     1      45.709   6.112  11.410  0.00  0.00    +0.000 NA
BRANCH  15  22
ATOM     21  C   UNL     1      44.005   4.308   9.932  0.00  0.00    +0.000 C 
ATOM     22  C   UNL     1      43.823   4.500  11.449  0.00  0.00    +0.000 C 
ATOM     23  C   UNL     1      42.634   5.443  11.716  0.00  0.00    +0.000 C 
ATOM     24  C   UNL     1      43.479   3.124  12.062  0.00  0.00    +0.000 C 
ENDBRANCH  15  22
ENDBRANCH  14  18
ENDBRANCH   1  14
TORSDOF 5
ENDMDL
MODEL 9
REMARK VINA RESULT:    -5.403      6.484      8.306
REMARK INTER + INTRA:          -7.562
REMARK INTER:                  -6.732
REMARK INTRA:                  -0.830
REMARK UNBOUND:                -0.737
REMARK  Name = 
REMARK  8 active torsions:
REMARK  status: ('A' for Active; 'I' for Inactive)
REMARK    1  A    between atoms: C_1  and  C_2
REMARK    2  A    between atoms: C_2  and  C_3
REMARK    3  A    between atoms: C_2  and  C_4
REMARK    4  A    between atoms: C_2  and  C_5
REMARK    5  A    between atoms: C_8  and  C_9
REMARK    6  A    between atoms: C_9  and  N_10
REMARK    7  A    between atoms: C_15  and  C_16
REMARK    8  A    between atoms: C_16  and  O_18
REMARK                            x       y       z     vdW  Elec       q    Type
REMARK                         _______ _______ _______ _____ _____    ______ ____
ROOT
ATOM      1  N   UNL     1      48.642   5.053  17.124  0.00  0.00    +0.000 N 
ATOM      2  C   UNL     1      47.532   4.298  16.835  0.00  0.00    +0.000 A 
ATOM      3  C   UNL     1      47.898   2.972  16.873  0.00  0.00    +0.000 A 
ATOM      4  C   UNL     1      49.281   2.915  17.194  0.00  0.00    +0.000 A 
ATOM      5  C   UNL     1      50.198   1.856  17.339  0.00  0.00    +0.000 A 
ATOM      6  C   UNL     1      51.539   2.131  17.653  0.00  0.00    +0.000 A 
ATOM      7  C   UNL     1      51.958   3.453  17.836  0.00  0.00    +0.000 A 
ATOM      8  C   UNL     1      51.058   4.520  17.708  0.00  0.00    +0.000 A 
ATOM      9  C   UNL     1      49.726   4.229  17.367  0.00  0.00    +0.000 A 
ENDROOT
BRANCH   6  10
ATOM     10  C   UNL     1      52.477   0.979  17.710  0.00  0.00    +0.000 C 
ATOM     11  O   UNL     1      53.584   1.005  17.204  0.00  0.00    +0.000 OA
BRANCH  10  12
ATOM     12  O   UNL     1      51.991  -0.110  18.343  0.00  0.00    +0.000 OA
ATOM     13  H   UNL     1      51.188   0.043  18.874  0.00  0.00    +0.000 HD
ENDBRANCH  10  12
ENDBRANCH   6  10
BRANCH   1  14
ATOM     14  C   UNL     1      48.666   6.516  17.085  0.00  0.00    +0.000 C 
BRANCH  14  18
ATOM     15  C   UNL     1      50.083   8.069  13.354  0.00  0.00    +0.000 A 
ATOM     16  C   UNL     1      50.939   8.103  14.456  0.00  0.00    +0.000 A 
ATOM     17  C   UNL     1      50.508   7.596  15.679  0.00  0.00    +0.000 A 
ATOM     18  C   UNL     1      49.222   7.074  15.805  0.00  0.00    +0.000 A 
ATOM     19  C   UNL     1      48.455   7.031  14.645  0.00  0.00    +0.000 A 
ATOM     20  N   UNL     1      48.851   7.514  13.445  0.00  0.00    +0.000 NA
BRANCH  15  22
ATOM     21  C   UNL     1      51.697   9.637  12.219  0.00  0.00    +0.000 C 
ATOM     22  C   UNL     1      50.507   8.682  12.013  0.00  0.00    +0.000 C 
ATOM     23  C   UNL     1      49.321   9.452  11.400  0.00  0.00    +0.000 C 
ATOM     24  C   UNL     1      50.938   7.600  10.998  0.00  0.00    +0.000 C 
ENDBRANCH  15  22
ENDBRANCH  14  18
ENDBRANCH   1  14
TORSDOF 5
ENDMDL
