MODEL 1
REMARK VINA RESULT:    -8.714      0.000      0.000
REMARK INTER + INTRA:         -12.052
REMARK INTER:                 -11.260
REMARK INTRA:                  -0.792
REMARK UNBOUND:                -0.792
REMARK  Name = 
REMARK  5 active torsions:
REMARK  status: ('A' for Active; 'I' for Inactive)
REMARK    1  A    between atoms: C_2  and  C_18
REMARK    2  A    between atoms: N_3  and  C_4
REMARK    3  A    between atoms: C_4  and  C_5
REMARK    4  A    between atoms: N_8  and  C_9
REMARK    5  A    between atoms: C_9  and  C_10
REMARK                            x       y       z     vdW  Elec       q    Type
REMARK                         _______ _______ _______ _____ _____    ______ ____
ROOT
ATOM      1  O   UNL     1      48.310   5.863  12.917  0.00  0.00    +0.000 OA
ATOM      2  C   UNL     1      47.730   6.063  13.979  0.00  0.00    +0.000 C 
ATOM      3  N   UNL     1      46.367   6.165  14.078  0.00  0.00    +0.000 N 
ATOM      4  H   UNL     1      45.978   6.574  14.921  0.00  0.00    +0.000 HD
ENDROOT
BRANCH   2   5
ATOM      5  C   UNL     1      48.450   6.140  15.254  0.00  0.00    +0.000 A 
ATOM      6  C   UNL     1      49.404   7.123  15.474  0.00  0.00    +0.000 A 
ATOM      7  S   UNL     1      50.150   7.011  17.007  0.00  0.00    +0.000 S 
ATOM      8  C   UNL     1      49.198   5.668  17.441  0.00  0.00    +0.000 A 
ATOM      9  N   UNL     1      49.322   5.075  18.655  0.00  0.00    +0.000 NA
ATOM     10  C   UNL     1      48.521   4.078  18.849  0.00  0.00    +0.000 A 
ATOM     11  N   UNL     1      47.609   3.624  17.935  0.00  0.00    +0.000 N 
ATOM     12  C   UNL     1      47.475   4.163  16.684  0.00  0.00    +0.000 A 
ATOM     13  O   UNL     1      46.704   3.672  15.863  0.00  0.00    +0.000 OA
ATOM     14  C   UNL     1      48.337   5.300  16.420  0.00  0.00    +0.000 A 
ATOM     15  H   UNL     1      47.021   2.828  18.134  0.00  0.00    +0.000 HD
ENDBRANCH   2   5
BRANCH   3  16
ATOM     16  C   UNL     1      45.472   6.118  12.946  0.00  0.00    +0.000 C 
BRANCH  16  17
ATOM     17  C   UNL     1      44.650   4.819  12.971  0.00  0.00    +0.000 C 
ATOM     18  C   UNL     1      45.415   3.629  12.375  0.00  0.00    +0.000 C 
ATOM     19  C   UNL     1      45.539   3.718  10.854  0.00  0.00    +0.000 C 
ATOM     20  N   UNL     1      44.219   3.816  10.211  0.00  0.00    +0.000 NA
ATOM     21  C   UNL     1      43.482   4.993  10.704  0.00  0.00    +0.000 C 
ATOM     22  C   UNL     1      43.319   4.982  12.231  0.00  0.00    +0.000 C 
BRANCH  20  23
ATOM     23  C   UNL     1      44.358   3.880   8.736  0.00  0.00    +0.000 C 
BRANCH  23  24
ATOM     24  C   UNL     1      45.500   3.039   8.186  0.00  0.00    +0.000 A 
ATOM     25  C   UNL     1      46.496   3.610   7.380  0.00  0.00    +0.000 A 
ATOM     26  C   UNL     1      47.482   2.810   6.793  0.00  0.00    +0.000 A 
ATOM     27  C   UNL     1      47.509   1.438   7.040  0.00  0.00    +0.000 A 
ATOM     28  C   UNL     1      46.562   0.868   7.887  0.00  0.00    +0.000 A 
ATOM     29  C   UNL     1      45.561   1.661   8.452  0.00  0.00    +0.000 A 
ENDBRANCH  23  24
ENDBRANCH  20  23
ENDBRANCH  16  17
ENDBRANCH   3  16
TORSDOF 5
ENDMDL
MODEL 2
REMARK VINA RESULT:    -8.286      1.516      2.263
REMARK INTER + INTRA:         -11.500
REMARK INTER:                 -10.901
REMARK INTRA:                  -0.599
REMARK UNBOUND:                -0.792
REMARK  Name = 
REMARK  5 active torsions:
REMARK  status: ('A' for Active; 'I' for Inactive)
REMARK    1  A    between atoms: C_2  and  C_18
REMARK    2  A    between atoms: N_3  and  C_4
REMARK    3  A    between atoms: C_4  and  C_5
REMARK    4  A    between atoms: N_8  and  C_9
REMARK    5  A    between atoms: C_9  and  C_10
REMARK                            x       y       z     vdW  Elec       q    Type
REMARK                         _______ _______ _______ _____ _____    ______ ____
ROOT
ATOM      1  O   UNL     1      47.378   4.310  13.653  0.00  0.00    +0.000 OA
ATOM      2  C   UNL     1      47.243   5.522  13.783  0.00  0.00    +0.000 C 
ATOM      3  N   UNL     1      46.038   6.159  13.640  0.00  0.00    +0.000 N 
ATOM      4  H   UNL     1      46.040   7.165  13.511  0.00  0.00    +0.000 HD
ENDROOT
BRANCH   2   5
ATOM      5  C   UNL     1      48.358   6.390  14.176  0.00  0.00    +0.000 A 
ATOM      6  C   UNL     1      48.974   7.219  13.250  0.00  0.00    +0.000 A 
ATOM      7  S   UNL     1      50.273   8.117  13.903  0.00  0.00    +0.000 S 
ATOM      8  C   UNL     1      50.031   7.454  15.453  0.00  0.00    +0.000 A 
ATOM      9  N   UNL     1      50.809   7.813  16.505  0.00  0.00    +0.000 NA
ATOM     10  C   UNL     1      50.496   7.240  17.622  0.00  0.00    +0.000 A 
ATOM     11  N   UNL     1      49.476   6.342  17.778  0.00  0.00    +0.000 N 
ATOM     12  C   UNL     1      48.691   5.919  16.739  0.00  0.00    +0.000 A 
ATOM     13  O   UNL     1      47.841   5.046  16.903  0.00  0.00    +0.000 OA
ATOM     14  C   UNL     1      48.986   6.546  15.464  0.00  0.00    +0.000 A 
ATOM     15  H   UNL     1      49.289   5.911  18.671  0.00  0.00    +0.000 HD
ENDBRANCH   2   5
BRANCH   3  16
ATOM     16  C   UNL     1      44.816   5.493  13.256  0.00  0.00    +0.000 C 
BRANCH  16  17
ATOM     17  C   UNL     1      44.305   6.048  11.916  0.00  0.00    +0.000 C 
ATOM     18  C   UNL     1      43.026   5.347  11.439  0.00  0.00    +0.000 C 
ATOM     19  C   UNL     1      43.290   3.927  10.940  0.00  0.00    +0.000 C 
ATOM     20  N   UNL     1      44.283   3.913   9.853  0.00  0.00    +0.000 NA
ATOM     21  C   UNL     1      45.554   4.513  10.299  0.00  0.00    +0.000 C 
ATOM     22  C   UNL     1      45.373   5.944  10.822  0.00  0.00    +0.000 C 
BRANCH  20  23
ATOM     23  C   UNL     1      44.511   2.531   9.368  0.00  0.00    +0.000 C 
BRANCH  23  24
ATOM     24  C   UNL     1      45.533   2.429   8.248  0.00  0.00    +0.000 A 
ATOM     25  C   UNL     1      46.378   1.314   8.137  0.00  0.00    +0.000 A 
ATOM     26  C   UNL     1      47.385   1.278   7.167  0.00  0.00    +0.000 A 
ATOM     27  C   UNL     1      47.531   2.335   6.269  0.00  0.00    +0.000 A 
ATOM     28  C   UNL     1      46.661   3.420   6.330  0.00  0.00    +0.000 A 
ATOM     29  C   UNL     1      45.672   3.470   7.315  0.00  0.00    +0.000 A 
ENDBRANCH  23  24
ENDBRANCH  20  23
ENDBRANCH  16  17
ENDBRANCH   3  16
TORSDOF 5
ENDMDL
MODEL 3
REMARK VINA RESULT:    -8.273      2.126      3.529
REMARK INTER + INTRA:         -11.483
REMARK INTER:                 -10.828
REMARK INTRA:                  -0.654
REMARK UNBOUND:                -0.792
REMARK  Name = 
REMARK  5 active torsions:
REMARK  status: ('A' for Active; 'I' for Inactive)
REMARK    1  A    between atoms: C_2  and  C_18
REMARK    2  A    between atoms: N_3  and  C_4
REMARK    3  A    between atoms: C_4  and  C_5
REMARK    4  A    between atoms: N_8  and  C_9
REMARK    5  A    between atoms: C_9  and  C_10
REMARK                            x       y       z     vdW  Elec       q    Type
REMARK                         _______ _______ _______ _____ _____    ______ ____
ROOT
ATOM      1  O   UNL     1      47.507   4.432  13.804  0.00  0.00    +0.000 OA
ATOM      2  C   UNL     1      47.343   5.645  13.887  0.00  0.00    +0.000 C 
ATOM      3  N   UNL     1      46.138   6.253  13.651  0.00  0.00    +0.000 N 
ATOM      4  H   UNL     1      46.131   7.255  13.490  0.00  0.00    +0.000 HD
ENDROOT
BRANCH   2   5
ATOM      5  C   UNL     1      48.417   6.546  14.316  0.00  0.00    +0.000 A 
ATOM      6  C   UNL     1      48.858   6.552  15.631  0.00  0.00    +0.000 A 
ATOM      7  S   UNL     1      50.087   7.701  15.929  0.00  0.00    +0.000 S 
ATOM      8  C   UNL     1      50.095   8.204  14.303  0.00  0.00    +0.000 A 
ATOM      9  N   UNL     1      50.940   9.171  13.866  0.00  0.00    +0.000 NA
ATOM     10  C   UNL     1      50.844   9.436  12.603  0.00  0.00    +0.000 A 
ATOM     11  N   UNL     1      49.978   8.819  11.742  0.00  0.00    +0.000 N 
ATOM     12  C   UNL     1      49.080   7.867  12.143  0.00  0.00    +0.000 A 
ATOM     13  O   UNL     1      48.260   7.398  11.356  0.00  0.00    +0.000 OA
ATOM     14  C   UNL     1      49.158   7.517  13.549  0.00  0.00    +0.000 A 
ATOM     15  H   UNL     1      49.934   9.079  10.768  0.00  0.00    +0.000 HD
ENDBRANCH   2   5
BRANCH   3  16
ATOM     16  C   UNL     1      44.953   5.552  13.217  0.00  0.00    +0.000 C 
BRANCH  16  17
ATOM     17  C   UNL     1      44.435   6.148  11.897  0.00  0.00    +0.000 C 
ATOM     18  C   UNL     1      43.120   5.503  11.438  0.00  0.00    +0.000 C 
ATOM     19  C   UNL     1      43.319   4.083  10.911  0.00  0.00    +0.000 C 
ATOM     20  N   UNL     1      44.287   4.049   9.803  0.00  0.00    +0.000 NA
ATOM     21  C   UNL     1      45.589   4.593  10.229  0.00  0.00    +0.000 C 
ATOM     22  C   UNL     1      45.474   6.021  10.779  0.00  0.00    +0.000 C 
BRANCH  20  23
ATOM     23  C   UNL     1      44.451   2.667   9.292  0.00  0.00    +0.000 C 
BRANCH  23  24
ATOM     24  C   UNL     1      45.541   2.521   8.242  0.00  0.00    +0.000 A 
ATOM     25  C   UNL     1      45.772   3.528   7.294  0.00  0.00    +0.000 A 
ATOM     26  C   UNL     1      46.705   3.340   6.269  0.00  0.00    +0.000 A 
ATOM     27  C   UNL     1      47.448   2.161   6.206  0.00  0.00    +0.000 A 
ATOM     28  C   UNL     1      47.271   1.179   7.176  0.00  0.00    +0.000 A 
ATOM     29  C   UNL     1      46.321   1.354   8.185  0.00  0.00    +0.000 A 
ENDBRANCH  23  24
ENDBRANCH  20  23
ENDBRANCH  16  17
ENDBRANCH   3  16
TORSDOF 5
ENDMDL
MODEL 4
REMARK VINA RESULT:    -8.108      1.466      2.210
REMARK INTER + INTRA:         -11.269
REMARK INTER:                 -11.201
REMARK INTRA:                  -0.068
REMARK UNBOUND:                -0.792
REMARK  Name = 
REMARK  5 active torsions:
REMARK  status: ('A' for Active; 'I' for Inactive)
REMARK    1  A    between atoms: C_2  and  C_18
REMARK    2  A    between atoms: N_3  and  C_4
REMARK    3  A    between atoms: C_4  and  C_5
REMARK    4  A    between atoms: N_8  and  C_9
REMARK    5  A    between atoms: C_9  and  C_10
REMARK                            x       y       z     vdW  Elec       q    Type
REMARK                         _______ _______ _______ _____ _____    ______ ____
ROOT
ATOM      1  O   UNL     1      47.534   3.292  14.786  0.00  0.00    +0.000 OA
ATOM      2  C   UNL     1      47.443   4.461  15.148  0.00  0.00    +0.000 C 
ATOM      3  N   UNL     1      46.900   5.445  14.364  0.00  0.00    +0.000 N 
ATOM      4  H   UNL     1      47.083   6.411  14.613  0.00  0.00    +0.000 HD
ENDROOT
BRANCH   2   5
ATOM      5  C   UNL     1      47.849   4.892  16.489  0.00  0.00    +0.000 A 
ATOM      6  C   UNL     1      47.262   4.345  17.620  0.00  0.00    +0.000 A 
ATOM      7  S   UNL     1      47.850   5.012  19.079  0.00  0.00    +0.000 S 
ATOM      8  C   UNL     1      48.933   6.029  18.248  0.00  0.00    +0.000 A 
ATOM      9  N   UNL     1      49.765   6.870  18.912  0.00  0.00    +0.000 NA
ATOM     10  C   UNL     1      50.543   7.568  18.149  0.00  0.00    +0.000 A 
ATOM     11  N   UNL     1      50.560   7.498  16.783  0.00  0.00    +0.000 N 
ATOM     12  C   UNL     1      49.713   6.695  16.067  0.00  0.00    +0.000 A 
ATOM     13  O   UNL     1      49.702   6.724  14.839  0.00  0.00    +0.000 OA
ATOM     14  C   UNL     1      48.832   5.874  16.875  0.00  0.00    +0.000 A 
ATOM     15  H   UNL     1      51.177   8.081  16.237  0.00  0.00    +0.000 HD
ENDBRANCH   2   5
BRANCH   3  16
ATOM     16  C   UNL     1      46.440   5.236  13.011  0.00  0.00    +0.000 C 
BRANCH  16  17
ATOM     17  C   UNL     1      45.049   4.579  13.018  0.00  0.00    +0.000 C 
ATOM     18  C   UNL     1      45.056   3.184  12.376  0.00  0.00    +0.000 C 
ATOM     19  C   UNL     1      45.205   3.243  10.856  0.00  0.00    +0.000 C 
ATOM     20  N   UNL     1      44.141   4.054  10.241  0.00  0.00    +0.000 NA
ATOM     21  C   UNL     1      44.152   5.426  10.780  0.00  0.00    +0.000 C 
ATOM     22  C   UNL     1      44.012   5.454  12.308  0.00  0.00    +0.000 C 
BRANCH  20  23
ATOM     23  C   UNL     1      44.290   4.082   8.766  0.00  0.00    +0.000 C 
BRANCH  23  24
ATOM     24  C   UNL     1      45.414   3.203   8.241  0.00  0.00    +0.000 A 
ATOM     25  C   UNL     1      46.446   3.739   7.456  0.00  0.00    +0.000 A 
ATOM     26  C   UNL     1      47.417   2.905   6.891  0.00  0.00    +0.000 A 
ATOM     27  C   UNL     1      47.393   1.534   7.140  0.00  0.00    +0.000 A 
ATOM     28  C   UNL     1      46.409   0.997   7.967  0.00  0.00    +0.000 A 
ATOM     29  C   UNL     1      45.423   1.824   8.510  0.00  0.00    +0.000 A 
ENDBRANCH  23  24
ENDBRANCH  20  23
ENDBRANCH  16  17
ENDBRANCH   3  16
TORSDOF 5
ENDMDL
MODEL 5
REMARK VINA RESULT:    -8.095      1.795      2.618
REMARK INTER + INTRA:         -11.253
REMARK INTER:                 -11.071
REMARK INTRA:                  -0.182
REMARK UNBOUND:                -0.792
REMARK  Name = 
REMARK  5 active torsions:
REMARK  status: ('A' for Active; 'I' for Inactive)
REMARK    1  A    between atoms: C_2  and  C_18
REMARK    2  A    between atoms: N_3  and  C_4
REMARK    3  A    between atoms: C_4  and  C_5
REMARK    4  A    between atoms: N_8  and  C_9
REMARK    5  A    between atoms: C_9  and  C_10
REMARK                            x       y       z     vdW  Elec       q    Type
REMARK                         _______ _______ _______ _____ _____    ______ ____
ROOT
ATOM      1  O   UNL     1      46.416   3.553  16.803  0.00  0.00    +0.000 OA
ATOM      2  C   UNL     1      47.275   4.257  16.281  0.00  0.00    +0.000 C 
ATOM      3  N   UNL     1      47.142   4.792  15.027  0.00  0.00    +0.000 N 
ATOM      4  H   UNL     1      47.974   5.143  14.565  0.00  0.00    +0.000 HD
ENDROOT
BRANCH   2   5
ATOM      5  C   UNL     1      48.498   4.645  16.992  0.00  0.00    +0.000 A 
ATOM      6  C   UNL     1      48.628   5.910  17.544  0.00  0.00    +0.000 A 
ATOM      7  S   UNL     1      50.142   6.170  18.293  0.00  0.00    +0.000 S 
ATOM      8  C   UNL     1      50.659   4.588  17.933  0.00  0.00    +0.000 A 
ATOM      9  N   UNL     1      51.883   4.141  18.312  0.00  0.00    +0.000 NA
ATOM     10  C   UNL     1      52.129   2.913  17.985  0.00  0.00    +0.000 A 
ATOM     11  N   UNL     1      51.260   2.097  17.314  0.00  0.00    +0.000 N 
ATOM     12  C   UNL     1      50.032   2.515  16.877  0.00  0.00    +0.000 A 
ATOM     13  O   UNL     1      49.316   1.777  16.203  0.00  0.00    +0.000 OA
ATOM     14  C   UNL     1      49.695   3.880  17.235  0.00  0.00    +0.000 A 
ATOM     15  H   UNL     1      51.513   1.151  17.069  0.00  0.00    +0.000 HD
ENDBRANCH   2   5
BRANCH   3  16
ATOM     16  C   UNL     1      46.017   4.536  14.157  0.00  0.00    +0.000 C 
BRANCH  16  17
ATOM     17  C   UNL     1      45.700   5.783  13.316  0.00  0.00    +0.000 C 
ATOM     18  C   UNL     1      44.197   5.947  13.051  0.00  0.00    +0.000 C 
ATOM     19  C   UNL     1      43.668   4.927  12.043  0.00  0.00    +0.000 C 
ATOM     20  N   UNL     1      44.395   5.005  10.765  0.00  0.00    +0.000 NA
ATOM     21  C   UNL     1      45.837   4.779  10.970  0.00  0.00    +0.000 C 
ATOM     22  C   UNL     1      46.446   5.763  11.978  0.00  0.00    +0.000 C 
BRANCH  20  23
ATOM     23  C   UNL     1      43.854   4.025   9.793  0.00  0.00    +0.000 C 
BRANCH  23  24
ATOM     24  C   UNL     1      44.909   3.401   8.893  0.00  0.00    +0.000 A 
ATOM     25  C   UNL     1      45.169   2.023   8.930  0.00  0.00    +0.000 A 
ATOM     26  C   UNL     1      46.212   1.475   8.176  0.00  0.00    +0.000 A 
ATOM     27  C   UNL     1      46.977   2.291   7.342  0.00  0.00    +0.000 A 
ATOM     28  C   UNL     1      46.689   3.650   7.250  0.00  0.00    +0.000 A 
ATOM     29  C   UNL     1      45.666   4.203   8.024  0.00  0.00    +0.000 A 
ENDBRANCH  23  24
ENDBRANCH  20  23
ENDBRANCH  16  17
ENDBRANCH   3  16
TORSDOF 5
ENDMDL
MODEL 6
REMARK VINA RESULT:    -6.856      3.602      8.944
REMARK INTER + INTRA:          -9.652
REMARK INTER:                  -8.947
REMARK INTRA:                  -0.706
REMARK UNBOUND:                -0.792
REMARK  Name = 
REMARK  5 active torsions:
REMARK  status: ('A' for Active; 'I' for Inactive)
REMARK    1  A    between atoms: C_2  and  C_18
REMARK    2  A    between atoms: N_3  and  C_4
REMARK    3  A    between atoms: C_4  and  C_5
REMARK    4  A    between atoms: N_8  and  C_9
REMARK    5  A    between atoms: C_9  and  C_10
REMARK                            x       y       z     vdW  Elec       q    Type
REMARK                         _______ _______ _______ _____ _____    ______ ____
ROOT
ATOM      1  O   UNL     1      47.248   3.259  13.742  0.00  0.00    +0.000 OA
ATOM      2  C   UNL     1      46.718   4.252  14.229  0.00  0.00    +0.000 C 
ATOM      3  N   UNL     1      46.704   4.506  15.576  0.00  0.00    +0.000 N 
ATOM      4  H   UNL     1      46.046   5.193  15.927  0.00  0.00    +0.000 HD
ENDROOT
BRANCH   2   5
ATOM      5  C   UNL     1      46.109   5.295  13.398  0.00  0.00    +0.000 A 
ATOM      6  C   UNL     1      46.778   6.483  13.143  0.00  0.00    +0.000 A 
ATOM      7  S   UNL     1      45.879   7.576  12.187  0.00  0.00    +0.000 S 
ATOM      8  C   UNL     1      44.580   6.483  12.051  0.00  0.00    +0.000 A 
ATOM      9  N   UNL     1      43.467   6.791  11.339  0.00  0.00    +0.000 NA
ATOM     10  C   UNL     1      42.573   5.857  11.310  0.00  0.00    +0.000 A 
ATOM     11  N   UNL     1      42.695   4.644  11.932  0.00  0.00    +0.000 N 
ATOM     12  C   UNL     1      43.779   4.303  12.695  0.00  0.00    +0.000 A 
ATOM     13  O   UNL     1      43.813   3.238  13.307  0.00  0.00    +0.000 OA
ATOM     14  C   UNL     1      44.824   5.309  12.744  0.00  0.00    +0.000 A 
ATOM     15  H   UNL     1      41.956   3.958  11.892  0.00  0.00    +0.000 HD
ENDBRANCH   2   5
BRANCH   3  16
ATOM     16  C   UNL     1      47.247   3.610  16.570  0.00  0.00    +0.000 C 
BRANCH  16  17
ATOM     17  C   UNL     1      47.612   4.389  17.845  0.00  0.00    +0.000 C 
ATOM     18  C   UNL     1      48.302   5.725  17.540  0.00  0.00    +0.000 C 
ATOM     19  C   UNL     1      49.735   5.541  17.041  0.00  0.00    +0.000 C 
ATOM     20  N   UNL     1      50.549   4.786  18.007  0.00  0.00    +0.000 NA
ATOM     21  C   UNL     1      49.956   3.463  18.270  0.00  0.00    +0.000 C 
ATOM     22  C   UNL     1      48.508   3.560  18.771  0.00  0.00    +0.000 C 
BRANCH  20  23
ATOM     23  C   UNL     1      51.941   4.636  17.516  0.00  0.00    +0.000 C 
BRANCH  23  24
ATOM     24  C   UNL     1      52.835   3.818  18.433  0.00  0.00    +0.000 A 
ATOM     25  C   UNL     1      53.032   4.188  19.772  0.00  0.00    +0.000 A 
ATOM     26  C   UNL     1      53.938   3.490  20.578  0.00  0.00    +0.000 A 
ATOM     27  C   UNL     1      54.624   2.388  20.068  0.00  0.00    +0.000 A 
ATOM     28  C   UNL     1      54.392   1.973  18.759  0.00  0.00    +0.000 A 
ATOM     29  C   UNL     1      53.508   2.685  17.945  0.00  0.00    +0.000 A 
ENDBRANCH  23  24
ENDBRANCH  20  23
ENDBRANCH  16  17
ENDBRANCH   3  16
TORSDOF 5
ENDMDL
MODEL 7
REMARK VINA RESULT:    -6.806      3.160      9.132
REMARK INTER + INTRA:          -9.587
REMARK INTER:                  -8.880
REMARK INTRA:                  -0.706
REMARK UNBOUND:                -0.792
REMARK  Name = 
REMARK  5 active torsions:
REMARK  status: ('A' for Active; 'I' for Inactive)
REMARK    1  A    between atoms: C_2  and  C_18
REMARK    2  A    between atoms: N_3  and  C_4
REMARK    3  A    between atoms: C_4  and  C_5
REMARK    4  A    between atoms: N_8  and  C_9
REMARK    5  A    between atoms: C_9  and  C_10
REMARK                            x       y       z     vdW  Elec       q    Type
REMARK                         _______ _______ _______ _____ _____    ______ ____
ROOT
ATOM      1  O   UNL     1      48.840   6.458  13.160  0.00  0.00    +0.000 OA
ATOM      2  C   UNL     1      47.773   6.134  13.671  0.00  0.00    +0.000 C 
ATOM      3  N   UNL     1      47.631   5.891  15.013  0.00  0.00    +0.000 N 
ATOM      4  H   UNL     1      46.806   5.392  15.324  0.00  0.00    +0.000 HD
ENDROOT
BRANCH   2   5
ATOM      5  C   UNL     1      46.534   6.045  12.893  0.00  0.00    +0.000 A 
ATOM      6  C   UNL     1      45.967   7.176  12.326  0.00  0.00    +0.000 A 
ATOM      7  S   UNL     1      44.508   6.860  11.495  0.00  0.00    +0.000 S 
ATOM      8  C   UNL     1      44.605   5.194  11.834  0.00  0.00    +0.000 A 
ATOM      9  N   UNL     1      43.661   4.326  11.392  0.00  0.00    +0.000 NA
ATOM     10  C   UNL     1      43.877   3.091  11.712  0.00  0.00    +0.000 A 
ATOM     11  N   UNL     1      44.953   2.651  12.434  0.00  0.00    +0.000 N 
ATOM     12  C   UNL     1      45.909   3.493  12.936  0.00  0.00    +0.000 A 
ATOM     13  O   UNL     1      46.813   3.068  13.652  0.00  0.00    +0.000 OA
ATOM     14  C   UNL     1      45.726   4.890  12.589  0.00  0.00    +0.000 A 
ATOM     15  H   UNL     1      45.061   1.676  12.671  0.00  0.00    +0.000 HD
ENDBRANCH   2   5
BRANCH   3  16
ATOM     16  C   UNL     1      48.724   5.923  15.957  0.00  0.00    +0.000 C 
BRANCH  16  17
ATOM     17  C   UNL     1      48.675   4.686  16.868  0.00  0.00    +0.000 C 
ATOM     18  C   UNL     1      47.279   4.448  17.462  0.00  0.00    +0.000 C 
ATOM     19  C   UNL     1      46.925   5.466  18.545  0.00  0.00    +0.000 C 
ATOM     20  N   UNL     1      47.918   5.467  19.631  0.00  0.00    +0.000 NA
ATOM     21  C   UNL     1      49.264   5.766  19.109  0.00  0.00    +0.000 C 
ATOM     22  C   UNL     1      49.694   4.788  18.007  0.00  0.00    +0.000 C 
BRANCH  20  23
ATOM     23  C   UNL     1      47.546   6.445  20.681  0.00  0.00    +0.000 C 
BRANCH  23  24
ATOM     24  C   UNL     1      47.934   7.879  20.357  0.00  0.00    +0.000 A 
ATOM     25  C   UNL     1      48.984   8.516  21.035  0.00  0.00    +0.000 A 
ATOM     26  C   UNL     1      49.264   9.867  20.804  0.00  0.00    +0.000 A 
ATOM     27  C   UNL     1      48.529  10.583  19.860  0.00  0.00    +0.000 A 
ATOM     28  C   UNL     1      47.524   9.946  19.136  0.00  0.00    +0.000 A 
ATOM     29  C   UNL     1      47.224   8.605  19.386  0.00  0.00    +0.000 A 
ENDBRANCH  23  24
ENDBRANCH  20  23
ENDBRANCH  16  17
ENDBRANCH   3  16
TORSDOF 5
ENDMDL
MODEL 8
REMARK VINA RESULT:    -6.688      2.080      3.345
REMARK INTER + INTRA:          -9.435
REMARK INTER:                  -8.444
REMARK INTRA:                  -0.991
REMARK UNBOUND:                -0.792
REMARK  Name = 
REMARK  5 active torsions:
REMARK  status: ('A' for Active; 'I' for Inactive)
REMARK    1  A    between atoms: C_2  and  C_18
REMARK    2  A    between atoms: N_3  and  C_4
REMARK    3  A    between atoms: C_4  and  C_5
REMARK    4  A    between atoms: N_8  and  C_9
REMARK    5  A    between atoms: C_9  and  C_10
REMARK                            x       y       z     vdW  Elec       q    Type
REMARK                         _______ _______ _______ _____ _____    ______ ____
ROOT
ATOM      1  O   UNL     1      48.519   8.649  17.139  0.00  0.00    +0.000 OA
ATOM      2  C   UNL     1      48.804   7.675  16.451  0.00  0.00    +0.000 C 
ATOM      3  N   UNL     1      48.392   7.532  15.152  0.00  0.00    +0.000 N 
ATOM      4  H   UNL     1      48.444   6.610  14.731  0.00  0.00    +0.000 HD
ENDROOT
BRANCH   2   5
ATOM      5  C   UNL     1      49.676   6.604  16.944  0.00  0.00    +0.000 A 
ATOM      6  C   UNL     1      50.931   6.890  17.460  0.00  0.00    +0.000 A 
ATOM      7  S   UNL     1      51.799   5.500  17.942  0.00  0.00    +0.000 S 
ATOM      8  C   UNL     1      50.512   4.472  17.509  0.00  0.00    +0.000 A 
ATOM      9  N   UNL     1      50.592   3.129  17.678  0.00  0.00    +0.000 NA
ATOM     10  C   UNL     1      49.531   2.480  17.320  0.00  0.00    +0.000 A 
ATOM     11  N   UNL     1      48.401   3.057  16.809  0.00  0.00    +0.000 N 
ATOM     12  C   UNL     1      48.288   4.402  16.583  0.00  0.00    +0.000 A 
ATOM     13  O   UNL     1      47.289   4.872  16.043  0.00  0.00    +0.000 OA
ATOM     14  C   UNL     1      49.444   5.182  16.986  0.00  0.00    +0.000 A 
ATOM     15  H   UNL     1      47.608   2.499  16.529  0.00  0.00    +0.000 HD
ENDBRANCH   2   5
BRANCH   3  16
ATOM     16  C   UNL     1      47.527   8.469  14.473  0.00  0.00    +0.000 C 
BRANCH  16  17
ATOM     17  C   UNL     1      47.789   8.434  12.958  0.00  0.00    +0.000 C 
ATOM     18  C   UNL     1      46.566   8.871  12.140  0.00  0.00    +0.000 C 
ATOM     19  C   UNL     1      45.457   7.819  12.141  0.00  0.00    +0.000 C 
ATOM     20  N   UNL     1      45.942   6.525  11.634  0.00  0.00    +0.000 NA
ATOM     21  C   UNL     1      47.072   6.036  12.443  0.00  0.00    +0.000 C 
ATOM     22  C   UNL     1      48.231   7.042  12.497  0.00  0.00    +0.000 C 
BRANCH  20  23
ATOM     23  C   UNL     1      44.848   5.523  11.622  0.00  0.00    +0.000 C 
BRANCH  23  24
ATOM     24  C   UNL     1      44.912   4.551  10.455  0.00  0.00    +0.000 A 
ATOM     25  C   UNL     1      44.390   3.254  10.564  0.00  0.00    +0.000 A 
ATOM     26  C   UNL     1      44.547   2.334   9.522  0.00  0.00    +0.000 A 
ATOM     27  C   UNL     1      45.189   2.713   8.344  0.00  0.00    +0.000 A 
ATOM     28  C   UNL     1      45.659   4.016   8.199  0.00  0.00    +0.000 A 
ATOM     29  C   UNL     1      45.527   4.928   9.249  0.00  0.00    +0.000 A 
ENDBRANCH  23  24
ENDBRANCH  20  23
ENDBRANCH  16  17
ENDBRANCH   3  16
TORSDOF 5
ENDMDL
MODEL 9
REMARK VINA RESULT:    -6.604      3.163      8.430
REMARK INTER + INTRA:          -9.327
REMARK INTER:                  -9.251
REMARK INTRA:                  -0.076
REMARK UNBOUND:                -0.792
REMARK  Name = 
REMARK  5 active torsions:
REMARK  status: ('A' for Active; 'I' for Inactive)
REMARK    1  A    between atoms: C_2  and  C_18
REMARK    2  A    between atoms: N_3  and  C_4
REMARK    3  A    between atoms: C_4  and  C_5
REMARK    4  A    between atoms: N_8  and  C_9
REMARK    5  A    between atoms: C_9  and  C_10
REMARK                            x       y       z     vdW  Elec       q    Type
REMARK                         _______ _______ _______ _____ _____    ______ ____
ROOT
ATOM      1  O   UNL     1      48.647   5.891  13.240  0.00  0.00    +0.000 OA
ATOM      2  C   UNL     1      47.503   5.724  13.650  0.00  0.00    +0.000 C 
ATOM      3  N   UNL     1      47.218   5.369  14.942  0.00  0.00    +0.000 N 
ATOM      4  H   UNL     1      46.293   5.006  15.146  0.00  0.00    +0.000 HD
ENDROOT
BRANCH   2   5
ATOM      5  C   UNL     1      46.332   5.960  12.801  0.00  0.00    +0.000 A 
ATOM      6  C   UNL     1      45.998   7.241  12.388  0.00  0.00    +0.000 A 
ATOM      7  S   UNL     1      44.579   7.300  11.439  0.00  0.00    +0.000 S 
ATOM      8  C   UNL     1      44.383   5.611  11.519  0.00  0.00    +0.000 A 
ATOM      9  N   UNL     1      43.351   4.988  10.896  0.00  0.00    +0.000 NA
ATOM     10  C   UNL     1      43.342   3.701  11.029  0.00  0.00    +0.000 A 
ATOM     11  N   UNL     1      44.273   2.986  11.731  0.00  0.00    +0.000 N 
ATOM     12  C   UNL     1      45.308   3.572  12.410  0.00  0.00    +0.000 A 
ATOM     13  O   UNL     1      46.073   2.901  13.099  0.00  0.00    +0.000 OA
ATOM     14  C   UNL     1      45.378   5.015  12.276  0.00  0.00    +0.000 A 
ATOM     15  H   UNL     1      44.206   1.982  11.818  0.00  0.00    +0.000 HD
ENDBRANCH   2   5
BRANCH   3  16
ATOM     16  C   UNL     1      48.223   5.088  15.941  0.00  0.00    +0.000 C 
BRANCH  16  17
ATOM     17  C   UNL     1      48.691   6.393  16.607  0.00  0.00    +0.000 C 
ATOM     18  C   UNL     1      50.149   6.734  16.269  0.00  0.00    +0.000 C 
ATOM     19  C   UNL     1      51.143   5.818  16.982  0.00  0.00    +0.000 C 
ATOM     20  N   UNL     1      50.962   5.859  18.442  0.00  0.00    +0.000 NA
ATOM     21  C   UNL     1      49.591   5.463  18.811  0.00  0.00    +0.000 C 
ATOM     22  C   UNL     1      48.528   6.335  18.129  0.00  0.00    +0.000 C 
BRANCH  20  23
ATOM     23  C   UNL     1      51.949   4.981  19.117  0.00  0.00    +0.000 C 
BRANCH  23  24
ATOM     24  C   UNL     1      52.108   3.616  18.466  0.00  0.00    +0.000 A 
ATOM     25  C   UNL     1      51.033   2.993  17.816  0.00  0.00    +0.000 A 
ATOM     26  C   UNL     1      51.160   1.694  17.313  0.00  0.00    +0.000 A 
ATOM     27  C   UNL     1      52.377   1.021  17.415  0.00  0.00    +0.000 A 
ATOM     28  C   UNL     1      53.470   1.650  18.003  0.00  0.00    +0.000 A 
ATOM     29  C   UNL     1      53.337   2.937  18.531  0.00  0.00    +0.000 A 
ENDBRANCH  23  24
ENDBRANCH  20  23
ENDBRANCH  16  17
ENDBRANCH   3  16
TORSDOF 5
ENDMDL
