MODEL 1
REMARK VINA RESULT:    -8.826      0.000      0.000
REMARK INTER + INTRA:         -11.563
REMARK INTER:                 -10.890
REMARK INTRA:                  -0.673
REMARK UNBOUND:                -0.673
REMARK  Name = 
REMARK  4 active torsions:
REMARK  status: ('A' for Active; 'I' for Inactive)
REMARK    1  A    between atoms: C_2  and  C_4
REMARK    2  A    between atoms: N_8  and  C_9
REMARK    3  A    between atoms: C_9  and  C_10
REMARK    4  A    between atoms: C_14  and  C_15
REMARK                            x       y       z     vdW  Elec       q    Type
REMARK                         _______ _______ _______ _____ _____    ______ ____
ROOT
ATOM      1  C   UNL     1      43.637   3.782  11.185  0.00  0.00    +0.000 C 
ENDROOT
BRANCH   1   6
ATOM      2  C   UNL     1      46.653   2.508   7.184  0.00  0.00    +0.000 A 
ATOM      3  C   UNL     1      46.082   3.729   7.525  0.00  0.00    +0.000 A 
ATOM      4  C   UNL     1      45.278   3.807   8.664  0.00  0.00    +0.000 A 
ATOM      5  C   UNL     1      45.054   2.672   9.435  0.00  0.00    +0.000 A 
ATOM      6  N   UNL     1      44.339   2.669  10.596  0.00  0.00    +0.000 N 
ATOM      7  N   UNL     1      45.580   1.479   9.091  0.00  0.00    +0.000 NA
ATOM      8  C   UNL     1      46.358   1.415   7.979  0.00  0.00    +0.000 A 
ATOM      9  H   UNL     1      44.200   1.741  10.975  0.00  0.00    +0.000 HD
BRANCH   2  11
ATOM     10  N   UNL     1      47.475   3.290   5.038  0.00  0.00    +0.000 N 
ATOM     11  C   UNL     1      47.544   2.341   6.017  0.00  0.00    +0.000 C 
ATOM     12  O   UNL     1      48.337   1.414   5.946  0.00  0.00    +0.000 OA
ATOM     13  H   UNL     1      48.161   3.228   4.299  0.00  0.00    +0.000 HD
ATOM     14  H   UNL     1      47.020   4.186   5.175  0.00  0.00    +0.000 HD
ENDBRANCH   2  11
ENDBRANCH   1   6
BRANCH   1  15
ATOM     15  C   UNL     1      44.582   4.838  11.702  0.00  0.00    +0.000 A 
ATOM     16  C   UNL     1      44.523   6.149  11.217  0.00  0.00    +0.000 A 
ATOM     17  C   UNL     1      45.363   7.128  11.739  0.00  0.00    +0.000 A 
ATOM     18  C   UNL     1      46.257   6.812  12.765  0.00  0.00    +0.000 A 
ATOM     19  C   UNL     1      46.326   5.515  13.304  0.00  0.00    +0.000 A 
ATOM     20  C   UNL     1      45.490   4.536  12.734  0.00  0.00    +0.000 A 
BRANCH  19  21
ATOM     21  C   UNL     1      47.169   5.206  14.485  0.00  0.00    +0.000 A 
ATOM     22  C   UNL     1      48.091   6.152  14.978  0.00  0.00    +0.000 A 
ATOM     23  C   UNL     1      48.828   5.925  16.146  0.00  0.00    +0.000 A 
ATOM     24  C   UNL     1      48.653   4.743  16.853  0.00  0.00    +0.000 A 
ATOM     25  C   UNL     1      47.763   3.793  16.374  0.00  0.00    +0.000 A 
ATOM     26  F   UNL     1      47.584   2.655  17.060  0.00  0.00    +0.000 F 
ATOM     27  C   UNL     1      47.036   4.005  15.203  0.00  0.00    +0.000 A 
ENDBRANCH  19  21
ENDBRANCH   1  15
TORSDOF 4
ENDMDL
MODEL 2
REMARK VINA RESULT:    -8.772      2.792      4.258
REMARK INTER + INTRA:         -11.497
REMARK INTER:                 -10.706
REMARK INTRA:                  -0.791
REMARK UNBOUND:                -0.673
REMARK  Name = 
REMARK  4 active torsions:
REMARK  status: ('A' for Active; 'I' for Inactive)
REMARK    1  A    between atoms: C_2  and  C_4
REMARK    2  A    between atoms: N_8  and  C_9
REMARK    3  A    between atoms: C_9  and  C_10
REMARK    4  A    between atoms: C_14  and  C_15
REMARK                            x       y       z     vdW  Elec       q    Type
REMARK                         _______ _______ _______ _____ _____    ______ ____
ROOT
ATOM      1  C   UNL     1      43.441   3.701  11.251  0.00  0.00    +0.000 C 
ENDROOT
BRANCH   1   6
ATOM      2  C   UNL     1      46.566   2.490   7.314  0.00  0.00    +0.000 A 
ATOM      3  C   UNL     1      46.066   3.723   7.718  0.00  0.00    +0.000 A 
ATOM      4  C   UNL     1      45.211   3.780   8.820  0.00  0.00    +0.000 A 
ATOM      5  C   UNL     1      44.867   2.614   9.494  0.00  0.00    +0.000 A 
ATOM      6  N   UNL     1      44.093   2.583  10.616  0.00  0.00    +0.000 N 
ATOM      7  N   UNL     1      45.324   1.412   9.087  0.00  0.00    +0.000 NA
ATOM      8  C   UNL     1      46.154   1.369   8.012  0.00  0.00    +0.000 A 
ATOM      9  H   UNL     1      43.869   1.644  10.919  0.00  0.00    +0.000 HD
BRANCH   2  11
ATOM     10  N   UNL     1      47.460   3.292   5.205  0.00  0.00    +0.000 N 
ATOM     11  C   UNL     1      47.504   2.340   6.182  0.00  0.00    +0.000 C 
ATOM     12  O   UNL     1      48.311   1.423   6.138  0.00  0.00    +0.000 OA
ATOM     13  H   UNL     1      48.175   3.242   4.493  0.00  0.00    +0.000 HD
ATOM     14  H   UNL     1      46.989   4.182   5.329  0.00  0.00    +0.000 HD
ENDBRANCH   2  11
ENDBRANCH   1   6
BRANCH   1  15
ATOM     15  C   UNL     1      44.417   4.575  12.000  0.00  0.00    +0.000 A 
ATOM     16  C   UNL     1      45.395   4.009  12.825  0.00  0.00    +0.000 A 
ATOM     17  C   UNL     1      46.325   4.821  13.469  0.00  0.00    +0.000 A 
ATOM     18  C   UNL     1      46.298   6.206  13.280  0.00  0.00    +0.000 A 
ATOM     19  C   UNL     1      45.353   6.811  12.433  0.00  0.00    +0.000 A 
ATOM     20  C   UNL     1      44.403   5.971  11.822  0.00  0.00    +0.000 A 
BRANCH  19  21
ATOM     21  C   UNL     1      45.406   8.259  12.117  0.00  0.00    +0.000 A 
ATOM     22  C   UNL     1      46.523   9.037  12.489  0.00  0.00    +0.000 A 
ATOM     23  C   UNL     1      46.643  10.380  12.118  0.00  0.00    +0.000 A 
ATOM     24  C   UNL     1      45.647  10.979  11.358  0.00  0.00    +0.000 A 
ATOM     25  C   UNL     1      44.532  10.235  10.998  0.00  0.00    +0.000 A 
ATOM     26  F   UNL     1      43.574  10.806  10.255  0.00  0.00    +0.000 F 
ATOM     27  C   UNL     1      44.398   8.900  11.376  0.00  0.00    +0.000 A 
ENDBRANCH  19  21
ENDBRANCH   1  15
TORSDOF 4
ENDMDL
MODEL 3
REMARK VINA RESULT:    -8.301      4.186      7.269
REMARK INTER + INTRA:         -10.916
REMARK INTER:                 -10.068
REMARK INTRA:                  -0.848
REMARK UNBOUND:                -0.673
REMARK  Name = 
REMARK  4 active torsions:
REMARK  status: ('A' for Active; 'I' for Inactive)
REMARK    1  A    between atoms: C_2  and  C_4
REMARK    2  A    between atoms: N_8  and  C_9
REMARK    3  A    between atoms: C_9  and  C_10
REMARK    4  A    between atoms: C_14  and  C_15
REMARK                            x       y       z     vdW  Elec       q    Type
REMARK                         _______ _______ _______ _____ _____    ______ ____
ROOT
ATOM      1  C   UNL     1      44.666   6.365  12.348  0.00  0.00    +0.000 C 
ENDROOT
BRANCH   1   6
ATOM      2  C   UNL     1      49.658   7.686  12.602  0.00  0.00    +0.000 A 
ATOM      3  C   UNL     1      48.768   7.739  11.535  0.00  0.00    +0.000 A 
ATOM      4  C   UNL     1      47.457   7.298  11.723  0.00  0.00    +0.000 A 
ATOM      5  C   UNL     1      47.059   6.810  12.962  0.00  0.00    +0.000 A 
ATOM      6  N   UNL     1      45.785   6.420  13.254  0.00  0.00    +0.000 N 
ATOM      7  N   UNL     1      47.927   6.727  13.991  0.00  0.00    +0.000 NA
ATOM      8  C   UNL     1      49.201   7.158  13.796  0.00  0.00    +0.000 A 
ATOM      9  H   UNL     1      45.697   6.007  14.174  0.00  0.00    +0.000 HD
BRANCH   2  11
ATOM     10  N   UNL     1      51.826   8.070  13.625  0.00  0.00    +0.000 N 
ATOM     11  C   UNL     1      51.053   8.164  12.503  0.00  0.00    +0.000 C 
ATOM     12  O   UNL     1      51.509   8.592  11.453  0.00  0.00    +0.000 OA
ATOM     13  H   UNL     1      52.805   8.297  13.520  0.00  0.00    +0.000 HD
ATOM     14  H   UNL     1      51.564   7.504  14.424  0.00  0.00    +0.000 HD
ENDBRANCH   2  11
ENDBRANCH   1   6
BRANCH   1  15
ATOM     15  C   UNL     1      44.448   4.977  11.800  0.00  0.00    +0.000 A 
ATOM     16  C   UNL     1      43.488   4.129  12.363  0.00  0.00    +0.000 A 
ATOM     17  C   UNL     1      43.257   2.870  11.816  0.00  0.00    +0.000 A 
ATOM     18  C   UNL     1      43.972   2.452  10.690  0.00  0.00    +0.000 A 
ATOM     19  C   UNL     1      44.922   3.285  10.074  0.00  0.00    +0.000 A 
ATOM     20  C   UNL     1      45.160   4.539  10.668  0.00  0.00    +0.000 A 
BRANCH  19  21
ATOM     21  C   UNL     1      45.580   2.906   8.800  0.00  0.00    +0.000 A 
ATOM     22  C   UNL     1      45.960   3.893   7.866  0.00  0.00    +0.000 A 
ATOM     23  C   UNL     1      46.669   3.574   6.703  0.00  0.00    +0.000 A 
ATOM     24  C   UNL     1      47.021   2.254   6.449  0.00  0.00    +0.000 A 
ATOM     25  C   UNL     1      46.640   1.268   7.347  0.00  0.00    +0.000 A 
ATOM     26  F   UNL     1      46.987  -0.005   7.110  0.00  0.00    +0.000 F 
ATOM     27  C   UNL     1      45.921   1.576   8.501  0.00  0.00    +0.000 A 
ENDBRANCH  19  21
ENDBRANCH   1  15
TORSDOF 4
ENDMDL
MODEL 4
REMARK VINA RESULT:    -8.275      2.799      3.921
REMARK INTER + INTRA:         -10.884
REMARK INTER:                 -10.066
REMARK INTRA:                  -0.818
REMARK UNBOUND:                -0.673
REMARK  Name = 
REMARK  4 active torsions:
REMARK  status: ('A' for Active; 'I' for Inactive)
REMARK    1  A    between atoms: C_2  and  C_4
REMARK    2  A    between atoms: N_8  and  C_9
REMARK    3  A    between atoms: C_9  and  C_10
REMARK    4  A    between atoms: C_14  and  C_15
REMARK                            x       y       z     vdW  Elec       q    Type
REMARK                         _______ _______ _______ _____ _____    ______ ____
ROOT
ATOM      1  C   UNL     1      43.936   4.923  11.231  0.00  0.00    +0.000 C 
ENDROOT
BRANCH   1   6
ATOM      2  C   UNL     1      46.572   2.742   7.355  0.00  0.00    +0.000 A 
ATOM      3  C   UNL     1      46.447   4.079   7.716  0.00  0.00    +0.000 A 
ATOM      4  C   UNL     1      45.648   4.414   8.810  0.00  0.00    +0.000 A 
ATOM      5  C   UNL     1      44.986   3.418   9.518  0.00  0.00    +0.000 A 
ATOM      6  N   UNL     1      44.239   3.646  10.636  0.00  0.00    +0.000 N 
ATOM      7  N   UNL     1      45.079   2.123   9.153  0.00  0.00    +0.000 NA
ATOM      8  C   UNL     1      45.859   1.809   8.086  0.00  0.00    +0.000 A 
ATOM      9  H   UNL     1      43.757   2.820  10.967  0.00  0.00    +0.000 HD
BRANCH   2  11
ATOM     10  N   UNL     1      47.317   2.976   5.057  0.00  0.00    +0.000 N 
ATOM     11  C   UNL     1      47.425   2.294   6.235  0.00  0.00    +0.000 C 
ATOM     12  O   UNL     1      48.220   1.375   6.364  0.00  0.00    +0.000 OA
ATOM     13  H   UNL     1      47.978   2.734   4.332  0.00  0.00    +0.000 HD
ATOM     14  H   UNL     1      46.862   3.880   4.987  0.00  0.00    +0.000 HD
ENDBRANCH   2  11
ENDBRANCH   1   6
BRANCH   1  15
ATOM     15  C   UNL     1      45.072   5.435  12.082  0.00  0.00    +0.000 A 
ATOM     16  C   UNL     1      45.563   4.676  13.150  0.00  0.00    +0.000 A 
ATOM     17  C   UNL     1      46.646   5.133  13.895  0.00  0.00    +0.000 A 
ATOM     18  C   UNL     1      47.262   6.345  13.569  0.00  0.00    +0.000 A 
ATOM     19  C   UNL     1      46.821   7.122  12.484  0.00  0.00    +0.000 A 
ATOM     20  C   UNL     1      45.702   6.654  11.769  0.00  0.00    +0.000 A 
BRANCH  19  21
ATOM     21  C   UNL     1      47.554   8.334  12.045  0.00  0.00    +0.000 A 
ATOM     22  C   UNL     1      46.938   9.603  12.088  0.00  0.00    +0.000 A 
ATOM     23  C   UNL     1      47.636  10.773  11.774  0.00  0.00    +0.000 A 
ATOM     24  C   UNL     1      48.976  10.702  11.413  0.00  0.00    +0.000 A 
ATOM     25  C   UNL     1      49.594   9.461  11.347  0.00  0.00    +0.000 A 
ATOM     26  F   UNL     1      50.889   9.390  11.008  0.00  0.00    +0.000 F 
ATOM     27  C   UNL     1      48.901   8.289  11.644  0.00  0.00    +0.000 A 
ENDBRANCH  19  21
ENDBRANCH   1  15
TORSDOF 4
ENDMDL
MODEL 5
REMARK VINA RESULT:    -8.212      4.526      8.475
REMARK INTER + INTRA:         -10.805
REMARK INTER:                 -10.265
REMARK INTRA:                  -0.540
REMARK UNBOUND:                -0.673
REMARK  Name = 
REMARK  4 active torsions:
REMARK  status: ('A' for Active; 'I' for Inactive)
REMARK    1  A    between atoms: C_2  and  C_4
REMARK    2  A    between atoms: N_8  and  C_9
REMARK    3  A    between atoms: C_9  and  C_10
REMARK    4  A    between atoms: C_14  and  C_15
REMARK                            x       y       z     vdW  Elec       q    Type
REMARK                         _______ _______ _______ _____ _____    ______ ____
ROOT
ATOM      1  C   UNL     1      46.215   5.395  13.496  0.00  0.00    +0.000 C 
ENDROOT
BRANCH   1   6
ATOM      2  C   UNL     1      48.545   4.381  17.999  0.00  0.00    +0.000 A 
ATOM      3  C   UNL     1      48.664   5.478  17.153  0.00  0.00    +0.000 A 
ATOM      4  C   UNL     1      47.929   5.502  15.966  0.00  0.00    +0.000 A 
ATOM      5  C   UNL     1      47.097   4.437  15.642  0.00  0.00    +0.000 A 
ATOM      6  N   UNL     1      46.294   4.404  14.541  0.00  0.00    +0.000 N 
ATOM      7  N   UNL     1      47.002   3.356  16.444  0.00  0.00    +0.000 NA
ATOM      8  C   UNL     1      47.724   3.343  17.595  0.00  0.00    +0.000 A 
ATOM      9  H   UNL     1      45.828   3.516  14.415  0.00  0.00    +0.000 HD
BRANCH   2  11
ATOM     10  N   UNL     1      48.559   3.794  20.354  0.00  0.00    +0.000 N 
ATOM     11  C   UNL     1      49.258   4.286  19.289  0.00  0.00    +0.000 C 
ATOM     12  O   UNL     1      50.434   4.601  19.395  0.00  0.00    +0.000 OA
ATOM     13  H   UNL     1      49.083   3.632  21.203  0.00  0.00    +0.000 HD
ATOM     14  H   UNL     1      47.679   3.301  20.250  0.00  0.00    +0.000 HD
ENDBRANCH   2  11
ENDBRANCH   1   6
BRANCH   1  15
ATOM     15  C   UNL     1      45.273   4.980  12.393  0.00  0.00    +0.000 A 
ATOM     16  C   UNL     1      43.934   5.384  12.408  0.00  0.00    +0.000 A 
ATOM     17  C   UNL     1      43.086   5.041  11.358  0.00  0.00    +0.000 A 
ATOM     18  C   UNL     1      43.573   4.306  10.274  0.00  0.00    +0.000 A 
ATOM     19  C   UNL     1      44.920   3.908  10.204  0.00  0.00    +0.000 A 
ATOM     20  C   UNL     1      45.747   4.238  11.295  0.00  0.00    +0.000 A 
BRANCH  19  21
ATOM     21  C   UNL     1      45.477   3.253   8.995  0.00  0.00    +0.000 A 
ATOM     22  C   UNL     1      45.902   4.021   7.891  0.00  0.00    +0.000 A 
ATOM     23  C   UNL     1      46.520   3.438   6.780  0.00  0.00    +0.000 A 
ATOM     24  C   UNL     1      46.734   2.066   6.750  0.00  0.00    +0.000 A 
ATOM     25  C   UNL     1      46.306   1.291   7.819  0.00  0.00    +0.000 A 
ATOM     26  F   UNL     1      46.520  -0.032   7.798  0.00  0.00    +0.000 F 
ATOM     27  C   UNL     1      45.676   1.863   8.923  0.00  0.00    +0.000 A 
ENDBRANCH  19  21
ENDBRANCH   1  15
TORSDOF 4
ENDMDL
MODEL 6
REMARK VINA RESULT:    -7.242      4.295      7.268
REMARK INTER + INTRA:          -9.609
REMARK INTER:                  -9.045
REMARK INTRA:                  -0.564
REMARK UNBOUND:                -0.673
REMARK  Name = 
REMARK  4 active torsions:
REMARK  status: ('A' for Active; 'I' for Inactive)
REMARK    1  A    between atoms: C_2  and  C_4
REMARK    2  A    between atoms: N_8  and  C_9
REMARK    3  A    between atoms: C_9  and  C_10
REMARK    4  A    between atoms: C_14  and  C_15
REMARK                            x       y       z     vdW  Elec       q    Type
REMARK                         _______ _______ _______ _____ _____    ______ ____
ROOT
ATOM      1  C   UNL     1      45.467   4.344  13.576  0.00  0.00    +0.000 C 
ENDROOT
BRANCH   1   6
ATOM      2  C   UNL     1      48.498   8.284  12.157  0.00  0.00    +0.000 A 
ATOM      3  C   UNL     1      47.118   8.138  12.077  0.00  0.00    +0.000 A 
ATOM      4  C   UNL     1      46.534   6.949  12.517  0.00  0.00    +0.000 A 
ATOM      5  C   UNL     1      47.333   5.929  13.022  0.00  0.00    +0.000 A 
ATOM      6  N   UNL     1      46.845   4.763  13.534  0.00  0.00    +0.000 N 
ATOM      7  N   UNL     1      48.674   6.053  13.074  0.00  0.00    +0.000 NA
ATOM      8  C   UNL     1      49.231   7.214  12.640  0.00  0.00    +0.000 A 
ATOM      9  H   UNL     1      47.570   4.099  13.771  0.00  0.00    +0.000 HD
BRANCH   2  11
ATOM     10  N   UNL     1      50.532   9.603  12.023  0.00  0.00    +0.000 N 
ATOM     11  C   UNL     1      49.197   9.520  11.748  0.00  0.00    +0.000 C 
ATOM     12  O   UNL     1      48.615  10.416  11.154  0.00  0.00    +0.000 OA
ATOM     13  H   UNL     1      51.022  10.402  11.644  0.00  0.00    +0.000 HD
ATOM     14  H   UNL     1      51.088   8.797  12.282  0.00  0.00    +0.000 HD
ENDBRANCH   2  11
ENDBRANCH   1   6
BRANCH   1  15
ATOM     15  C   UNL     1      44.836   4.332  12.205  0.00  0.00    +0.000 A 
ATOM     16  C   UNL     1      43.686   5.083  11.942  0.00  0.00    +0.000 A 
ATOM     17  C   UNL     1      43.143   5.108  10.661  0.00  0.00    +0.000 A 
ATOM     18  C   UNL     1      43.755   4.397   9.625  0.00  0.00    +0.000 A 
ATOM     19  C   UNL     1      44.930   3.656   9.839  0.00  0.00    +0.000 A 
ATOM     20  C   UNL     1      45.439   3.620  11.152  0.00  0.00    +0.000 A 
BRANCH  19  21
ATOM     21  C   UNL     1      45.663   3.016   8.719  0.00  0.00    +0.000 A 
ATOM     22  C   UNL     1      45.977   1.642   8.757  0.00  0.00    +0.000 A 
ATOM     23  C   UNL     1      46.579   0.992   7.675  0.00  0.00    +0.000 A 
ATOM     24  C   UNL     1      46.878   1.705   6.521  0.00  0.00    +0.000 A 
ATOM     25  C   UNL     1      46.594   3.063   6.472  0.00  0.00    +0.000 A 
ATOM     26  F   UNL     1      46.872   3.752   5.357  0.00  0.00    +0.000 F 
ATOM     27  C   UNL     1      46.007   3.720   7.552  0.00  0.00    +0.000 A 
ENDBRANCH  19  21
ENDBRANCH   1  15
TORSDOF 4
ENDMDL
MODEL 7
REMARK VINA RESULT:    -7.082      4.469      7.711
REMARK INTER + INTRA:          -9.412
REMARK INTER:                  -9.316
REMARK INTRA:                  -0.096
REMARK UNBOUND:                -0.673
REMARK  Name = 
REMARK  4 active torsions:
REMARK  status: ('A' for Active; 'I' for Inactive)
REMARK    1  A    between atoms: C_2  and  C_4
REMARK    2  A    between atoms: N_8  and  C_9
REMARK    3  A    between atoms: C_9  and  C_10
REMARK    4  A    between atoms: C_14  and  C_15
REMARK                            x       y       z     vdW  Elec       q    Type
REMARK                         _______ _______ _______ _____ _____    ______ ____
ROOT
ATOM      1  C   UNL     1      48.940   7.873  12.705  0.00  0.00    +0.000 C 
ENDROOT
BRANCH   1   6
ATOM      2  C   UNL     1      47.783   4.728  16.642  0.00  0.00    +0.000 A 
ATOM      3  C   UNL     1      47.447   4.643  15.295  0.00  0.00    +0.000 A 
ATOM      4  C   UNL     1      47.873   5.648  14.425  0.00  0.00    +0.000 A 
ATOM      5  C   UNL     1      48.618   6.717  14.909  0.00  0.00    +0.000 A 
ATOM      6  N   UNL     1      49.130   7.706  14.124  0.00  0.00    +0.000 N 
ATOM      7  N   UNL     1      48.920   6.820  16.220  0.00  0.00    +0.000 NA
ATOM      8  C   UNL     1      48.498   5.837  17.057  0.00  0.00    +0.000 A 
ATOM      9  H   UNL     1      49.566   8.449  14.654  0.00  0.00    +0.000 HD
BRANCH   2  11
ATOM     10  N   UNL     1      48.116   3.651  18.792  0.00  0.00    +0.000 N 
ATOM     11  C   UNL     1      47.405   3.693  17.626  0.00  0.00    +0.000 C 
ATOM     12  O   UNL     1      46.473   2.929  17.425  0.00  0.00    +0.000 OA
ATOM     13  H   UNL     1      47.783   3.014  19.502  0.00  0.00    +0.000 HD
ATOM     14  H   UNL     1      48.718   4.409  19.093  0.00  0.00    +0.000 HD
ENDBRANCH   2  11
ENDBRANCH   1   6
BRANCH   1  15
ATOM     15  C   UNL     1      47.488   7.759  12.311  0.00  0.00    +0.000 A 
ATOM     16  C   UNL     1      46.616   8.840  12.479  0.00  0.00    +0.000 A 
ATOM     17  C   UNL     1      45.291   8.743  12.063  0.00  0.00    +0.000 A 
ATOM     18  C   UNL     1      44.829   7.570  11.458  0.00  0.00    +0.000 A 
ATOM     19  C   UNL     1      45.680   6.473  11.241  0.00  0.00    +0.000 A 
ATOM     20  C   UNL     1      47.006   6.586  11.702  0.00  0.00    +0.000 A 
BRANCH  19  21
ATOM     21  C   UNL     1      45.237   5.283  10.475  0.00  0.00    +0.000 A 
ATOM     22  C   UNL     1      45.653   5.090   9.141  0.00  0.00    +0.000 A 
ATOM     23  C   UNL     1      45.332   3.930   8.428  0.00  0.00    +0.000 A 
ATOM     24  C   UNL     1      44.587   2.929   9.038  0.00  0.00    +0.000 A 
ATOM     25  C   UNL     1      44.153   3.109  10.344  0.00  0.00    +0.000 A 
ATOM     26  F   UNL     1      43.443   2.141  10.939  0.00  0.00    +0.000 F 
ATOM     27  C   UNL     1      44.457   4.268  11.056  0.00  0.00    +0.000 A 
ENDBRANCH  19  21
ENDBRANCH   1  15
TORSDOF 4
ENDMDL
MODEL 8
REMARK VINA RESULT:    -7.015      5.079      8.423
REMARK INTER + INTRA:          -9.329
REMARK INTER:                  -8.545
REMARK INTRA:                  -0.784
REMARK UNBOUND:                -0.673
REMARK  Name = 
REMARK  4 active torsions:
REMARK  status: ('A' for Active; 'I' for Inactive)
REMARK    1  A    between atoms: C_2  and  C_4
REMARK    2  A    between atoms: N_8  and  C_9
REMARK    3  A    between atoms: C_9  and  C_10
REMARK    4  A    between atoms: C_14  and  C_15
REMARK                            x       y       z     vdW  Elec       q    Type
REMARK                         _______ _______ _______ _____ _____    ______ ____
ROOT
ATOM      1  C   UNL     1      47.501   4.348  16.762  0.00  0.00    +0.000 C 
ENDROOT
BRANCH   1   6
ATOM      2  C   UNL     1      52.179   2.425  17.828  0.00  0.00    +0.000 A 
ATOM      3  C   UNL     1      51.666   3.701  18.030  0.00  0.00    +0.000 A 
ATOM      4  C   UNL     1      50.356   3.976  17.630  0.00  0.00    +0.000 A 
ATOM      5  C   UNL     1      49.589   2.982  17.035  0.00  0.00    +0.000 A 
ATOM      6  N   UNL     1      48.284   3.142  16.674  0.00  0.00    +0.000 N 
ATOM      7  N   UNL     1      50.093   1.752  16.809  0.00  0.00    +0.000 NA
ATOM      8  C   UNL     1      51.369   1.497  17.200  0.00  0.00    +0.000 A 
ATOM      9  H   UNL     1      47.910   2.346  16.172  0.00  0.00    +0.000 HD
BRANCH   2  11
ATOM     10  N   UNL     1      53.861   2.218  19.567  0.00  0.00    +0.000 N 
ATOM     11  C   UNL     1      53.541   2.037  18.252  0.00  0.00    +0.000 C 
ATOM     12  O   UNL     1      54.336   1.539  17.469  0.00  0.00    +0.000 OA
ATOM     13  H   UNL     1      54.753   1.851  19.870  0.00  0.00    +0.000 HD
ATOM     14  H   UNL     1      53.163   2.391  20.281  0.00  0.00    +0.000 HD
ENDBRANCH   2  11
ENDBRANCH   1   6
BRANCH   1  15
ATOM     15  C   UNL     1      47.425   5.072  15.440  0.00  0.00    +0.000 A 
ATOM     16  C   UNL     1      48.331   6.092  15.132  0.00  0.00    +0.000 A 
ATOM     17  C   UNL     1      48.287   6.718  13.889  0.00  0.00    +0.000 A 
ATOM     18  C   UNL     1      47.348   6.317  12.934  0.00  0.00    +0.000 A 
ATOM     19  C   UNL     1      46.441   5.274  13.191  0.00  0.00    +0.000 A 
ATOM     20  C   UNL     1      46.485   4.682  14.468  0.00  0.00    +0.000 A 
BRANCH  19  21
ATOM     21  C   UNL     1      45.539   4.749  12.138  0.00  0.00    +0.000 A 
ATOM     22  C   UNL     1      45.608   5.244  10.819  0.00  0.00    +0.000 A 
ATOM     23  C   UNL     1      44.839   4.700   9.785  0.00  0.00    +0.000 A 
ATOM     24  C   UNL     1      43.983   3.638  10.046  0.00  0.00    +0.000 A 
ATOM     25  C   UNL     1      43.888   3.149  11.342  0.00  0.00    +0.000 A 
ATOM     26  F   UNL     1      43.071   2.117  11.595  0.00  0.00    +0.000 F 
ATOM     27  C   UNL     1      44.640   3.695  12.380  0.00  0.00    +0.000 A 
ENDBRANCH  19  21
ENDBRANCH   1  15
TORSDOF 4
ENDMDL
MODEL 9
REMARK VINA RESULT:    -6.880      5.068      8.756
REMARK INTER + INTRA:          -9.162
REMARK INTER:                  -8.477
REMARK INTRA:                  -0.685
REMARK UNBOUND:                -0.673
REMARK  Name = 
REMARK  4 active torsions:
REMARK  status: ('A' for Active; 'I' for Inactive)
REMARK    1  A    between atoms: C_2  and  C_4
REMARK    2  A    between atoms: N_8  and  C_9
REMARK    3  A    between atoms: C_9  and  C_10
REMARK    4  A    between atoms: C_14  and  C_15
REMARK                            x       y       z     vdW  Elec       q    Type
REMARK                         _______ _______ _______ _____ _____    ______ ____
ROOT
ATOM      1  C   UNL     1      48.378   7.559  13.848  0.00  0.00    +0.000 C 
ENDROOT
BRANCH   1   6
ATOM      2  C   UNL     1      48.725   5.600  18.620  0.00  0.00    +0.000 A 
ATOM      3  C   UNL     1      48.490   6.904  18.200  0.00  0.00    +0.000 A 
ATOM      4  C   UNL     1      48.463   7.181  16.832  0.00  0.00    +0.000 A 
ATOM      5  C   UNL     1      48.674   6.160  15.912  0.00  0.00    +0.000 A 
ATOM      6  N   UNL     1      48.601   6.326  14.560  0.00  0.00    +0.000 N 
ATOM      7  N   UNL     1      48.933   4.900  16.315  0.00  0.00    +0.000 NA
ATOM      8  C   UNL     1      48.959   4.643  17.649  0.00  0.00    +0.000 A 
ATOM      9  H   UNL     1      48.873   5.499  14.043  0.00  0.00    +0.000 HD
BRANCH   2  11
ATOM     10  N   UNL     1      48.596   3.882  20.330  0.00  0.00    +0.000 N 
ATOM     11  C   UNL     1      48.736   5.210  20.045  0.00  0.00    +0.000 C 
ATOM     12  O   UNL     1      48.900   6.034  20.933  0.00  0.00    +0.000 OA
ATOM     13  H   UNL     1      48.712   3.612  21.297  0.00  0.00    +0.000 HD
ATOM     14  H   UNL     1      48.705   3.157  19.630  0.00  0.00    +0.000 HD
ENDBRANCH   2  11
ENDBRANCH   1   6
BRANCH   1  15
ATOM     15  C   UNL     1      47.100   7.527  13.046  0.00  0.00    +0.000 A 
ATOM     16  C   UNL     1      46.300   8.668  12.932  0.00  0.00    +0.000 A 
ATOM     17  C   UNL     1      45.151   8.643  12.146  0.00  0.00    +0.000 A 
ATOM     18  C   UNL     1      44.801   7.483  11.451  0.00  0.00    +0.000 A 
ATOM     19  C   UNL     1      45.595   6.324  11.512  0.00  0.00    +0.000 A 
ATOM     20  C   UNL     1      46.732   6.366  12.341  0.00  0.00    +0.000 A 
BRANCH  19  21
ATOM     21  C   UNL     1      45.309   5.138  10.669  0.00  0.00    +0.000 A 
ATOM     22  C   UNL     1      44.560   4.057  11.178  0.00  0.00    +0.000 A 
ATOM     23  C   UNL     1      44.192   2.971  10.377  0.00  0.00    +0.000 A 
ATOM     24  C   UNL     1      44.562   2.944   9.038  0.00  0.00    +0.000 A 
ATOM     25  C   UNL     1      45.315   3.991   8.524  0.00  0.00    +0.000 A 
ATOM     26  F   UNL     1      45.664   3.973   7.230  0.00  0.00    +0.000 F 
ATOM     27  C   UNL     1      45.697   5.069   9.319  0.00  0.00    +0.000 A 
ENDBRANCH  19  21
ENDBRANCH   1  15
TORSDOF 4
ENDMDL
