MODEL 1
REMARK VINA RESULT:    -8.777      0.000      0.000
REMARK INTER + INTRA:         -12.556
REMARK INTER:                 -11.856
REMARK INTRA:                  -0.700
REMARK UNBOUND:                -0.700
REMARK  Name = 
REMARK  7 active torsions:
REMARK  status: ('A' for Active; 'I' for Inactive)
REMARK    1  A    between atoms: C_1  and  C_2
REMARK    2  A    between atoms: C_5  and  O_6
REMARK    3  A    between atoms: O_6  and  C_7
REMARK    4  A    between atoms: C_11  and  C_12
REMARK    5  A    between atoms: C_12  and  C_13
REMARK    6  A    between atoms: C_13  and  N_14
REMARK    7  A    between atoms: C_18  and  C_19
REMARK                            x       y       z     vdW  Elec       q    Type
REMARK                         _______ _______ _______ _____ _____    ______ ____
ROOT
ATOM      1  C   UNL     1      43.393   4.410  11.041  0.00  0.00    +0.000 C 
ENDROOT
BRANCH   1   2
ATOM      2  N   UNL     1      43.770   4.931   9.730  0.00  0.00    +0.000 N 
ATOM      3  C   UNL     1      44.622   4.065   9.045  0.00  0.00    +0.000 A 
ATOM      4  N   UNL     1      44.546   2.745   9.271  0.00  0.00    +0.000 NA
ATOM      5  C   UNL     1      45.438   1.949   8.646  0.00  0.00    +0.000 A 
ATOM      6  C   UNL     1      46.389   2.416   7.775  0.00  0.00    +0.000 A 
ATOM      7  C   UNL     1      46.382   3.779   7.589  0.00  0.00    +0.000 A 
ATOM      8  N   UNL     1      45.517   4.622   8.215  0.00  0.00    +0.000 NA
ATOM      9  H   UNL     1      44.223   5.840   9.724  0.00  0.00    +0.000 HD
BRANCH   6  10
ATOM     10  C   UNL     1      47.343   1.478   7.170  0.00  0.00    +0.000 C 
ATOM     11  N   UNL     1      48.368   1.985   6.424  0.00  0.00    +0.000 N 
ATOM     12  O   UNL     1      47.205   0.270   7.307  0.00  0.00    +0.000 OA
ATOM     13  H   UNL     1      48.398   2.935   6.080  0.00  0.00    +0.000 HD
ATOM     14  H   UNL     1      48.939   1.301   5.940  0.00  0.00    +0.000 HD
ENDBRANCH   6  10
ENDBRANCH   1   2
BRANCH   1  15
ATOM     15  C   UNL     1      43.445   5.492  12.123  0.00  0.00    +0.000 C 
BRANCH  15  20
ATOM     16  C   UNL     1      46.603   4.555  14.062  0.00  0.00    +0.000 A 
ATOM     17  C   UNL     1      47.466   5.590  13.709  0.00  0.00    +0.000 A 
ATOM     18  C   UNL     1      47.019   6.605  12.860  0.00  0.00    +0.000 A 
ATOM     19  C   UNL     1      45.713   6.591  12.363  0.00  0.00    +0.000 A 
ATOM     20  C   UNL     1      44.833   5.565  12.723  0.00  0.00    +0.000 A 
ATOM     21  C   UNL     1      45.290   4.552  13.582  0.00  0.00    +0.000 A 
BRANCH  16  22
ATOM     22  O   UNL     1      46.935   3.508  14.886  0.00  0.00    +0.000 OA
BRANCH  22  27
ATOM     23  C   UNL     1      47.175   5.241  18.052  0.00  0.00    +0.000 C 
ATOM     24  C   UNL     1      47.153   3.884  17.379  0.00  0.00    +0.000 C 
ATOM     25  O   UNL     1      48.139   2.993  17.972  0.00  0.00    +0.000 OA
ATOM     26  C   UNL     1      48.529   2.550  16.646  0.00  0.00    +0.000 C 
ATOM     27  C   UNL     1      47.831   3.756  15.994  0.00  0.00    +0.000 C 
ENDBRANCH  22  27
ENDBRANCH  16  22
ENDBRANCH  15  20
ENDBRANCH   1  15
TORSDOF 6
ENDMDL
MODEL 2
REMARK VINA RESULT:    -7.842      2.451      3.947
REMARK INTER + INTRA:         -11.293
REMARK INTER:                 -10.681
REMARK INTRA:                  -0.611
REMARK UNBOUND:                -0.700
REMARK  Name = 
REMARK  7 active torsions:
REMARK  status: ('A' for Active; 'I' for Inactive)
REMARK    1  A    between atoms: C_1  and  C_2
REMARK    2  A    between atoms: C_5  and  O_6
REMARK    3  A    between atoms: O_6  and  C_7
REMARK    4  A    between atoms: C_11  and  C_12
REMARK    5  A    between atoms: C_12  and  C_13
REMARK    6  A    between atoms: C_13  and  N_14
REMARK    7  A    between atoms: C_18  and  C_19
REMARK                            x       y       z     vdW  Elec       q    Type
REMARK                         _______ _______ _______ _____ _____    ______ ____
ROOT
ATOM      1  C   UNL     1      43.273   4.416  11.106  0.00  0.00    +0.000 C 
ENDROOT
BRANCH   1   2
ATOM      2  N   UNL     1      43.777   4.907   9.828  0.00  0.00    +0.000 N 
ATOM      3  C   UNL     1      44.568   3.961   9.176  0.00  0.00    +0.000 A 
ATOM      4  N   UNL     1      44.338   2.655   9.375  0.00  0.00    +0.000 NA
ATOM      5  C   UNL     1      45.172   1.773   8.786  0.00  0.00    +0.000 A 
ATOM      6  C   UNL     1      46.216   2.143   7.977  0.00  0.00    +0.000 A 
ATOM      7  C   UNL     1      46.367   3.500   7.815  0.00  0.00    +0.000 A 
ATOM      8  N   UNL     1      45.565   4.426   8.406  0.00  0.00    +0.000 NA
ATOM      9  H   UNL     1      44.326   5.761   9.861  0.00  0.00    +0.000 HD
BRANCH   6  10
ATOM     10  C   UNL     1      47.096   1.114   7.410  0.00  0.00    +0.000 C 
ATOM     11  N   UNL     1      46.837  -0.194   7.702  0.00  0.00    +0.000 N 
ATOM     12  O   UNL     1      48.056   1.423   6.717  0.00  0.00    +0.000 OA
ATOM     13  H   UNL     1      46.221  -0.494   8.444  0.00  0.00    +0.000 HD
ATOM     14  H   UNL     1      47.528  -0.862   7.377  0.00  0.00    +0.000 HD
ENDBRANCH   6  10
ENDBRANCH   1   2
BRANCH   1  15
ATOM     15  C   UNL     1      43.373   5.477  12.206  0.00  0.00    +0.000 C 
BRANCH  15  20
ATOM     16  C   UNL     1      46.731   6.964  13.265  0.00  0.00    +0.000 A 
ATOM     17  C   UNL     1      47.389   5.844  13.766  0.00  0.00    +0.000 A 
ATOM     18  C   UNL     1      46.753   4.599  13.741  0.00  0.00    +0.000 A 
ATOM     19  C   UNL     1      45.465   4.471  13.217  0.00  0.00    +0.000 A 
ATOM     20  C   UNL     1      44.800   5.588  12.697  0.00  0.00    +0.000 A 
ATOM     21  C   UNL     1      45.450   6.832  12.721  0.00  0.00    +0.000 A 
BRANCH  16  22
ATOM     22  O   UNL     1      47.258   8.233  13.240  0.00  0.00    +0.000 OA
BRANCH  22  27
ATOM     23  C   UNL     1      48.988  11.066  11.802  0.00  0.00    +0.000 C 
ATOM     24  C   UNL     1      49.136   9.640  12.294  0.00  0.00    +0.000 C 
ATOM     25  O   UNL     1      49.987   8.867  11.402  0.00  0.00    +0.000 OA
ATOM     26  C   UNL     1      49.056   7.757  11.482  0.00  0.00    +0.000 C 
ATOM     27  C   UNL     1      47.956   8.669  12.051  0.00  0.00    +0.000 C 
ENDBRANCH  22  27
ENDBRANCH  16  22
ENDBRANCH  15  20
ENDBRANCH   1  15
TORSDOF 6
ENDMDL
MODEL 3
REMARK VINA RESULT:    -7.664      3.655      5.636
REMARK INTER + INTRA:         -11.052
REMARK INTER:                 -10.609
REMARK INTRA:                  -0.442
REMARK UNBOUND:                -0.700
REMARK  Name = 
REMARK  7 active torsions:
REMARK  status: ('A' for Active; 'I' for Inactive)
REMARK    1  A    between atoms: C_1  and  C_2
REMARK    2  A    between atoms: C_5  and  O_6
REMARK    3  A    between atoms: O_6  and  C_7
REMARK    4  A    between atoms: C_11  and  C_12
REMARK    5  A    between atoms: C_12  and  C_13
REMARK    6  A    between atoms: C_13  and  N_14
REMARK    7  A    between atoms: C_18  and  C_19
REMARK                            x       y       z     vdW  Elec       q    Type
REMARK                         _______ _______ _______ _____ _____    ______ ____
ROOT
ATOM      1  C   UNL     1      44.282   5.020  11.145  0.00  0.00    +0.000 C 
ENDROOT
BRANCH   1   2
ATOM      2  N   UNL     1      44.511   5.310   9.733  0.00  0.00    +0.000 N 
ATOM      3  C   UNL     1      45.107   4.239   9.066  0.00  0.00    +0.000 A 
ATOM      4  N   UNL     1      44.881   2.987   9.489  0.00  0.00    +0.000 NA
ATOM      5  C   UNL     1      45.536   1.985   8.865  0.00  0.00    +0.000 A 
ATOM      6  C   UNL     1      46.389   2.182   7.809  0.00  0.00    +0.000 A 
ATOM      7  C   UNL     1      46.547   3.495   7.431  0.00  0.00    +0.000 A 
ATOM      8  N   UNL     1      45.925   4.538   8.044  0.00  0.00    +0.000 NA
ATOM      9  H   UNL     1      45.082   6.125   9.530  0.00  0.00    +0.000 HD
BRANCH   6  10
ATOM     10  C   UNL     1      47.087   1.034   7.217  0.00  0.00    +0.000 C 
ATOM     11  N   UNL     1      46.792  -0.215   7.680  0.00  0.00    +0.000 N 
ATOM     12  O   UNL     1      47.935   1.197   6.349  0.00  0.00    +0.000 OA
ATOM     13  H   UNL     1      46.291  -0.393   8.539  0.00  0.00    +0.000 HD
ATOM     14  H   UNL     1      47.371  -0.965   7.319  0.00  0.00    +0.000 HD
ENDBRANCH   6  10
ENDBRANCH   1   2
BRANCH   1  15
ATOM     15  C   UNL     1      45.556   5.195  11.977  0.00  0.00    +0.000 C 
BRANCH  15  20
ATOM     16  C   UNL     1      45.447   9.015  11.951  0.00  0.00    +0.000 A 
ATOM     17  C   UNL     1      46.796   9.335  12.080  0.00  0.00    +0.000 A 
ATOM     18  C   UNL     1      47.746   8.313  12.153  0.00  0.00    +0.000 A 
ATOM     19  C   UNL     1      47.353   6.973  12.097  0.00  0.00    +0.000 A 
ATOM     20  C   UNL     1      46.002   6.641  11.952  0.00  0.00    +0.000 A 
ATOM     21  C   UNL     1      45.056   7.676  11.873  0.00  0.00    +0.000 A 
BRANCH  16  22
ATOM     22  O   UNL     1      44.430   9.936  11.872  0.00  0.00    +0.000 OA
BRANCH  22  27
ATOM     23  C   UNL     1      40.920  10.050  11.004  0.00  0.00    +0.000 C 
ATOM     24  C   UNL     1      42.256  10.750  10.865  0.00  0.00    +0.000 C 
ATOM     25  O   UNL     1      42.445  11.244   9.509  0.00  0.00    +0.000 OA
ATOM     26  C   UNL     1      43.813  10.759   9.528  0.00  0.00    +0.000 C 
ATOM     27  C   UNL     1      43.523   9.868  10.748  0.00  0.00    +0.000 C 
ENDBRANCH  22  27
ENDBRANCH  16  22
ENDBRANCH  15  20
ENDBRANCH   1  15
TORSDOF 6
ENDMDL
MODEL 4
REMARK VINA RESULT:    -7.405      3.905      8.559
REMARK INTER + INTRA:         -10.702
REMARK INTER:                 -10.362
REMARK INTRA:                  -0.340
REMARK UNBOUND:                -0.700
REMARK  Name = 
REMARK  7 active torsions:
REMARK  status: ('A' for Active; 'I' for Inactive)
REMARK    1  A    between atoms: C_1  and  C_2
REMARK    2  A    between atoms: C_5  and  O_6
REMARK    3  A    between atoms: O_6  and  C_7
REMARK    4  A    between atoms: C_11  and  C_12
REMARK    5  A    between atoms: C_12  and  C_13
REMARK    6  A    between atoms: C_13  and  N_14
REMARK    7  A    between atoms: C_18  and  C_19
REMARK                            x       y       z     vdW  Elec       q    Type
REMARK                         _______ _______ _______ _____ _____    ______ ____
ROOT
ATOM      1  C   UNL     1      47.061   4.858  13.570  0.00  0.00    +0.000 C 
ENDROOT
BRANCH   1   2
ATOM      2  N   UNL     1      46.411   4.403  14.795  0.00  0.00    +0.000 N 
ATOM      3  C   UNL     1      47.273   4.438  15.892  0.00  0.00    +0.000 A 
ATOM      4  N   UNL     1      48.264   5.340  15.927  0.00  0.00    +0.000 NA
ATOM      5  C   UNL     1      49.122   5.292  16.967  0.00  0.00    +0.000 A 
ATOM      6  C   UNL     1      49.011   4.392  17.997  0.00  0.00    +0.000 A 
ATOM      7  C   UNL     1      47.956   3.517  17.888  0.00  0.00    +0.000 A 
ATOM      8  N   UNL     1      47.081   3.514  16.847  0.00  0.00    +0.000 NA
ATOM      9  H   UNL     1      46.019   3.466  14.772  0.00  0.00    +0.000 HD
BRANCH   6  10
ATOM     10  C   UNL     1      50.014   4.390  19.069  0.00  0.00    +0.000 C 
ATOM     11  N   UNL     1      51.195   3.741  18.851  0.00  0.00    +0.000 N 
ATOM     12  O   UNL     1      49.784   4.930  20.143  0.00  0.00    +0.000 OA
ATOM     13  H   UNL     1      51.348   3.087  18.097  0.00  0.00    +0.000 HD
ATOM     14  H   UNL     1      51.814   3.675  19.652  0.00  0.00    +0.000 HD
ENDBRANCH   6  10
ENDBRANCH   1   2
BRANCH   1  15
ATOM     15  C   UNL     1      46.306   6.021  12.921  0.00  0.00    +0.000 C 
BRANCH  15  20
ATOM     16  C   UNL     1      45.018   4.764   9.549  0.00  0.00    +0.000 A 
ATOM     17  C   UNL     1      43.718   4.382   9.869  0.00  0.00    +0.000 A 
ATOM     18  C   UNL     1      43.249   4.551  11.175  0.00  0.00    +0.000 A 
ATOM     19  C   UNL     1      44.073   5.102  12.160  0.00  0.00    +0.000 A 
ATOM     20  C   UNL     1      45.376   5.504  11.844  0.00  0.00    +0.000 A 
ATOM     21  C   UNL     1      45.836   5.335  10.528  0.00  0.00    +0.000 A 
BRANCH  16  22
ATOM     22  O   UNL     1      45.582   4.643   8.302  0.00  0.00    +0.000 OA
BRANCH  22  27
ATOM     23  C   UNL     1      47.012   2.805   5.533  0.00  0.00    +0.000 C 
ATOM     24  C   UNL     1      46.941   2.920   7.043  0.00  0.00    +0.000 C 
ATOM     25  O   UNL     1      46.844   1.605   7.660  0.00  0.00    +0.000 OA
ATOM     26  C   UNL     1      45.821   2.108   8.558  0.00  0.00    +0.000 C 
ATOM     27  C   UNL     1      45.592   3.343   7.670  0.00  0.00    +0.000 C 
ENDBRANCH  22  27
ENDBRANCH  16  22
ENDBRANCH  15  20
ENDBRANCH   1  15
TORSDOF 6
ENDMDL
MODEL 5
REMARK VINA RESULT:    -7.378      3.180      3.773
REMARK INTER + INTRA:         -10.665
REMARK INTER:                  -9.999
REMARK INTRA:                  -0.666
REMARK UNBOUND:                -0.700
REMARK  Name = 
REMARK  7 active torsions:
REMARK  status: ('A' for Active; 'I' for Inactive)
REMARK    1  A    between atoms: C_1  and  C_2
REMARK    2  A    between atoms: C_5  and  O_6
REMARK    3  A    between atoms: O_6  and  C_7
REMARK    4  A    between atoms: C_11  and  C_12
REMARK    5  A    between atoms: C_12  and  C_13
REMARK    6  A    between atoms: C_13  and  N_14
REMARK    7  A    between atoms: C_18  and  C_19
REMARK                            x       y       z     vdW  Elec       q    Type
REMARK                         _______ _______ _______ _____ _____    ______ ____
ROOT
ATOM      1  C   UNL     1      44.313   5.011  11.209  0.00  0.00    +0.000 C 
ENDROOT
BRANCH   1   2
ATOM      2  N   UNL     1      44.549   5.331   9.805  0.00  0.00    +0.000 N 
ATOM      3  C   UNL     1      45.137   4.271   9.115  0.00  0.00    +0.000 A 
ATOM      4  N   UNL     1      44.899   3.011   9.508  0.00  0.00    +0.000 NA
ATOM      5  C   UNL     1      45.545   2.018   8.863  0.00  0.00    +0.000 A 
ATOM      6  C   UNL     1      46.404   2.231   7.815  0.00  0.00    +0.000 A 
ATOM      7  C   UNL     1      46.575   3.550   7.468  0.00  0.00    +0.000 A 
ATOM      8  N   UNL     1      45.962   4.585   8.103  0.00  0.00    +0.000 NA
ATOM      9  H   UNL     1      45.129   6.145   9.623  0.00  0.00    +0.000 HD
BRANCH   6  10
ATOM     10  C   UNL     1      47.094   1.091   7.198  0.00  0.00    +0.000 C 
ATOM     11  N   UNL     1      46.802  -0.165   7.647  0.00  0.00    +0.000 N 
ATOM     12  O   UNL     1      47.932   1.265   6.323  0.00  0.00    +0.000 OA
ATOM     13  H   UNL     1      46.311  -0.354   8.510  0.00  0.00    +0.000 HD
ATOM     14  H   UNL     1      47.375  -0.911   7.269  0.00  0.00    +0.000 HD
ENDBRANCH   6  10
ENDBRANCH   1   2
BRANCH   1  15
ATOM     15  C   UNL     1      45.608   5.036  12.026  0.00  0.00    +0.000 C 
BRANCH  15  20
ATOM     16  C   UNL     1      47.881   8.107  11.943  0.00  0.00    +0.000 A 
ATOM     17  C   UNL     1      46.994   9.123  12.292  0.00  0.00    +0.000 A 
ATOM     18  C   UNL     1      45.662   8.810  12.577  0.00  0.00    +0.000 A 
ATOM     19  C   UNL     1      45.214   7.488  12.515  0.00  0.00    +0.000 A 
ATOM     20  C   UNL     1      46.101   6.458  12.180  0.00  0.00    +0.000 A 
ATOM     21  C   UNL     1      47.439   6.782  11.902  0.00  0.00    +0.000 A 
BRANCH  16  22
ATOM     22  O   UNL     1      49.208   8.299  11.643  0.00  0.00    +0.000 OA
BRANCH  22  27
ATOM     23  C   UNL     1      49.718   8.455  15.221  0.00  0.00    +0.000 C 
ATOM     24  C   UNL     1      50.296   7.976  13.904  0.00  0.00    +0.000 C 
ATOM     25  O   UNL     1      51.730   8.216  13.849  0.00  0.00    +0.000 OA
ATOM     26  C   UNL     1      51.592   8.696  12.486  0.00  0.00    +0.000 C 
ATOM     27  C   UNL     1      50.072   8.862  12.656  0.00  0.00    +0.000 C 
ENDBRANCH  22  27
ENDBRANCH  16  22
ENDBRANCH  15  20
ENDBRANCH   1  15
TORSDOF 6
ENDMDL
MODEL 6
REMARK VINA RESULT:    -7.235      2.615      3.678
REMARK INTER + INTRA:         -10.472
REMARK INTER:                 -10.002
REMARK INTRA:                  -0.470
REMARK UNBOUND:                -0.700
REMARK  Name = 
REMARK  7 active torsions:
REMARK  status: ('A' for Active; 'I' for Inactive)
REMARK    1  A    between atoms: C_1  and  C_2
REMARK    2  A    between atoms: C_5  and  O_6
REMARK    3  A    between atoms: O_6  and  C_7
REMARK    4  A    between atoms: C_11  and  C_12
REMARK    5  A    between atoms: C_12  and  C_13
REMARK    6  A    between atoms: C_13  and  N_14
REMARK    7  A    between atoms: C_18  and  C_19
REMARK                            x       y       z     vdW  Elec       q    Type
REMARK                         _______ _______ _______ _____ _____    ______ ____
ROOT
ATOM      1  C   UNL     1      43.567   4.660  10.957  0.00  0.00    +0.000 C 
ENDROOT
BRANCH   1   2
ATOM      2  N   UNL     1      43.888   4.990   9.572  0.00  0.00    +0.000 N 
ATOM      3  C   UNL     1      44.651   3.998   8.957  0.00  0.00    +0.000 A 
ATOM      4  N   UNL     1      44.523   2.723   9.354  0.00  0.00    +0.000 NA
ATOM      5  C   UNL     1      45.332   1.804   8.788  0.00  0.00    +0.000 A 
ATOM      6  C   UNL     1      46.250   2.104   7.813  0.00  0.00    +0.000 A 
ATOM      7  C   UNL     1      46.300   3.430   7.456  0.00  0.00    +0.000 A 
ATOM      8  N   UNL     1      45.520   4.394   8.014  0.00  0.00    +0.000 NA
ATOM      9  H   UNL     1      44.385   5.863   9.424  0.00  0.00    +0.000 HD
BRANCH   6  10
ATOM     10  C   UNL     1      47.116   1.044   7.282  0.00  0.00    +0.000 C 
ATOM     11  N   UNL     1      46.871  -0.245   7.658  0.00  0.00    +0.000 N 
ATOM     12  O   UNL     1      48.054   1.313   6.543  0.00  0.00    +0.000 OA
ATOM     13  H   UNL     1      46.278  -0.502   8.435  0.00  0.00    +0.000 HD
ATOM     14  H   UNL     1      47.554  -0.929   7.353  0.00  0.00    +0.000 HD
ENDBRANCH   6  10
ENDBRANCH   1   2
BRANCH   1  15
ATOM     15  C   UNL     1      42.697   5.734  11.615  0.00  0.00    +0.000 C 
BRANCH  15  20
ATOM     16  C   UNL     1      45.408   8.401  11.999  0.00  0.00    +0.000 A 
ATOM     17  C   UNL     1      44.811   9.499  11.386  0.00  0.00    +0.000 A 
ATOM     18  C   UNL     1      43.518   9.384  10.867  0.00  0.00    +0.000 A 
ATOM     19  C   UNL     1      42.822   8.176  10.958  0.00  0.00    +0.000 A 
ATOM     20  C   UNL     1      43.407   7.071  11.586  0.00  0.00    +0.000 A 
ATOM     21  C   UNL     1      44.703   7.199  12.111  0.00  0.00    +0.000 A 
BRANCH  16  22
ATOM     22  O   UNL     1      46.670   8.401  12.542  0.00  0.00    +0.000 OA
BRANCH  22  27
ATOM     23  C   UNL     1      50.035   7.618  11.469  0.00  0.00    +0.000 C 
ATOM     24  C   UNL     1      49.039   7.514  12.607  0.00  0.00    +0.000 C 
ATOM     25  O   UNL     1      49.105   6.205  13.238  0.00  0.00    +0.000 OA
ATOM     26  C   UNL     1      47.655   6.153  13.270  0.00  0.00    +0.000 C 
ATOM     27  C   UNL     1      47.552   7.294  12.243  0.00  0.00    +0.000 C 
ENDBRANCH  22  27
ENDBRANCH  16  22
ENDBRANCH  15  20
ENDBRANCH   1  15
TORSDOF 6
ENDMDL
MODEL 7
REMARK VINA RESULT:    -6.904      2.066      3.530
REMARK INTER + INTRA:         -10.025
REMARK INTER:                  -8.816
REMARK INTRA:                  -1.209
REMARK UNBOUND:                -0.700
REMARK  Name = 
REMARK  7 active torsions:
REMARK  status: ('A' for Active; 'I' for Inactive)
REMARK    1  A    between atoms: C_1  and  C_2
REMARK    2  A    between atoms: C_5  and  O_6
REMARK    3  A    between atoms: O_6  and  C_7
REMARK    4  A    between atoms: C_11  and  C_12
REMARK    5  A    between atoms: C_12  and  C_13
REMARK    6  A    between atoms: C_13  and  N_14
REMARK    7  A    between atoms: C_18  and  C_19
REMARK                            x       y       z     vdW  Elec       q    Type
REMARK                         _______ _______ _______ _____ _____    ______ ____
ROOT
ATOM      1  C   UNL     1      44.732   8.595  11.586  0.00  0.00    +0.000 C 
ENDROOT
BRANCH   1   2
ATOM      2  N   UNL     1      44.139   7.378  12.134  0.00  0.00    +0.000 N 
ATOM      3  C   UNL     1      44.372   6.268  11.322  0.00  0.00    +0.000 A 
ATOM      4  N   UNL     1      45.479   6.221  10.567  0.00  0.00    +0.000 NA
ATOM      5  C   UNL     1      45.631   5.166   9.739  0.00  0.00    +0.000 A 
ATOM      6  C   UNL     1      44.730   4.135   9.656  0.00  0.00    +0.000 A 
ATOM      7  C   UNL     1      43.635   4.258  10.478  0.00  0.00    +0.000 A 
ATOM      8  N   UNL     1      43.429   5.313  11.311  0.00  0.00    +0.000 NA
ATOM      9  H   UNL     1      43.136   7.404  12.298  0.00  0.00    +0.000 HD
BRANCH   6  10
ATOM     10  C   UNL     1      44.959   3.046   8.698  0.00  0.00    +0.000 C 
ATOM     11  N   UNL     1      45.024   1.767   9.171  0.00  0.00    +0.000 N 
ATOM     12  O   UNL     1      45.117   3.283   7.507  0.00  0.00    +0.000 OA
ATOM     13  H   UNL     1      45.140   1.533  10.147  0.00  0.00    +0.000 HD
ATOM     14  H   UNL     1      45.288   1.061   8.493  0.00  0.00    +0.000 HD
ENDBRANCH   6  10
ENDBRANCH   1   2
BRANCH   1  15
ATOM     15  C   UNL     1      45.608   9.316  12.614  0.00  0.00    +0.000 C 
BRANCH  15  20
ATOM     16  C   UNL     1      48.514   7.015  13.548  0.00  0.00    +0.000 A 
ATOM     17  C   UNL     1      49.485   7.402  12.628  0.00  0.00    +0.000 A 
ATOM     18  C   UNL     1      49.207   8.425  11.717  0.00  0.00    +0.000 A 
ATOM     19  C   UNL     1      47.964   9.063  11.723  0.00  0.00    +0.000 A 
ATOM     20  C   UNL     1      46.987   8.693  12.654  0.00  0.00    +0.000 A 
ATOM     21  C   UNL     1      47.278   7.668  13.569  0.00  0.00    +0.000 A 
BRANCH  16  22
ATOM     22  O   UNL     1      48.677   6.024  14.486  0.00  0.00    +0.000 OA
BRANCH  22  27
ATOM     23  C   UNL     1      46.175   3.723  13.249  0.00  0.00    +0.000 C 
ATOM     24  C   UNL     1      47.349   3.891  14.192  0.00  0.00    +0.000 C 
ATOM     25  O   UNL     1      47.088   3.242  15.469  0.00  0.00    +0.000 OA
ATOM     26  C   UNL     1      47.631   4.396  16.161  0.00  0.00    +0.000 C 
ATOM     27  C   UNL     1      47.520   5.260  14.893  0.00  0.00    +0.000 C 
ENDBRANCH  22  27
ENDBRANCH  16  22
ENDBRANCH  15  20
ENDBRANCH   1  15
TORSDOF 6
ENDMDL
MODEL 8
REMARK VINA RESULT:    -6.634      4.549      8.013
REMARK INTER + INTRA:          -9.660
REMARK INTER:                  -9.174
REMARK INTRA:                  -0.486
REMARK UNBOUND:                -0.700
REMARK  Name = 
REMARK  7 active torsions:
REMARK  status: ('A' for Active; 'I' for Inactive)
REMARK    1  A    between atoms: C_1  and  C_2
REMARK    2  A    between atoms: C_5  and  O_6
REMARK    3  A    between atoms: O_6  and  C_7
REMARK    4  A    between atoms: C_11  and  C_12
REMARK    5  A    between atoms: C_12  and  C_13
REMARK    6  A    between atoms: C_13  and  N_14
REMARK    7  A    between atoms: C_18  and  C_19
REMARK                            x       y       z     vdW  Elec       q    Type
REMARK                         _______ _______ _______ _____ _____    ______ ____
ROOT
ATOM      1  C   UNL     1      48.736   6.691  16.173  0.00  0.00    +0.000 C 
ENDROOT
BRANCH   1   2
ATOM      2  N   UNL     1      48.111   5.446  16.607  0.00  0.00    +0.000 N 
ATOM      3  C   UNL     1      49.053   4.475  16.948  0.00  0.00    +0.000 A 
ATOM      4  N   UNL     1      50.250   4.851  17.421  0.00  0.00    +0.000 NA
ATOM      5  C   UNL     1      51.159   3.886  17.668  0.00  0.00    +0.000 A 
ATOM      6  C   UNL     1      50.910   2.549  17.489  0.00  0.00    +0.000 A 
ATOM      7  C   UNL     1      49.653   2.254  17.019  0.00  0.00    +0.000 A 
ATOM      8  N   UNL     1      48.711   3.194  16.735  0.00  0.00    +0.000 NA
ATOM      9  H   UNL     1      47.479   5.008  15.943  0.00  0.00    +0.000 HD
BRANCH   6  10
ATOM     10  C   UNL     1      51.975   1.571  17.748  0.00  0.00    +0.000 C 
ATOM     11  N   UNL     1      51.620   0.312  18.137  0.00  0.00    +0.000 N 
ATOM     12  O   UNL     1      53.153   1.887  17.645  0.00  0.00    +0.000 OA
ATOM     13  H   UNL     1      50.697   0.063  18.465  0.00  0.00    +0.000 HD
ATOM     14  H   UNL     1      52.385  -0.297  18.405  0.00  0.00    +0.000 HD
ENDBRANCH   6  10
ENDBRANCH   1   2
BRANCH   1  15
ATOM     15  C   UNL     1      49.032   6.689  14.670  0.00  0.00    +0.000 C 
BRANCH  15  20
ATOM     16  C   UNL     1      45.812   5.526  12.970  0.00  0.00    +0.000 A 
ATOM     17  C   UNL     1      45.250   6.737  12.576  0.00  0.00    +0.000 A 
ATOM     18  C   UNL     1      45.924   7.932  12.841  0.00  0.00    +0.000 A 
ATOM     19  C   UNL     1      47.158   7.921  13.497  0.00  0.00    +0.000 A 
ATOM     20  C   UNL     1      47.739   6.708  13.884  0.00  0.00    +0.000 A 
ATOM     21  C   UNL     1      47.056   5.513  13.607  0.00  0.00    +0.000 A 
BRANCH  16  22
ATOM     22  O   UNL     1      45.239   4.295  12.763  0.00  0.00    +0.000 OA
BRANCH  22  27
ATOM     23  C   UNL     1      45.027   4.391   9.153  0.00  0.00    +0.000 C 
ATOM     24  C   UNL     1      44.908   3.510  10.381  0.00  0.00    +0.000 C 
ATOM     25  O   UNL     1      43.772   2.608  10.266  0.00  0.00    +0.000 OA
ATOM     26  C   UNL     1      43.415   2.889  11.644  0.00  0.00    +0.000 C 
ATOM     27  C   UNL     1      44.314   4.138  11.663  0.00  0.00    +0.000 C 
ENDBRANCH  22  27
ENDBRANCH  16  22
ENDBRANCH  15  20
ENDBRANCH   1  15
TORSDOF 6
ENDMDL
MODEL 9
REMARK VINA RESULT:    -6.580      4.205      7.746
REMARK INTER + INTRA:          -9.587
REMARK INTER:                  -8.994
REMARK INTRA:                  -0.593
REMARK UNBOUND:                -0.700
REMARK  Name = 
REMARK  7 active torsions:
REMARK  status: ('A' for Active; 'I' for Inactive)
REMARK    1  A    between atoms: C_1  and  C_2
REMARK    2  A    between atoms: C_5  and  O_6
REMARK    3  A    between atoms: O_6  and  C_7
REMARK    4  A    between atoms: C_11  and  C_12
REMARK    5  A    between atoms: C_12  and  C_13
REMARK    6  A    between atoms: C_13  and  N_14
REMARK    7  A    between atoms: C_18  and  C_19
REMARK                            x       y       z     vdW  Elec       q    Type
REMARK                         _______ _______ _______ _____ _____    ______ ____
ROOT
ATOM      1  C   UNL     1      48.997   8.446  14.240  0.00  0.00    +0.000 C 
ENDROOT
BRANCH   1   2
ATOM      2  N   UNL     1      50.027   7.565  14.782  0.00  0.00    +0.000 N 
ATOM      3  C   UNL     1      49.484   6.508  15.511  0.00  0.00    +0.000 A 
ATOM      4  N   UNL     1      48.268   6.039  15.194  0.00  0.00    +0.000 NA
ATOM      5  C   UNL     1      47.747   5.067  15.971  0.00  0.00    +0.000 A 
ATOM      6  C   UNL     1      48.407   4.519  17.041  0.00  0.00    +0.000 A 
ATOM      7  C   UNL     1      49.654   5.046  17.281  0.00  0.00    +0.000 A 
ATOM      8  N   UNL     1      50.211   6.041  16.540  0.00  0.00    +0.000 NA
ATOM      9  H   UNL     1      50.718   8.002  15.386  0.00  0.00    +0.000 HD
BRANCH   6  10
ATOM     10  C   UNL     1      47.745   3.491  17.853  0.00  0.00    +0.000 C 
ATOM     11  N   UNL     1      48.296   3.159  19.057  0.00  0.00    +0.000 N 
ATOM     12  O   UNL     1      46.739   2.924  17.447  0.00  0.00    +0.000 OA
ATOM     13  H   UNL     1      49.235   3.409  19.334  0.00  0.00    +0.000 HD
ATOM     14  H   UNL     1      47.868   2.374  19.534  0.00  0.00    +0.000 HD
ENDBRANCH   6  10
ENDBRANCH   1   2
BRANCH   1  15
ATOM     15  C   UNL     1      48.908   8.352  12.714  0.00  0.00    +0.000 C 
BRANCH  15  20
ATOM     16  C   UNL     1      45.865   6.209  11.844  0.00  0.00    +0.000 A 
ATOM     17  C   UNL     1      44.875   7.177  11.692  0.00  0.00    +0.000 A 
ATOM     18  C   UNL     1      45.197   8.528  11.850  0.00  0.00    +0.000 A 
ATOM     19  C   UNL     1      46.504   8.914  12.158  0.00  0.00    +0.000 A 
ATOM     20  C   UNL     1      47.510   7.951  12.297  0.00  0.00    +0.000 A 
ATOM     21  C   UNL     1      47.177   6.597  12.130  0.00  0.00    +0.000 A 
BRANCH  16  22
ATOM     22  O   UNL     1      45.662   4.857  11.713  0.00  0.00    +0.000 OA
BRANCH  22  27
ATOM     23  C   UNL     1      44.630   3.037   8.762  0.00  0.00    +0.000 C 
ATOM     24  C   UNL     1      44.645   3.038  10.277  0.00  0.00    +0.000 C 
ATOM     25  O   UNL     1      43.370   2.584  10.811  0.00  0.00    +0.000 OA
ATOM     26  C   UNL     1      43.403   3.655  11.790  0.00  0.00    +0.000 C 
ATOM     27  C   UNL     1      44.492   4.399  10.997  0.00  0.00    +0.000 C 
ENDBRANCH  22  27
ENDBRANCH  16  22
ENDBRANCH  15  20
ENDBRANCH   1  15
TORSDOF 6
ENDMDL
