MODEL 1
REMARK VINA RESULT:    -7.931      0.000      0.000
REMARK INTER + INTRA:         -12.538
REMARK INTER:                 -11.176
REMARK INTRA:                  -1.362
REMARK UNBOUND:                -1.362
REMARK  Name = 
REMARK  7 active torsions:
REMARK  status: ('A' for Active; 'I' for Inactive)
REMARK    1  A    between atoms: C_2  and  C_20
REMARK    2  A    between atoms: N_3  and  C_4
REMARK    3  A    between atoms: C_4  and  C_5
REMARK    4  A    between atoms: C_8  and  C_9
REMARK    5  A    between atoms: C_9  and  O_10
REMARK    6  A    between atoms: O_10  and  C_11
REMARK    7  A    between atoms: C_11  and  C_12
REMARK                            x       y       z     vdW  Elec       q    Type
REMARK                         _______ _______ _______ _____ _____    ______ ____
ROOT
ATOM      1  C   UNL     1      47.357   8.459  13.110  0.00  0.00    +0.000 C 
ENDROOT
BRANCH   1   2
ATOM      2  C   UNL     1      46.409   7.482  12.463  0.00  0.00    +0.000 A 
ATOM      3  C   UNL     1      46.844   6.656  11.421  0.00  0.00    +0.000 A 
ATOM      4  C   UNL     1      45.986   5.702  10.866  0.00  0.00    +0.000 A 
ATOM      5  C   UNL     1      44.670   5.567  11.328  0.00  0.00    +0.000 A 
ATOM      6  C   UNL     1      44.213   6.441  12.323  0.00  0.00    +0.000 A 
ATOM      7  C   UNL     1      45.073   7.392  12.883  0.00  0.00    +0.000 A 
BRANCH   5   8
ATOM      8  C   UNL     1      43.773   4.489  10.773  0.00  0.00    +0.000 C 
BRANCH   8   9
ATOM      9  O   UNL     1      44.251   4.112   9.485  0.00  0.00    +0.000 OA
BRANCH   9  10
ATOM     10  C   UNL     1      44.529   2.709   9.419  0.00  0.00    +0.000 C 
BRANCH  10  11
ATOM     11  C   UNL     1      45.617   2.413   8.406  0.00  0.00    +0.000 A 
ATOM     12  N   UNL     1      46.059   3.429   7.639  0.00  0.00    +0.000 NA
ATOM     13  C   UNL     1      47.018   3.138   6.741  0.00  0.00    +0.000 A 
ATOM     14  C   UNL     1      47.554   1.883   6.588  0.00  0.00    +0.000 A 
ATOM     15  C   UNL     1      47.048   0.917   7.425  0.00  0.00    +0.000 A 
ATOM     16  N   UNL     1      46.092   1.151   8.343  0.00  0.00    +0.000 NA
ENDBRANCH  10  11
ENDBRANCH   9  10
ENDBRANCH   8   9
ENDBRANCH   5   8
ENDBRANCH   1   2
BRANCH   1  19
ATOM     17  O   UNL     1      49.699   7.064  13.913  0.00  0.00    +0.000 OA
ATOM     18  C   UNL     1      48.805   7.290  14.717  0.00  0.00    +0.000 C 
ATOM     19  N   UNL     1      47.682   8.040  14.446  0.00  0.00    +0.000 N 
ATOM     20  H   UNL     1      46.917   8.014  15.101  0.00  0.00    +0.000 HD
BRANCH  18  21
ATOM     21  C   UNL     1      48.700   6.620  16.007  0.00  0.00    +0.000 A 
ATOM     22  C   UNL     1      49.202   7.166  17.174  0.00  0.00    +0.000 A 
ATOM     23  S   UNL     1      49.393   5.979  18.399  0.00  0.00    +0.000 S 
ATOM     24  C   UNL     1      48.697   4.770  17.418  0.00  0.00    +0.000 A 
ATOM     25  N   UNL     1      48.666   3.460  17.779  0.00  0.00    +0.000 NA
ATOM     26  C   UNL     1      48.060   2.692  16.932  0.00  0.00    +0.000 A 
ATOM     27  N   UNL     1      47.437   3.120  15.782  0.00  0.00    +0.000 N 
ATOM     28  C   UNL     1      47.413   4.436  15.396  0.00  0.00    +0.000 A 
ATOM     29  O   UNL     1      46.764   4.818  14.431  0.00  0.00    +0.000 OA
ATOM     30  C   UNL     1      48.202   5.302  16.246  0.00  0.00    +0.000 A 
ATOM     31  H   UNL     1      46.903   2.481  15.212  0.00  0.00    +0.000 HD
ENDBRANCH  18  21
ENDBRANCH   1  19
TORSDOF 7
ENDMDL
MODEL 2
REMARK VINA RESULT:    -7.918      1.215      1.641
REMARK INTER + INTRA:         -12.519
REMARK INTER:                 -11.340
REMARK INTRA:                  -1.179
REMARK UNBOUND:                -1.362
REMARK  Name = 
REMARK  7 active torsions:
REMARK  status: ('A' for Active; 'I' for Inactive)
REMARK    1  A    between atoms: C_2  and  C_20
REMARK    2  A    between atoms: N_3  and  C_4
REMARK    3  A    between atoms: C_4  and  C_5
REMARK    4  A    between atoms: C_8  and  C_9
REMARK    5  A    between atoms: C_9  and  O_10
REMARK    6  A    between atoms: O_10  and  C_11
REMARK    7  A    between atoms: C_11  and  C_12
REMARK                            x       y       z     vdW  Elec       q    Type
REMARK                         _______ _______ _______ _____ _____    ______ ____
ROOT
ATOM      1  C   UNL     1      48.284   6.656  13.252  0.00  0.00    +0.000 C 
ENDROOT
BRANCH   1   2
ATOM      2  C   UNL     1      47.030   6.097  12.630  0.00  0.00    +0.000 A 
ATOM      3  C   UNL     1      46.631   6.500  11.351  0.00  0.00    +0.000 A 
ATOM      4  C   UNL     1      45.507   5.931  10.745  0.00  0.00    +0.000 A 
ATOM      5  C   UNL     1      44.748   4.960  11.413  0.00  0.00    +0.000 A 
ATOM      6  C   UNL     1      45.106   4.607  12.720  0.00  0.00    +0.000 A 
ATOM      7  C   UNL     1      46.234   5.172  13.325  0.00  0.00    +0.000 A 
BRANCH   5   8
ATOM      8  C   UNL     1      43.578   4.301  10.726  0.00  0.00    +0.000 C 
BRANCH   8   9
ATOM      9  O   UNL     1      43.990   3.869   9.432  0.00  0.00    +0.000 OA
BRANCH   9  10
ATOM     10  C   UNL     1      44.544   2.550   9.471  0.00  0.00    +0.000 C 
BRANCH  10  11
ATOM     11  C   UNL     1      45.642   2.386   8.439  0.00  0.00    +0.000 A 
ATOM     12  N   UNL     1      46.179   1.160   8.278  0.00  0.00    +0.000 NA
ATOM     13  C   UNL     1      47.159   1.043   7.363  0.00  0.00    +0.000 A 
ATOM     14  C   UNL     1      47.613   2.093   6.603  0.00  0.00    +0.000 A 
ATOM     15  C   UNL     1      46.994   3.299   6.831  0.00  0.00    +0.000 A 
ATOM     16  N   UNL     1      46.007   3.475   7.729  0.00  0.00    +0.000 NA
ENDBRANCH  10  11
ENDBRANCH   9  10
ENDBRANCH   8   9
ENDBRANCH   5   8
ENDBRANCH   1   2
BRANCH   1  19
ATOM     17  O   UNL     1      50.337   6.789  15.211  0.00  0.00    +0.000 OA
ATOM     18  C   UNL     1      49.160   6.823  15.543  0.00  0.00    +0.000 C 
ATOM     19  N   UNL     1      48.102   6.862  14.662  0.00  0.00    +0.000 N 
ATOM     20  H   UNL     1      47.174   6.696  15.018  0.00  0.00    +0.000 HD
BRANCH  18  21
ATOM     21  C   UNL     1      48.707   6.610  16.911  0.00  0.00    +0.000 A 
ATOM     22  C   UNL     1      48.582   7.641  17.824  0.00  0.00    +0.000 A 
ATOM     23  S   UNL     1      48.532   7.058  19.437  0.00  0.00    +0.000 S 
ATOM     24  C   UNL     1      48.554   5.435  18.913  0.00  0.00    +0.000 A 
ATOM     25  N   UNL     1      48.670   4.388  19.773  0.00  0.00    +0.000 NA
ATOM     26  C   UNL     1      48.626   3.228  19.202  0.00  0.00    +0.000 A 
ATOM     27  N   UNL     1      48.425   3.015  17.858  0.00  0.00    +0.000 N 
ATOM     28  C   UNL     1      48.269   4.040  16.959  0.00  0.00    +0.000 A 
ATOM     29  O   UNL     1      47.982   3.837  15.786  0.00  0.00    +0.000 OA
ATOM     30  C   UNL     1      48.455   5.352  17.541  0.00  0.00    +0.000 A 
ATOM     31  H   UNL     1      48.309   2.082  17.491  0.00  0.00    +0.000 HD
ENDBRANCH  18  21
ENDBRANCH   1  19
TORSDOF 7
ENDMDL
MODEL 3
REMARK VINA RESULT:    -7.261      1.985      2.688
REMARK INTER + INTRA:         -11.593
REMARK INTER:                 -10.715
REMARK INTRA:                  -0.878
REMARK UNBOUND:                -1.362
REMARK  Name = 
REMARK  7 active torsions:
REMARK  status: ('A' for Active; 'I' for Inactive)
REMARK    1  A    between atoms: C_2  and  C_20
REMARK    2  A    between atoms: N_3  and  C_4
REMARK    3  A    between atoms: C_4  and  C_5
REMARK    4  A    between atoms: C_8  and  C_9
REMARK    5  A    between atoms: C_9  and  O_10
REMARK    6  A    between atoms: O_10  and  C_11
REMARK    7  A    between atoms: C_11  and  C_12
REMARK                            x       y       z     vdW  Elec       q    Type
REMARK                         _______ _______ _______ _____ _____    ______ ____
ROOT
ATOM      1  C   UNL     1      48.173   6.750  13.712  0.00  0.00    +0.000 C 
ENDROOT
BRANCH   1   2
ATOM      2  C   UNL     1      46.966   6.131  13.055  0.00  0.00    +0.000 A 
ATOM      3  C   UNL     1      46.335   6.772  11.982  0.00  0.00    +0.000 A 
ATOM      4  C   UNL     1      45.258   6.167  11.327  0.00  0.00    +0.000 A 
ATOM      5  C   UNL     1      44.777   4.918  11.743  0.00  0.00    +0.000 A 
ATOM      6  C   UNL     1      45.363   4.308  12.860  0.00  0.00    +0.000 A 
ATOM      7  C   UNL     1      46.445   4.911  13.513  0.00  0.00    +0.000 A 
BRANCH   5   8
ATOM      8  C   UNL     1      43.661   4.240  10.988  0.00  0.00    +0.000 C 
BRANCH   8   9
ATOM      9  O   UNL     1      44.113   3.943   9.670  0.00  0.00    +0.000 OA
BRANCH   9  10
ATOM     10  C   UNL     1      44.555   2.586   9.560  0.00  0.00    +0.000 C 
BRANCH  10  11
ATOM     11  C   UNL     1      45.537   2.420   8.418  0.00  0.00    +0.000 A 
ATOM     12  N   UNL     1      45.697   3.453   7.567  0.00  0.00    +0.000 NA
ATOM     13  C   UNL     1      46.566   3.276   6.555  0.00  0.00    +0.000 A 
ATOM     14  C   UNL     1      47.282   2.120   6.368  0.00  0.00    +0.000 A 
ATOM     15  C   UNL     1      47.060   1.129   7.294  0.00  0.00    +0.000 A 
ATOM     16  N   UNL     1      46.206   1.251   8.328  0.00  0.00    +0.000 NA
ENDBRANCH  10  11
ENDBRANCH   9  10
ENDBRANCH   8   9
ENDBRANCH   5   8
ENDBRANCH   1   2
BRANCH   1  19
ATOM     17  O   UNL     1      50.435   6.752  15.431  0.00  0.00    +0.000 OA
ATOM     18  C   UNL     1      49.332   6.433  15.856  0.00  0.00    +0.000 C 
ATOM     19  N   UNL     1      48.167   6.495  15.126  0.00  0.00    +0.000 N 
ATOM     20  H   UNL     1      47.346   6.038  15.490  0.00  0.00    +0.000 HD
BRANCH  18  21
ATOM     21  C   UNL     1      49.131   5.742  17.123  0.00  0.00    +0.000 A 
ATOM     22  C   UNL     1      49.067   4.363  17.218  0.00  0.00    +0.000 A 
ATOM     23  S   UNL     1      48.335   3.862  18.687  0.00  0.00    +0.000 S 
ATOM     24  C   UNL     1      48.216   5.470  19.244  0.00  0.00    +0.000 A 
ATOM     25  N   UNL     1      47.556   5.804  20.386  0.00  0.00    +0.000 NA
ATOM     26  C   UNL     1      47.605   7.064  20.675  0.00  0.00    +0.000 A 
ATOM     27  N   UNL     1      48.296   8.013  19.959  0.00  0.00    +0.000 N 
ATOM     28  C   UNL     1      49.003   7.716  18.821  0.00  0.00    +0.000 A 
ATOM     29  O   UNL     1      49.702   8.547  18.255  0.00  0.00    +0.000 OA
ATOM     30  C   UNL     1      48.853   6.343  18.390  0.00  0.00    +0.000 A 
ATOM     31  H   UNL     1      48.369   8.964  20.291  0.00  0.00    +0.000 HD
ENDBRANCH  18  21
ENDBRANCH   1  19
TORSDOF 7
ENDMDL
MODEL 4
REMARK VINA RESULT:    -6.753      1.383      2.044
REMARK INTER + INTRA:         -10.879
REMARK INTER:                  -9.663
REMARK INTRA:                  -1.216
REMARK UNBOUND:                -1.362
REMARK  Name = 
REMARK  7 active torsions:
REMARK  status: ('A' for Active; 'I' for Inactive)
REMARK    1  A    between atoms: C_2  and  C_20
REMARK    2  A    between atoms: N_3  and  C_4
REMARK    3  A    between atoms: C_4  and  C_5
REMARK    4  A    between atoms: C_8  and  C_9
REMARK    5  A    between atoms: C_9  and  O_10
REMARK    6  A    between atoms: O_10  and  C_11
REMARK    7  A    between atoms: C_11  and  C_12
REMARK                            x       y       z     vdW  Elec       q    Type
REMARK                         _______ _______ _______ _____ _____    ______ ____
ROOT
ATOM      1  C   UNL     1      49.503   8.403  13.915  0.00  0.00    +0.000 C 
ENDROOT
BRANCH   1   2
ATOM      2  C   UNL     1      48.245   7.977  13.203  0.00  0.00    +0.000 A 
ATOM      3  C   UNL     1      48.300   7.039  12.165  0.00  0.00    +0.000 A 
ATOM      4  C   UNL     1      47.127   6.592  11.550  0.00  0.00    +0.000 A 
ATOM      5  C   UNL     1      45.877   7.085  11.946  0.00  0.00    +0.000 A 
ATOM      6  C   UNL     1      45.827   8.075  12.937  0.00  0.00    +0.000 A 
ATOM      7  C   UNL     1      47.000   8.520  13.557  0.00  0.00    +0.000 A 
BRANCH   5   8
ATOM      8  C   UNL     1      44.612   6.547  11.327  0.00  0.00    +0.000 C 
BRANCH   8   9
ATOM      9  O   UNL     1      44.710   5.127  11.244  0.00  0.00    +0.000 OA
BRANCH   9  10
ATOM     10  C   UNL     1      43.958   4.613  10.140  0.00  0.00    +0.000 C 
BRANCH  10  11
ATOM     11  C   UNL     1      44.835   3.795   9.214  0.00  0.00    +0.000 A 
ATOM     12  N   UNL     1      44.915   2.466   9.428  0.00  0.00    +0.000 NA
ATOM     13  C   UNL     1      45.708   1.764   8.599  0.00  0.00    +0.000 A 
ATOM     14  C   UNL     1      46.412   2.332   7.566  0.00  0.00    +0.000 A 
ATOM     15  C   UNL     1      46.257   3.690   7.420  0.00  0.00    +0.000 A 
ATOM     16  N   UNL     1      45.475   4.443   8.217  0.00  0.00    +0.000 NA
ENDBRANCH  10  11
ENDBRANCH   9  10
ENDBRANCH   8   9
ENDBRANCH   5   8
ENDBRANCH   1   2
BRANCH   1  19
ATOM     17  O   UNL     1      51.404   7.083  15.563  0.00  0.00    +0.000 OA
ATOM     18  C   UNL     1      50.328   7.443  16.022  0.00  0.00    +0.000 C 
ATOM     19  N   UNL     1      49.389   8.172  15.328  0.00  0.00    +0.000 N 
ATOM     20  H   UNL     1      48.463   8.257  15.717  0.00  0.00    +0.000 HD
BRANCH  18  21
ATOM     21  C   UNL     1      49.801   6.966  17.294  0.00  0.00    +0.000 A 
ATOM     22  C   UNL     1      50.092   7.580  18.499  0.00  0.00    +0.000 A 
ATOM     23  S   UNL     1      49.775   6.545  19.831  0.00  0.00    +0.000 S 
ATOM     24  C   UNL     1      49.139   5.333  18.813  0.00  0.00    +0.000 A 
ATOM     25  N   UNL     1      48.797   4.098  19.268  0.00  0.00    +0.000 NA
ATOM     26  C   UNL     1      48.292   3.323  18.364  0.00  0.00    +0.000 A 
ATOM     27  N   UNL     1      48.048   3.684  17.059  0.00  0.00    +0.000 N 
ATOM     28  C   UNL     1      48.345   4.930  16.565  0.00  0.00    +0.000 A 
ATOM     29  O   UNL     1      48.023   5.274  15.435  0.00  0.00    +0.000 OA
ATOM     30  C   UNL     1      49.041   5.775  17.511  0.00  0.00    +0.000 A 
ATOM     31  H   UNL     1      47.566   3.060  16.428  0.00  0.00    +0.000 HD
ENDBRANCH  18  21
ENDBRANCH   1  19
TORSDOF 7
ENDMDL
MODEL 5
REMARK VINA RESULT:    -6.677      2.706      3.888
REMARK INTER + INTRA:         -10.771
REMARK INTER:                  -9.760
REMARK INTRA:                  -1.011
REMARK UNBOUND:                -1.362
REMARK  Name = 
REMARK  7 active torsions:
REMARK  status: ('A' for Active; 'I' for Inactive)
REMARK    1  A    between atoms: C_2  and  C_20
REMARK    2  A    between atoms: N_3  and  C_4
REMARK    3  A    between atoms: C_4  and  C_5
REMARK    4  A    between atoms: C_8  and  C_9
REMARK    5  A    between atoms: C_9  and  O_10
REMARK    6  A    between atoms: O_10  and  C_11
REMARK    7  A    between atoms: C_11  and  C_12
REMARK                            x       y       z     vdW  Elec       q    Type
REMARK                         _______ _______ _______ _____ _____    ______ ____
ROOT
ATOM      1  C   UNL     1      47.217   4.285  16.115  0.00  0.00    +0.000 C 
ENDROOT
BRANCH   1   2
ATOM      2  C   UNL     1      46.862   4.548  14.674  0.00  0.00    +0.000 A 
ATOM      3  C   UNL     1      46.324   3.529  13.878  0.00  0.00    +0.000 A 
ATOM      4  C   UNL     1      45.930   3.790  12.563  0.00  0.00    +0.000 A 
ATOM      5  C   UNL     1      46.081   5.068  12.009  0.00  0.00    +0.000 A 
ATOM      6  C   UNL     1      46.683   6.070  12.782  0.00  0.00    +0.000 A 
ATOM      7  C   UNL     1      47.073   5.811  14.101  0.00  0.00    +0.000 A 
BRANCH   5   8
ATOM      8  C   UNL     1      45.590   5.359  10.613  0.00  0.00    +0.000 C 
BRANCH   8   9
ATOM      9  O   UNL     1      44.605   4.391  10.263  0.00  0.00    +0.000 OA
BRANCH   9  10
ATOM     10  C   UNL     1      44.435   4.305   8.844  0.00  0.00    +0.000 C 
BRANCH  10  11
ATOM     11  C   UNL     1      45.477   3.399   8.221  0.00  0.00    +0.000 A 
ATOM     12  N   UNL     1      46.324   3.935   7.320  0.00  0.00    +0.000 NA
ATOM     13  C   UNL     1      47.232   3.108   6.774  0.00  0.00    +0.000 A 
ATOM     14  C   UNL     1      47.333   1.777   7.097  0.00  0.00    +0.000 A 
ATOM     15  C   UNL     1      46.435   1.326   8.034  0.00  0.00    +0.000 A 
ATOM     16  N   UNL     1      45.506   2.108   8.616  0.00  0.00    +0.000 NA
ENDBRANCH  10  11
ENDBRANCH   9  10
ENDBRANCH   8   9
ENDBRANCH   5   8
ENDBRANCH   1   2
BRANCH   1  19
ATOM     17  O   UNL     1      48.268   3.052  18.449  0.00  0.00    +0.000 OA
ATOM     18  C   UNL     1      48.912   3.060  17.408  0.00  0.00    +0.000 C 
ATOM     19  N   UNL     1      48.446   3.545  16.207  0.00  0.00    +0.000 N 
ATOM     20  H   UNL     1      49.104   3.685  15.457  0.00  0.00    +0.000 HD
BRANCH  18  21
ATOM     21  C   UNL     1      50.335   2.755  17.344  0.00  0.00    +0.000 A 
ATOM     22  C   UNL     1      50.819   1.459  17.310  0.00  0.00    +0.000 A 
ATOM     23  S   UNL     1      52.477   1.390  17.744  0.00  0.00    +0.000 S 
ATOM     24  C   UNL     1      52.579   3.088  17.858  0.00  0.00    +0.000 A 
ATOM     25  N   UNL     1      53.684   3.727  18.327  0.00  0.00    +0.000 NA
ATOM     26  C   UNL     1      53.599   5.018  18.302  0.00  0.00    +0.000 A 
ATOM     27  N   UNL     1      52.533   5.730  17.804  0.00  0.00    +0.000 N 
ATOM     28  C   UNL     1      51.412   5.128  17.290  0.00  0.00    +0.000 A 
ATOM     29  O   UNL     1      50.519   5.769  16.750  0.00  0.00    +0.000 OA
ATOM     30  C   UNL     1      51.414   3.688  17.432  0.00  0.00    +0.000 A 
ATOM     31  H   UNL     1      52.569   6.736  17.730  0.00  0.00    +0.000 HD
ENDBRANCH  18  21
ENDBRANCH   1  19
TORSDOF 7
ENDMDL
MODEL 6
REMARK VINA RESULT:    -6.653      2.098      3.505
REMARK INTER + INTRA:         -10.737
REMARK INTER:                  -9.810
REMARK INTRA:                  -0.927
REMARK UNBOUND:                -1.362
REMARK  Name = 
REMARK  7 active torsions:
REMARK  status: ('A' for Active; 'I' for Inactive)
REMARK    1  A    between atoms: C_2  and  C_20
REMARK    2  A    between atoms: N_3  and  C_4
REMARK    3  A    between atoms: C_4  and  C_5
REMARK    4  A    between atoms: C_8  and  C_9
REMARK    5  A    between atoms: C_9  and  O_10
REMARK    6  A    between atoms: O_10  and  C_11
REMARK    7  A    between atoms: C_11  and  C_12
REMARK                            x       y       z     vdW  Elec       q    Type
REMARK                         _______ _______ _______ _____ _____    ______ ____
ROOT
ATOM      1  C   UNL     1      47.521   4.418  15.820  0.00  0.00    +0.000 C 
ENDROOT
BRANCH   1   2
ATOM      2  C   UNL     1      46.916   4.747  14.479  0.00  0.00    +0.000 A 
ATOM      3  C   UNL     1      47.391   5.833  13.734  0.00  0.00    +0.000 A 
ATOM      4  C   UNL     1      46.878   6.098  12.461  0.00  0.00    +0.000 A 
ATOM      5  C   UNL     1      45.867   5.296  11.914  0.00  0.00    +0.000 A 
ATOM      6  C   UNL     1      45.343   4.252  12.688  0.00  0.00    +0.000 A 
ATOM      7  C   UNL     1      45.860   3.982  13.960  0.00  0.00    +0.000 A 
BRANCH   5   8
ATOM      8  C   UNL     1      45.369   5.546  10.513  0.00  0.00    +0.000 C 
BRANCH   8   9
ATOM      9  O   UNL     1      44.834   4.332   9.993  0.00  0.00    +0.000 OA
BRANCH   9  10
ATOM     10  C   UNL     1      44.788   4.350   8.562  0.00  0.00    +0.000 C 
BRANCH  10  11
ATOM     11  C   UNL     1      45.738   3.328   7.970  0.00  0.00    +0.000 A 
ATOM     12  N   UNL     1      46.557   3.727   6.977  0.00  0.00    +0.000 NA
ATOM     13  C   UNL     1      47.383   2.798   6.462  0.00  0.00    +0.000 A 
ATOM     14  C   UNL     1      47.427   1.499   6.903  0.00  0.00    +0.000 A 
ATOM     15  C   UNL     1      46.563   1.191   7.927  0.00  0.00    +0.000 A 
ATOM     16  N   UNL     1      45.718   2.079   8.483  0.00  0.00    +0.000 NA
ENDBRANCH  10  11
ENDBRANCH   9  10
ENDBRANCH   8   9
ENDBRANCH   5   8
ENDBRANCH   1   2
BRANCH   1  19
ATOM     17  O   UNL     1      50.136   4.951  16.796  0.00  0.00    +0.000 OA
ATOM     18  C   UNL     1      49.223   5.739  17.004  0.00  0.00    +0.000 C 
ATOM     19  N   UNL     1      47.951   5.614  16.490  0.00  0.00    +0.000 N 
ATOM     20  H   UNL     1      47.221   6.199  16.865  0.00  0.00    +0.000 HD
BRANCH  18  21
ATOM     21  C   UNL     1      49.294   6.804  17.996  0.00  0.00    +0.000 A 
ATOM     22  C   UNL     1      49.654   6.573  19.312  0.00  0.00    +0.000 A 
ATOM     23  S   UNL     1      49.170   7.862  20.337  0.00  0.00    +0.000 S 
ATOM     24  C   UNL     1      48.594   8.774  19.016  0.00  0.00    +0.000 A 
ATOM     25  N   UNL     1      47.913   9.941  19.172  0.00  0.00    +0.000 NA
ATOM     26  C   UNL     1      47.591  10.517  18.059  0.00  0.00    +0.000 A 
ATOM     27  N   UNL     1      47.931  10.063  16.806  0.00  0.00    +0.000 N 
ATOM     28  C   UNL     1      48.646   8.910  16.603  0.00  0.00    +0.000 A 
ATOM     29  O   UNL     1      49.036   8.575  15.492  0.00  0.00    +0.000 OA
ATOM     30  C   UNL     1      48.900   8.166  17.818  0.00  0.00    +0.000 A 
ATOM     31  H   UNL     1      47.727  10.609  15.982  0.00  0.00    +0.000 HD
ENDBRANCH  18  21
ENDBRANCH   1  19
TORSDOF 7
ENDMDL
MODEL 7
REMARK VINA RESULT:    -6.621      4.844      8.997
REMARK INTER + INTRA:         -10.692
REMARK INTER:                  -9.798
REMARK INTRA:                  -0.894
REMARK UNBOUND:                -1.362
REMARK  Name = 
REMARK  7 active torsions:
REMARK  status: ('A' for Active; 'I' for Inactive)
REMARK    1  A    between atoms: C_2  and  C_20
REMARK    2  A    between atoms: N_3  and  C_4
REMARK    3  A    between atoms: C_4  and  C_5
REMARK    4  A    between atoms: C_8  and  C_9
REMARK    5  A    between atoms: C_9  and  O_10
REMARK    6  A    between atoms: O_10  and  C_11
REMARK    7  A    between atoms: C_11  and  C_12
REMARK                            x       y       z     vdW  Elec       q    Type
REMARK                         _______ _______ _______ _____ _____    ______ ____
ROOT
ATOM      1  C   UNL     1      48.354   5.541  17.175  0.00  0.00    +0.000 C 
ENDROOT
BRANCH   1   2
ATOM      2  C   UNL     1      49.301   4.374  17.300  0.00  0.00    +0.000 A 
ATOM      3  C   UNL     1      48.858   3.071  17.046  0.00  0.00    +0.000 A 
ATOM      4  C   UNL     1      49.750   1.996  17.094  0.00  0.00    +0.000 A 
ATOM      5  C   UNL     1      51.099   2.198  17.415  0.00  0.00    +0.000 A 
ATOM      6  C   UNL     1      51.528   3.492  17.736  0.00  0.00    +0.000 A 
ATOM      7  C   UNL     1      50.637   4.570  17.683  0.00  0.00    +0.000 A 
BRANCH   5   8
ATOM      8  C   UNL     1      52.069   1.044  17.396  0.00  0.00    +0.000 C 
BRANCH   8   9
ATOM      9  O   UNL     1      52.967   1.181  18.494  0.00  0.00    +0.000 OA
BRANCH   9  10
ATOM     10  C   UNL     1      54.276   0.704  18.164  0.00  0.00    +0.000 C 
BRANCH  10  11
ATOM     11  C   UNL     1      54.350  -0.806  18.267  0.00  0.00    +0.000 A 
ATOM     12  N   UNL     1      55.017  -1.474  17.304  0.00  0.00    +0.000 NA
ATOM     13  C   UNL     1      55.060  -2.814  17.414  0.00  0.00    +0.000 A 
ATOM     14  C   UNL     1      54.474  -3.507  18.444  0.00  0.00    +0.000 A 
ATOM     15  C   UNL     1      53.829  -2.738  19.383  0.00  0.00    +0.000 A 
ATOM     16  N   UNL     1      53.757  -1.395  19.327  0.00  0.00    +0.000 NA
ENDBRANCH  10  11
ENDBRANCH   9  10
ENDBRANCH   8   9
ENDBRANCH   5   8
ENDBRANCH   1   2
BRANCH   1  19
ATOM     17  O   UNL     1      49.390   6.607  14.753  0.00  0.00    +0.000 OA
ATOM     18  C   UNL     1      48.254   6.153  14.796  0.00  0.00    +0.000 C 
ATOM     19  N   UNL     1      47.703   5.530  15.894  0.00  0.00    +0.000 N 
ATOM     20  H   UNL     1      46.710   5.362  15.904  0.00  0.00    +0.000 HD
BRANCH  18  21
ATOM     21  C   UNL     1      47.254   6.400  13.766  0.00  0.00    +0.000 A 
ATOM     22  C   UNL     1      47.058   7.647  13.200  0.00  0.00    +0.000 A 
ATOM     23  S   UNL     1      45.532   7.759  12.423  0.00  0.00    +0.000 S 
ATOM     24  C   UNL     1      45.187   6.118  12.735  0.00  0.00    +0.000 A 
ATOM     25  N   UNL     1      43.976   5.559  12.469  0.00  0.00    +0.000 NA
ATOM     26  C   UNL     1      43.909   4.294  12.730  0.00  0.00    +0.000 A 
ATOM     27  N   UNL     1      44.955   3.524  13.184  0.00  0.00    +0.000 N 
ATOM     28  C   UNL     1      46.203   4.038  13.433  0.00  0.00    +0.000 A 
ATOM     29  O   UNL     1      47.152   3.323  13.730  0.00  0.00    +0.000 OA
ATOM     30  C   UNL     1      46.274   5.475  13.287  0.00  0.00    +0.000 A 
ATOM     31  H   UNL     1      44.860   2.523  13.279  0.00  0.00    +0.000 HD
ENDBRANCH  18  21
ENDBRANCH   1  19
TORSDOF 7
ENDMDL
MODEL 8
REMARK VINA RESULT:    -6.563      2.168      3.082
REMARK INTER + INTRA:         -10.611
REMARK INTER:                  -9.727
REMARK INTRA:                  -0.883
REMARK UNBOUND:                -1.362
REMARK  Name = 
REMARK  7 active torsions:
REMARK  status: ('A' for Active; 'I' for Inactive)
REMARK    1  A    between atoms: C_2  and  C_20
REMARK    2  A    between atoms: N_3  and  C_4
REMARK    3  A    between atoms: C_4  and  C_5
REMARK    4  A    between atoms: C_8  and  C_9
REMARK    5  A    between atoms: C_9  and  O_10
REMARK    6  A    between atoms: O_10  and  C_11
REMARK    7  A    between atoms: C_11  and  C_12
REMARK                            x       y       z     vdW  Elec       q    Type
REMARK                         _______ _______ _______ _____ _____    ______ ____
ROOT
ATOM      1  C   UNL     1      46.141   8.594  12.868  0.00  0.00    +0.000 C 
ENDROOT
BRANCH   1   2
ATOM      2  C   UNL     1      45.660   7.221  12.472  0.00  0.00    +0.000 A 
ATOM      3  C   UNL     1      45.826   6.134  13.338  0.00  0.00    +0.000 A 
ATOM      4  C   UNL     1      45.319   4.876  13.001  0.00  0.00    +0.000 A 
ATOM      5  C   UNL     1      44.652   4.673  11.786  0.00  0.00    +0.000 A 
ATOM      6  C   UNL     1      44.547   5.744  10.889  0.00  0.00    +0.000 A 
ATOM      7  C   UNL     1      45.049   7.006  11.227  0.00  0.00    +0.000 A 
BRANCH   5   8
ATOM      8  C   UNL     1      44.047   3.330  11.462  0.00  0.00    +0.000 C 
BRANCH   8   9
ATOM      9  O   UNL     1      45.017   2.544  10.773  0.00  0.00    +0.000 OA
BRANCH   9  10
ATOM     10  C   UNL     1      44.535   2.120   9.494  0.00  0.00    +0.000 C 
BRANCH  10  11
ATOM     11  C   UNL     1      45.620   2.215   8.441  0.00  0.00    +0.000 A 
ATOM     12  N   UNL     1      45.816   3.407   7.842  0.00  0.00    +0.000 NA
ATOM     13  C   UNL     1      46.778   3.463   6.903  0.00  0.00    +0.000 A 
ATOM     14  C   UNL     1      47.552   2.385   6.548  0.00  0.00    +0.000 A 
ATOM     15  C   UNL     1      47.285   1.217   7.223  0.00  0.00    +0.000 A 
ATOM     16  N   UNL     1      46.338   1.103   8.174  0.00  0.00    +0.000 NA
ENDBRANCH  10  11
ENDBRANCH   9  10
ENDBRANCH   8   9
ENDBRANCH   5   8
ENDBRANCH   1   2
BRANCH   1  19
ATOM     17  O   UNL     1      48.961   8.452  13.187  0.00  0.00    +0.000 OA
ATOM     18  C   UNL     1      48.222   8.384  14.160  0.00  0.00    +0.000 C 
ATOM     19  N   UNL     1      46.854   8.541  14.114  0.00  0.00    +0.000 N 
ATOM     20  H   UNL     1      46.313   8.282  14.924  0.00  0.00    +0.000 HD
BRANCH  18  21
ATOM     21  C   UNL     1      48.661   7.917  15.468  0.00  0.00    +0.000 A 
ATOM     22  C   UNL     1      49.028   6.605  15.707  0.00  0.00    +0.000 A 
ATOM     23  S   UNL     1      49.004   6.234  17.382  0.00  0.00    +0.000 S 
ATOM     24  C   UNL     1      48.625   7.845  17.793  0.00  0.00    +0.000 A 
ATOM     25  N   UNL     1      48.319   8.226  19.062  0.00  0.00    +0.000 NA
ATOM     26  C   UNL     1      48.101   9.494  19.196  0.00  0.00    +0.000 A 
ATOM     27  N   UNL     1      48.212  10.425  18.189  0.00  0.00    +0.000 N 
ATOM     28  C   UNL     1      48.552  10.091  16.902  0.00  0.00    +0.000 A 
ATOM     29  O   UNL     1      48.754  10.940  16.043  0.00  0.00    +0.000 OA
ATOM     30  C   UNL     1      48.663   8.665  16.686  0.00  0.00    +0.000 A 
ATOM     31  H   UNL     1      48.118  11.412  18.381  0.00  0.00    +0.000 HD
ENDBRANCH  18  21
ENDBRANCH   1  19
TORSDOF 7
ENDMDL
MODEL 9
REMARK VINA RESULT:    -6.504      3.157      7.573
REMARK INTER + INTRA:         -10.528
REMARK INTER:                  -9.116
REMARK INTRA:                  -1.412
REMARK UNBOUND:                -1.362
REMARK  Name = 
REMARK  7 active torsions:
REMARK  status: ('A' for Active; 'I' for Inactive)
REMARK    1  A    between atoms: C_2  and  C_20
REMARK    2  A    between atoms: N_3  and  C_4
REMARK    3  A    between atoms: C_4  and  C_5
REMARK    4  A    between atoms: C_8  and  C_9
REMARK    5  A    between atoms: C_9  and  O_10
REMARK    6  A    between atoms: O_10  and  C_11
REMARK    7  A    between atoms: C_11  and  C_12
REMARK                            x       y       z     vdW  Elec       q    Type
REMARK                         _______ _______ _______ _____ _____    ______ ____
ROOT
ATOM      1  C   UNL     1      46.541   8.308  13.124  0.00  0.00    +0.000 C 
ENDROOT
BRANCH   1   2
ATOM      2  C   UNL     1      47.824   8.222  13.911  0.00  0.00    +0.000 A 
ATOM      3  C   UNL     1      47.940   8.863  15.150  0.00  0.00    +0.000 A 
ATOM      4  C   UNL     1      49.104   8.727  15.912  0.00  0.00    +0.000 A 
ATOM      5  C   UNL     1      50.183   7.964  15.444  0.00  0.00    +0.000 A 
ATOM      6  C   UNL     1      50.093   7.381  14.173  0.00  0.00    +0.000 A 
ATOM      7  C   UNL     1      48.926   7.511  13.412  0.00  0.00    +0.000 A 
BRANCH   5   8
ATOM      8  C   UNL     1      51.407   7.765  16.302  0.00  0.00    +0.000 C 
BRANCH   8   9
ATOM      9  O   UNL     1      51.563   6.373  16.563  0.00  0.00    +0.000 OA
BRANCH   9  10
ATOM     10  C   UNL     1      50.733   5.946  17.648  0.00  0.00    +0.000 C 
BRANCH  10  11
ATOM     11  C   UNL     1      49.884   4.755  17.252  0.00  0.00    +0.000 A 
ATOM     12  N   UNL     1      48.656   4.992  16.751  0.00  0.00    +0.000 NA
ATOM     13  C   UNL     1      47.918   3.918  16.418  0.00  0.00    +0.000 A 
ATOM     14  C   UNL     1      48.361   2.625  16.556  0.00  0.00    +0.000 A 
ATOM     15  C   UNL     1      49.630   2.485  17.063  0.00  0.00    +0.000 A 
ATOM     16  N   UNL     1      50.414   3.523  17.411  0.00  0.00    +0.000 NA
ENDBRANCH  10  11
ENDBRANCH   9  10
ENDBRANCH   8   9
ENDBRANCH   5   8
ENDBRANCH   1   2
BRANCH   1  19
ATOM     17  O   UNL     1      44.463   7.904  11.229  0.00  0.00    +0.000 OA
ATOM     18  C   UNL     1      45.385   7.105  11.319  0.00  0.00    +0.000 C 
ATOM     19  N   UNL     1      46.482   7.267  12.136  0.00  0.00    +0.000 N 
ATOM     20  H   UNL     1      47.090   6.478  12.287  0.00  0.00    +0.000 HD
BRANCH  18  21
ATOM     21  C   UNL     1      45.348   5.770  10.736  0.00  0.00    +0.000 A 
ATOM     22  C   UNL     1      45.705   5.520   9.423  0.00  0.00    +0.000 A 
ATOM     23  S   UNL     1      45.095   4.012   8.876  0.00  0.00    +0.000 S 
ATOM     24  C   UNL     1      44.464   3.642  10.417  0.00  0.00    +0.000 A 
ATOM     25  N   UNL     1      43.682   2.553  10.647  0.00  0.00    +0.000 NA
ATOM     26  C   UNL     1      43.330   2.408  11.884  0.00  0.00    +0.000 A 
ATOM     27  N   UNL     1      43.728   3.220  12.920  0.00  0.00    +0.000 N 
ATOM     28  C   UNL     1      44.544   4.309  12.739  0.00  0.00    +0.000 A 
ATOM     29  O   UNL     1      44.979   4.957  13.682  0.00  0.00    +0.000 OA
ATOM     30  C   UNL     1      44.841   4.583  11.350  0.00  0.00    +0.000 A 
ATOM     31  H   UNL     1      43.492   2.997  13.876  0.00  0.00    +0.000 HD
ENDBRANCH  18  21
ENDBRANCH   1  19
TORSDOF 7
ENDMDL
