MODEL 1
REMARK VINA RESULT:    -8.503      0.000      0.000
REMARK INTER + INTRA:          -9.975
REMARK INTER:                  -9.994
REMARK INTRA:                   0.018
REMARK UNBOUND:                 0.018
REMARK  Name = 
REMARK  3 active torsions:
REMARK  status: ('A' for Active; 'I' for Inactive)
REMARK    1  A    between atoms: C_2  and  C_4
REMARK    2  A    between atoms: N_8  and  C_9
REMARK    3  A    between atoms: C_9  and  C_10
REMARK                            x       y       z     vdW  Elec       q    Type
REMARK                         _______ _______ _______ _____ _____    ______ ____
ROOT
ATOM      1  C   UNL     1      46.427   2.729   7.519  0.00  0.00    +0.000 A 
ATOM      2  C   UNL     1      46.123   4.051   7.819  0.00  0.00    +0.000 A 
ATOM      3  C   UNL     1      45.315   4.328   8.918  0.00  0.00    +0.000 A 
ATOM      4  C   UNL     1      44.816   3.292   9.703  0.00  0.00    +0.000 A 
ATOM      5  N   UNL     1      43.991   3.512  10.811  0.00  0.00    +0.000 N 
ATOM      6  N   UNL     1      45.090   2.002   9.410  0.00  0.00    +0.000 NA
ATOM      7  C   UNL     1      45.874   1.747   8.327  0.00  0.00    +0.000 A 
ATOM      8  H   UNL     1      43.823   2.626  11.278  0.00  0.00    +0.000 HD
ENDROOT
BRANCH   1  10
ATOM      9  N   UNL     1      47.278   3.169   5.290  0.00  0.00    +0.000 N 
ATOM     10  C   UNL     1      47.279   2.341   6.380  0.00  0.00    +0.000 C 
ATOM     11  O   UNL     1      47.986   1.343   6.417  0.00  0.00    +0.000 OA
ATOM     12  H   UNL     1      47.938   2.946   4.554  0.00  0.00    +0.000 HD
ATOM     13  H   UNL     1      46.908   4.108   5.316  0.00  0.00    +0.000 HD
ENDBRANCH   1  10
BRANCH   5  14
ATOM     14  C   UNL     1      43.917   4.774  11.561  0.00  0.00    +0.000 C 
ATOM     15  C   UNL     1      42.635   5.141  12.289  0.00  0.00    +0.000 C 
ATOM     16  C   UNL     1      42.982   5.856  11.027  0.00  0.00    +0.000 C 
BRANCH  14  17
ATOM     17  C   UNL     1      45.254   5.274  12.115  0.00  0.00    +0.000 A 
ATOM     18  C   UNL     1      45.879   4.631  13.201  0.00  0.00    +0.000 A 
ATOM     19  C   UNL     1      47.139   5.032  13.657  0.00  0.00    +0.000 A 
ATOM     20  C   UNL     1      47.781   6.100  13.047  0.00  0.00    +0.000 A 
ATOM     21  F   UNL     1      48.998   6.471  13.466  0.00  0.00    +0.000 F 
ATOM     22  C   UNL     1      47.184   6.780  11.999  0.00  0.00    +0.000 A 
ATOM     23  C   UNL     1      45.935   6.364  11.536  0.00  0.00    +0.000 A 
ENDBRANCH  14  17
ENDBRANCH   5  14
TORSDOF 3
ENDMDL
MODEL 2
REMARK VINA RESULT:    -7.874      3.844      6.368
REMARK INTER + INTRA:          -9.236
REMARK INTER:                  -8.793
REMARK INTRA:                  -0.443
REMARK UNBOUND:                 0.018
REMARK  Name = 
REMARK  3 active torsions:
REMARK  status: ('A' for Active; 'I' for Inactive)
REMARK    1  A    between atoms: C_2  and  C_4
REMARK    2  A    between atoms: N_8  and  C_9
REMARK    3  A    between atoms: C_9  and  C_10
REMARK                            x       y       z     vdW  Elec       q    Type
REMARK                         _______ _______ _______ _____ _____    ______ ____
ROOT
ATOM      1  C   UNL     1      47.827   5.753  14.653  0.00  0.00    +0.000 A 
ATOM      2  C   UNL     1      47.284   6.143  13.435  0.00  0.00    +0.000 A 
ATOM      3  C   UNL     1      46.501   5.239  12.723  0.00  0.00    +0.000 A 
ATOM      4  C   UNL     1      46.268   3.961  13.224  0.00  0.00    +0.000 A 
ATOM      5  N   UNL     1      45.499   3.010  12.546  0.00  0.00    +0.000 N 
ATOM      6  N   UNL     1      46.806   3.566  14.398  0.00  0.00    +0.000 NA
ATOM      7  C   UNL     1      47.577   4.458  15.079  0.00  0.00    +0.000 A 
ATOM      8  H   UNL     1      45.393   2.191  13.135  0.00  0.00    +0.000 HD
ENDROOT
BRANCH   1  10
ATOM      9  N   UNL     1      48.139   7.865  15.807  0.00  0.00    +0.000 N 
ATOM     10  C   UNL     1      48.663   6.644  15.479  0.00  0.00    +0.000 C 
ATOM     11  O   UNL     1      49.764   6.297  15.884  0.00  0.00    +0.000 OA
ATOM     12  H   UNL     1      48.679   8.428  16.452  0.00  0.00    +0.000 HD
ATOM     13  H   UNL     1      47.159   8.086  15.701  0.00  0.00    +0.000 HD
ENDBRANCH   1  10
BRANCH   5  14
ATOM     14  C   UNL     1      44.492   3.326  11.523  0.00  0.00    +0.000 C 
ATOM     15  C   UNL     1      43.287   4.177  11.891  0.00  0.00    +0.000 C 
ATOM     16  C   UNL     1      43.104   2.711  11.688  0.00  0.00    +0.000 C 
BRANCH  14  17
ATOM     17  C   UNL     1      45.022   3.374  10.087  0.00  0.00    +0.000 A 
ATOM     18  C   UNL     1      45.258   4.602   9.439  0.00  0.00    +0.000 A 
ATOM     19  C   UNL     1      45.820   4.654   8.159  0.00  0.00    +0.000 A 
ATOM     20  C   UNL     1      46.133   3.474   7.501  0.00  0.00    +0.000 A 
ATOM     21  F   UNL     1      46.694   3.520   6.285  0.00  0.00    +0.000 F 
ATOM     22  C   UNL     1      45.885   2.246   8.090  0.00  0.00    +0.000 A 
ATOM     23  C   UNL     1      45.341   2.201   9.374  0.00  0.00    +0.000 A 
ENDBRANCH  14  17
ENDBRANCH   5  14
TORSDOF 3
ENDMDL
MODEL 3
REMARK VINA RESULT:    -7.012      4.092      6.348
REMARK INTER + INTRA:          -8.224
REMARK INTER:                  -7.807
REMARK INTRA:                  -0.416
REMARK UNBOUND:                 0.018
REMARK  Name = 
REMARK  3 active torsions:
REMARK  status: ('A' for Active; 'I' for Inactive)
REMARK    1  A    between atoms: C_2  and  C_4
REMARK    2  A    between atoms: N_8  and  C_9
REMARK    3  A    between atoms: C_9  and  C_10
REMARK                            x       y       z     vdW  Elec       q    Type
REMARK                         _______ _______ _______ _____ _____    ______ ____
ROOT
ATOM      1  C   UNL     1      48.773   7.429  13.448  0.00  0.00    +0.000 A 
ATOM      2  C   UNL     1      48.257   7.419  12.158  0.00  0.00    +0.000 A 
ATOM      3  C   UNL     1      47.198   6.565  11.860  0.00  0.00    +0.000 A 
ATOM      4  C   UNL     1      46.667   5.732  12.841  0.00  0.00    +0.000 A 
ATOM      5  N   UNL     1      45.613   4.848  12.594  0.00  0.00    +0.000 N 
ATOM      6  N   UNL     1      47.174   5.722  14.093  0.00  0.00    +0.000 NA
ATOM      7  C   UNL     1      48.215   6.555  14.367  0.00  0.00    +0.000 A 
ATOM      8  H   UNL     1      45.336   4.412  13.467  0.00  0.00    +0.000 HD
ENDROOT
BRANCH   1  10
ATOM      9  N   UNL     1      51.147   7.767  13.826  0.00  0.00    +0.000 N 
ATOM     10  C   UNL     1      49.888   8.304  13.857  0.00  0.00    +0.000 C 
ATOM     11  O   UNL     1      49.705   9.470  14.176  0.00  0.00    +0.000 OA
ATOM     12  H   UNL     1      51.912   8.402  14.015  0.00  0.00    +0.000 HD
ATOM     13  H   UNL     1      51.362   6.905  13.344  0.00  0.00    +0.000 HD
ENDBRANCH   1  10
BRANCH   5  14
ATOM     14  C   UNL     1      44.648   4.985  11.493  0.00  0.00    +0.000 C 
ATOM     15  C   UNL     1      43.802   6.244  11.388  0.00  0.00    +0.000 C 
ATOM     16  C   UNL     1      43.164   4.978  11.853  0.00  0.00    +0.000 C 
BRANCH  14  17
ATOM     17  C   UNL     1      45.017   4.230  10.213  0.00  0.00    +0.000 A 
ATOM     18  C   UNL     1      45.608   4.894   9.121  0.00  0.00    +0.000 A 
ATOM     19  C   UNL     1      46.024   4.197   7.982  0.00  0.00    +0.000 A 
ATOM     20  C   UNL     1      45.830   2.825   7.911  0.00  0.00    +0.000 A 
ATOM     21  F   UNL     1      46.248   2.149   6.833  0.00  0.00    +0.000 F 
ATOM     22  C   UNL     1      45.220   2.140   8.950  0.00  0.00    +0.000 A 
ATOM     23  C   UNL     1      44.825   2.839  10.091  0.00  0.00    +0.000 A 
ENDBRANCH  14  17
ENDBRANCH   5  14
TORSDOF 3
ENDMDL
MODEL 4
REMARK VINA RESULT:    -6.664      3.818      6.332
REMARK INTER + INTRA:          -7.815
REMARK INTER:                  -8.311
REMARK INTRA:                   0.496
REMARK UNBOUND:                 0.018
REMARK  Name = 
REMARK  3 active torsions:
REMARK  status: ('A' for Active; 'I' for Inactive)
REMARK    1  A    between atoms: C_2  and  C_4
REMARK    2  A    between atoms: N_8  and  C_9
REMARK    3  A    between atoms: C_9  and  C_10
REMARK                            x       y       z     vdW  Elec       q    Type
REMARK                         _______ _______ _______ _____ _____    ______ ____
ROOT
ATOM      1  C   UNL     1      46.917   7.853  12.984  0.00  0.00    +0.000 A 
ATOM      2  C   UNL     1      46.961   6.491  13.257  0.00  0.00    +0.000 A 
ATOM      3  C   UNL     1      46.064   5.643  12.611  0.00  0.00    +0.000 A 
ATOM      4  C   UNL     1      45.136   6.155  11.708  0.00  0.00    +0.000 A 
ATOM      5  N   UNL     1      44.206   5.351  11.042  0.00  0.00    +0.000 N 
ATOM      6  N   UNL     1      45.074   7.479  11.451  0.00  0.00    +0.000 NA
ATOM      7  C   UNL     1      45.951   8.297  12.096  0.00  0.00    +0.000 A 
ATOM      8  H   UNL     1      43.696   5.921  10.374  0.00  0.00    +0.000 HD
ENDROOT
BRANCH   1  10
ATOM      9  N   UNL     1      47.595   9.143  14.925  0.00  0.00    +0.000 N 
ATOM     10  C   UNL     1      47.830   8.824  13.615  0.00  0.00    +0.000 C 
ATOM     11  O   UNL     1      48.779   9.300  13.007  0.00  0.00    +0.000 OA
ATOM     12  H   UNL     1      48.283   9.735  15.374  0.00  0.00    +0.000 HD
ATOM     13  H   UNL     1      46.987   8.599  15.520  0.00  0.00    +0.000 HD
ENDBRANCH   1  10
BRANCH   5  14
ATOM     14  C   UNL     1      44.356   3.905  10.823  0.00  0.00    +0.000 C 
ATOM     15  C   UNL     1      43.293   2.952  11.346  0.00  0.00    +0.000 C 
ATOM     16  C   UNL     1      44.606   3.030  12.048  0.00  0.00    +0.000 C 
BRANCH  14  17
ATOM     17  C   UNL     1      45.144   3.520   9.568  0.00  0.00    +0.000 A 
ATOM     18  C   UNL     1      45.337   2.171   9.215  0.00  0.00    +0.000 A 
ATOM     19  C   UNL     1      45.984   1.814   8.027  0.00  0.00    +0.000 A 
ATOM     20  C   UNL     1      46.469   2.806   7.187  0.00  0.00    +0.000 A 
ATOM     21  F   UNL     1      47.068   2.469   6.037  0.00  0.00    +0.000 F 
ATOM     22  C   UNL     1      46.330   4.144   7.516  0.00  0.00    +0.000 A 
ATOM     23  C   UNL     1      45.667   4.494   8.693  0.00  0.00    +0.000 A 
ENDBRANCH  14  17
ENDBRANCH   5  14
TORSDOF 3
ENDMDL
MODEL 5
REMARK VINA RESULT:    -6.242      4.560      6.900
REMARK INTER + INTRA:          -7.318
REMARK INTER:                  -6.847
REMARK INTRA:                  -0.471
REMARK UNBOUND:                 0.018
REMARK  Name = 
REMARK  3 active torsions:
REMARK  status: ('A' for Active; 'I' for Inactive)
REMARK    1  A    between atoms: C_2  and  C_4
REMARK    2  A    between atoms: N_8  and  C_9
REMARK    3  A    between atoms: C_9  and  C_10
REMARK                            x       y       z     vdW  Elec       q    Type
REMARK                         _______ _______ _______ _____ _____    ______ ____
ROOT
ATOM      1  C   UNL     1      48.396   3.878  17.036  0.00  0.00    +0.000 A 
ATOM      2  C   UNL     1      47.949   5.118  16.594  0.00  0.00    +0.000 A 
ATOM      3  C   UNL     1      47.349   5.213  15.341  0.00  0.00    +0.000 A 
ATOM      4  C   UNL     1      47.201   4.082  14.543  0.00  0.00    +0.000 A 
ATOM      5  N   UNL     1      46.617   4.123  13.273  0.00  0.00    +0.000 N 
ATOM      6  N   UNL     1      47.648   2.876  14.957  0.00  0.00    +0.000 NA
ATOM      7  C   UNL     1      48.241   2.800  16.179  0.00  0.00    +0.000 A 
ATOM      8  H   UNL     1      46.536   3.176  12.917  0.00  0.00    +0.000 HD
ENDROOT
BRANCH   1  10
ATOM      9  N   UNL     1      48.284   3.092  19.329  0.00  0.00    +0.000 N 
ATOM     10  C   UNL     1      49.037   3.681  18.349  0.00  0.00    +0.000 C 
ATOM     11  O   UNL     1      50.202   3.995  18.548  0.00  0.00    +0.000 OA
ATOM     12  H   UNL     1      48.762   2.874  20.195  0.00  0.00    +0.000 HD
ATOM     13  H   UNL     1      47.420   2.606  19.138  0.00  0.00    +0.000 HD
ENDBRANCH   1  10
BRANCH   5  14
ATOM     14  C   UNL     1      45.698   5.172  12.809  0.00  0.00    +0.000 C 
ATOM     15  C   UNL     1      44.234   5.123  13.214  0.00  0.00    +0.000 C 
ATOM     16  C   UNL     1      44.612   4.769  11.816  0.00  0.00    +0.000 C 
BRANCH  14  17
ATOM     17  C   UNL     1      46.351   6.533  12.552  0.00  0.00    +0.000 A 
ATOM     18  C   UNL     1      45.713   7.730  12.934  0.00  0.00    +0.000 A 
ATOM     19  C   UNL     1      46.340   8.971  12.778  0.00  0.00    +0.000 A 
ATOM     20  C   UNL     1      47.606   9.033  12.214  0.00  0.00    +0.000 A 
ATOM     21  F   UNL     1      48.220  10.216  12.085  0.00  0.00    +0.000 F 
ATOM     22  C   UNL     1      48.252   7.881  11.795  0.00  0.00    +0.000 A 
ATOM     23  C   UNL     1      47.630   6.645  11.970  0.00  0.00    +0.000 A 
ENDBRANCH  14  17
ENDBRANCH   5  14
TORSDOF 3
ENDMDL
MODEL 6
REMARK VINA RESULT:    -6.060      2.631      3.419
REMARK INTER + INTRA:          -7.104
REMARK INTER:                  -6.709
REMARK INTRA:                  -0.395
REMARK UNBOUND:                 0.018
REMARK  Name = 
REMARK  3 active torsions:
REMARK  status: ('A' for Active; 'I' for Inactive)
REMARK    1  A    between atoms: C_2  and  C_4
REMARK    2  A    between atoms: N_8  and  C_9
REMARK    3  A    between atoms: C_9  and  C_10
REMARK                            x       y       z     vdW  Elec       q    Type
REMARK                         _______ _______ _______ _____ _____    ______ ____
ROOT
ATOM      1  C   UNL     1      46.089   3.385   7.580  0.00  0.00    +0.000 A 
ATOM      2  C   UNL     1      46.591   4.600   8.031  0.00  0.00    +0.000 A 
ATOM      3  C   UNL     1      46.013   5.198   9.148  0.00  0.00    +0.000 A 
ATOM      4  C   UNL     1      44.945   4.587   9.800  0.00  0.00    +0.000 A 
ATOM      5  N   UNL     1      44.319   5.149  10.918  0.00  0.00    +0.000 N 
ATOM      6  N   UNL     1      44.438   3.416   9.358  0.00  0.00    +0.000 NA
ATOM      7  C   UNL     1      45.008   2.847   8.260  0.00  0.00    +0.000 A 
ATOM      8  H   UNL     1      43.632   4.494  11.275  0.00  0.00    +0.000 HD
ENDROOT
BRANCH   1  10
ATOM      9  N   UNL     1      46.997   3.436   5.330  0.00  0.00    +0.000 N 
ATOM     10  C   UNL     1      46.642   2.676   6.411  0.00  0.00    +0.000 C 
ATOM     11  O   UNL     1      46.811   1.464   6.417  0.00  0.00    +0.000 OA
ATOM     12  H   UNL     1      47.463   2.952   4.572  0.00  0.00    +0.000 HD
ATOM     13  H   UNL     1      47.101   4.440   5.377  0.00  0.00    +0.000 HD
ENDBRANCH   1  10
BRANCH   5  14
ATOM     14  C   UNL     1      44.937   6.140  11.811  0.00  0.00    +0.000 C 
ATOM     15  C   UNL     1      46.301   5.857  12.418  0.00  0.00    +0.000 C 
ATOM     16  C   UNL     1      45.090   5.761  13.282  0.00  0.00    +0.000 C 
BRANCH  14  17
ATOM     17  C   UNL     1      44.530   7.591  11.545  0.00  0.00    +0.000 A 
ATOM     18  C   UNL     1      45.398   8.658  11.848  0.00  0.00    +0.000 A 
ATOM     19  C   UNL     1      45.068   9.980  11.531  0.00  0.00    +0.000 A 
ATOM     20  C   UNL     1      43.850  10.254  10.926  0.00  0.00    +0.000 A 
ATOM     21  F   UNL     1      43.539  11.515  10.598  0.00  0.00    +0.000 F 
ATOM     22  C   UNL     1      42.954   9.237  10.643  0.00  0.00    +0.000 A 
ATOM     23  C   UNL     1      43.297   7.918  10.945  0.00  0.00    +0.000 A 
ENDBRANCH  14  17
ENDBRANCH   5  14
TORSDOF 3
ENDMDL
MODEL 7
REMARK VINA RESULT:    -6.006      4.672      6.887
REMARK INTER + INTRA:          -7.041
REMARK INTER:                  -6.654
REMARK INTRA:                  -0.387
REMARK UNBOUND:                 0.018
REMARK  Name = 
REMARK  3 active torsions:
REMARK  status: ('A' for Active; 'I' for Inactive)
REMARK    1  A    between atoms: C_2  and  C_4
REMARK    2  A    between atoms: N_8  and  C_9
REMARK    3  A    between atoms: C_9  and  C_10
REMARK                            x       y       z     vdW  Elec       q    Type
REMARK                         _______ _______ _______ _____ _____    ______ ____
ROOT
ATOM      1  C   UNL     1      46.142   5.550  12.601  0.00  0.00    +0.000 A 
ATOM      2  C   UNL     1      46.268   4.472  13.468  0.00  0.00    +0.000 A 
ATOM      3  C   UNL     1      47.052   4.611  14.610  0.00  0.00    +0.000 A 
ATOM      4  C   UNL     1      47.703   5.813  14.876  0.00  0.00    +0.000 A 
ATOM      5  N   UNL     1      48.511   6.003  16.001  0.00  0.00    +0.000 N 
ATOM      6  N   UNL     1      47.601   6.861  14.030  0.00  0.00    +0.000 NA
ATOM      7  C   UNL     1      46.838   6.708  12.913  0.00  0.00    +0.000 A 
ATOM      8  H   UNL     1      48.806   6.974  16.035  0.00  0.00    +0.000 HD
ENDROOT
BRANCH   1  10
ATOM      9  N   UNL     1      44.672   6.643  11.008  0.00  0.00    +0.000 N 
ATOM     10  C   UNL     1      45.328   5.498  11.372  0.00  0.00    +0.000 C 
ATOM     11  O   UNL     1      45.267   4.487  10.686  0.00  0.00    +0.000 OA
ATOM     12  H   UNL     1      44.195   6.624  10.115  0.00  0.00    +0.000 HD
ATOM     13  H   UNL     1      44.889   7.547  11.403  0.00  0.00    +0.000 HD
ENDBRANCH   1  10
BRANCH   5  14
ATOM     14  C   UNL     1      48.427   5.209  17.235  0.00  0.00    +0.000 C 
ATOM     15  C   UNL     1      47.098   5.091  17.964  0.00  0.00    +0.000 C 
ATOM     16  C   UNL     1      48.166   5.959  18.539  0.00  0.00    +0.000 C 
BRANCH  14  17
ATOM     17  C   UNL     1      49.429   4.056  17.330  0.00  0.00    +0.000 A 
ATOM     18  C   UNL     1      49.061   2.740  16.987  0.00  0.00    +0.000 A 
ATOM     19  C   UNL     1      49.993   1.698  16.991  0.00  0.00    +0.000 A 
ATOM     20  C   UNL     1      51.305   1.954  17.364  0.00  0.00    +0.000 A 
ATOM     21  F   UNL     1      52.206   0.963  17.347  0.00  0.00    +0.000 F 
ATOM     22  C   UNL     1      51.698   3.227  17.742  0.00  0.00    +0.000 A 
ATOM     23  C   UNL     1      50.768   4.266  17.717  0.00  0.00    +0.000 A 
ENDBRANCH  14  17
ENDBRANCH   5  14
TORSDOF 3
ENDMDL
MODEL 8
REMARK VINA RESULT:    -5.680      4.269      6.275
REMARK INTER + INTRA:          -6.657
REMARK INTER:                  -6.712
REMARK INTRA:                   0.054
REMARK UNBOUND:                 0.018
REMARK  Name = 
REMARK  3 active torsions:
REMARK  status: ('A' for Active; 'I' for Inactive)
REMARK    1  A    between atoms: C_2  and  C_4
REMARK    2  A    between atoms: N_8  and  C_9
REMARK    3  A    between atoms: C_9  and  C_10
REMARK                            x       y       z     vdW  Elec       q    Type
REMARK                         _______ _______ _______ _____ _____    ______ ____
ROOT
ATOM      1  C   UNL     1      45.428   4.177  12.163  0.00  0.00    +0.000 A 
ATOM      2  C   UNL     1      46.116   3.262  12.952  0.00  0.00    +0.000 A 
ATOM      3  C   UNL     1      46.841   3.723  14.047  0.00  0.00    +0.000 A 
ATOM      4  C   UNL     1      46.878   5.083  14.345  0.00  0.00    +0.000 A 
ATOM      5  N   UNL     1      47.599   5.601  15.426  0.00  0.00    +0.000 N 
ATOM      6  N   UNL     1      46.228   5.982  13.575  0.00  0.00    +0.000 NA
ATOM      7  C   UNL     1      45.530   5.517  12.502  0.00  0.00    +0.000 A 
ATOM      8  H   UNL     1      47.411   6.596  15.501  0.00  0.00    +0.000 HD
ENDROOT
BRANCH   1  10
ATOM      9  N   UNL     1      44.787   2.501  10.530  0.00  0.00    +0.000 N 
ATOM     10  C   UNL     1      44.629   3.781  10.989  0.00  0.00    +0.000 C 
ATOM     11  O   UNL     1      43.833   4.548  10.466  0.00  0.00    +0.000 OA
ATOM     12  H   UNL     1      44.165   2.210   9.786  0.00  0.00    +0.000 HD
ATOM     13  H   UNL     1      45.239   1.777  11.071  0.00  0.00    +0.000 HD
ENDBRANCH   1  10
BRANCH   5  14
ATOM     14  C   UNL     1      48.001   4.829  16.610  0.00  0.00    +0.000 C 
ATOM     15  C   UNL     1      47.163   3.640  17.051  0.00  0.00    +0.000 C 
ATOM     16  C   UNL     1      47.098   4.904  17.839  0.00  0.00    +0.000 C 
BRANCH  14  17
ATOM     17  C   UNL     1      49.504   4.825  16.899  0.00  0.00    +0.000 A 
ATOM     18  C   UNL     1      50.298   5.961  16.646  0.00  0.00    +0.000 A 
ATOM     19  C   UNL     1      51.654   5.993  16.984  0.00  0.00    +0.000 A 
ATOM     20  C   UNL     1      52.242   4.876  17.560  0.00  0.00    +0.000 A 
ATOM     21  F   UNL     1      53.535   4.910  17.908  0.00  0.00    +0.000 F 
ATOM     22  C   UNL     1      51.504   3.727  17.794  0.00  0.00    +0.000 A 
ATOM     23  C   UNL     1      50.147   3.709  17.471  0.00  0.00    +0.000 A 
ENDBRANCH  14  17
ENDBRANCH   5  14
TORSDOF 3
ENDMDL
MODEL 9
REMARK VINA RESULT:    -5.626      3.758      5.650
REMARK INTER + INTRA:          -6.594
REMARK INTER:                  -6.048
REMARK INTRA:                  -0.546
REMARK UNBOUND:                 0.018
REMARK  Name = 
REMARK  3 active torsions:
REMARK  status: ('A' for Active; 'I' for Inactive)
REMARK    1  A    between atoms: C_2  and  C_4
REMARK    2  A    between atoms: N_8  and  C_9
REMARK    3  A    between atoms: C_9  and  C_10
REMARK                            x       y       z     vdW  Elec       q    Type
REMARK                         _______ _______ _______ _____ _____    ______ ____
ROOT
ATOM      1  C   UNL     1      44.664   5.554  10.964  0.00  0.00    +0.000 A 
ATOM      2  C   UNL     1      46.049   5.469  11.033  0.00  0.00    +0.000 A 
ATOM      3  C   UNL     1      46.756   6.473  11.688  0.00  0.00    +0.000 A 
ATOM      4  C   UNL     1      46.084   7.548  12.263  0.00  0.00    +0.000 A 
ATOM      5  N   UNL     1      46.745   8.590  12.922  0.00  0.00    +0.000 N 
ATOM      6  N   UNL     1      44.739   7.649  12.185  0.00  0.00    +0.000 NA
ATOM      7  C   UNL     1      44.062   6.664  11.534  0.00  0.00    +0.000 A 
ATOM      8  H   UNL     1      46.055   9.210  13.333  0.00  0.00    +0.000 HD
ENDROOT
BRANCH   1  10
ATOM      9  N   UNL     1      43.967   4.408   8.941  0.00  0.00    +0.000 N 
ATOM     10  C   UNL     1      43.832   4.535  10.297  0.00  0.00    +0.000 C 
ATOM     11  O   UNL     1      43.078   3.808  10.929  0.00  0.00    +0.000 OA
ATOM     12  H   UNL     1      43.464   3.644   8.508  0.00  0.00    +0.000 HD
ATOM     13  H   UNL     1      44.739   4.810   8.428  0.00  0.00    +0.000 HD
ENDBRANCH   1  10
BRANCH   5  14
ATOM     14  C   UNL     1      48.093   8.491  13.499  0.00  0.00    +0.000 C 
ATOM     15  C   UNL     1      48.365   7.485  14.606  0.00  0.00    +0.000 C 
ATOM     16  C   UNL     1      48.272   8.934  14.949  0.00  0.00    +0.000 C 
BRANCH  14  17
ATOM     17  C   UNL     1      49.231   8.874  12.549  0.00  0.00    +0.000 A 
ATOM     18  C   UNL     1      50.214   7.937  12.174  0.00  0.00    +0.000 A 
ATOM     19  C   UNL     1      51.207   8.256  11.243  0.00  0.00    +0.000 A 
ATOM     20  C   UNL     1      51.245   9.528  10.692  0.00  0.00    +0.000 A 
ATOM     21  F   UNL     1      52.180   9.831   9.781  0.00  0.00    +0.000 F 
ATOM     22  C   UNL     1      50.318  10.489  11.060  0.00  0.00    +0.000 A 
ATOM     23  C   UNL     1      49.318  10.159  11.975  0.00  0.00    +0.000 A 
ENDBRANCH  14  17
ENDBRANCH   5  14
TORSDOF 3
ENDMDL
