MODEL 1
REMARK VINA RESULT:    -7.127      0.000      0.000
REMARK INTER + INTRA:         -11.013
REMARK INTER:                  -9.835
REMARK INTRA:                  -1.178
REMARK UNBOUND:                -1.178
REMARK  Name = 
REMARK  7 active torsions:
REMARK  status: ('A' for Active; 'I' for Inactive)
REMARK    1  A    between atoms: C_2  and  C_21
REMARK    2  A    between atoms: N_3  and  C_4
REMARK    3  A    between atoms: C_4  and  C_5
REMARK    4  A    between atoms: C_8  and  C_9
REMARK    5  A    between atoms: C_9  and  N_10
REMARK    6  A    between atoms: CA_15  and  C_16
REMARK    7  A    between atoms: C_16  and  O_17
REMARK                            x       y       z     vdW  Elec       q    Type
REMARK                         _______ _______ _______ _____ _____    ______ ____
ROOT
ATOM      1  C   UNL     1      47.188   8.184  13.342  0.00  0.00    +0.000 A 
ATOM      2  C   UNL     1      47.552   7.056  12.594  0.00  0.00    +0.000 A 
ATOM      3  C   UNL     1      46.694   6.543  11.618  0.00  0.00    +0.000 A 
ATOM      4  C   UNL     1      45.464   7.158  11.352  0.00  0.00    +0.000 A 
ATOM      5  C   UNL     1      45.110   8.300  12.086  0.00  0.00    +0.000 A 
ATOM      6  C   UNL     1      45.969   8.813  13.064  0.00  0.00    +0.000 A 
ENDROOT
BRANCH   1   7
ATOM      7  C   UNL     1      48.096   8.699  14.427  0.00  0.00    +0.000 C 
BRANCH   7  10
ATOM      8  O   UNL     1      50.477   7.316  14.974  0.00  0.00    +0.000 OA
ATOM      9  C   UNL     1      49.498   7.108  15.685  0.00  0.00    +0.000 C 
ATOM     10  N   UNL     1      48.294   7.730  15.475  0.00  0.00    +0.000 N 
ATOM     11  H   UNL     1      47.557   7.648  16.165  0.00  0.00    +0.000 HD
BRANCH   9  12
ATOM     12  C   UNL     1      49.549   6.130  16.779  0.00  0.00    +0.000 A 
ATOM     13  C   UNL     1      50.454   6.313  17.818  0.00  0.00    +0.000 A 
ATOM     14  S   UNL     1      50.379   5.101  19.014  0.00  0.00    +0.000 S 
ATOM     15  C   UNL     1      49.111   4.306  18.205  0.00  0.00    +0.000 A 
ATOM     16  N   UNL     1      48.536   3.190  18.733  0.00  0.00    +0.000 NA
ATOM     17  C   UNL     1      47.559   2.710  18.037  0.00  0.00    +0.000 A 
ATOM     18  N   UNL     1      47.117   3.238  16.850  0.00  0.00    +0.000 N 
ATOM     19  C   UNL     1      47.723   4.310  16.238  0.00  0.00    +0.000 A 
ATOM     20  O   UNL     1      47.400   4.659  15.107  0.00  0.00    +0.000 OA
ATOM     21  C   UNL     1      48.779   4.929  17.015  0.00  0.00    +0.000 A 
ATOM     22  H   UNL     1      46.375   2.791  16.336  0.00  0.00    +0.000 HD
ENDBRANCH   9  12
ENDBRANCH   7  10
ENDBRANCH   1   7
BRANCH   4  23
ATOM     23  C   UNL     1      44.537   6.605  10.292  0.00  0.00    +0.000 C 
BRANCH  23  24
ATOM     24  N   UNL     1      44.082   5.273  10.669  0.00  0.00    +0.000 N 
ATOM     25  C   UNL     1      44.560   4.255   9.825  0.00  0.00    +0.000 A 
ATOM     26  C   UNL     1      44.175   2.944  10.082  0.00  0.00    +0.000 A 
ATOM     27  C   UNL     1      44.645   1.916   9.264  0.00  0.00    +0.000 A 
ATOM     28  C   UNL     1      45.494   2.224   8.208  0.00  0.00    +0.000 A 
ATOM     29  CA  UNL     1      45.845   3.554   8.011  0.00  0.00    +0.000 A 
ATOM     30  N   UNL     1      45.401   4.553   8.813  0.00  0.00    +0.000 NA
ATOM     31  H   UNL     1      43.069   5.220  10.720  0.00  0.00    +0.000 HD
BRANCH  29  32
ATOM     32  C   UNL     1      46.743   3.945   6.862  0.00  0.00    +0.000 C 
BRANCH  32  33
ATOM     33  O   UNL     1      47.893   3.106   6.786  0.00  0.00    +0.000 OA
ATOM     34  H   UNL     1      47.566   2.232   6.503  0.00  0.00    +0.000 HD
ENDBRANCH  32  33
ENDBRANCH  29  32
ENDBRANCH  23  24
ENDBRANCH   4  23
TORSDOF 7
ENDMDL
MODEL 2
REMARK VINA RESULT:    -7.029      1.480      2.284
REMARK INTER + INTRA:         -10.877
REMARK INTER:                  -9.881
REMARK INTRA:                  -0.997
REMARK UNBOUND:                -1.178
REMARK  Name = 
REMARK  7 active torsions:
REMARK  status: ('A' for Active; 'I' for Inactive)
REMARK    1  A    between atoms: C_2  and  C_21
REMARK    2  A    between atoms: N_3  and  C_4
REMARK    3  A    between atoms: C_4  and  C_5
REMARK    4  A    between atoms: C_8  and  C_9
REMARK    5  A    between atoms: C_9  and  N_10
REMARK    6  A    between atoms: CA_15  and  C_16
REMARK    7  A    between atoms: C_16  and  O_17
REMARK                            x       y       z     vdW  Elec       q    Type
REMARK                         _______ _______ _______ _____ _____    ______ ____
ROOT
ATOM      1  C   UNL     1      46.523   6.996  12.658  0.00  0.00    +0.000 A 
ATOM      2  C   UNL     1      46.795   7.194  11.298  0.00  0.00    +0.000 A 
ATOM      3  C   UNL     1      46.312   6.302  10.338  0.00  0.00    +0.000 A 
ATOM      4  C   UNL     1      45.526   5.204  10.715  0.00  0.00    +0.000 A 
ATOM      5  C   UNL     1      45.235   5.018  12.074  0.00  0.00    +0.000 A 
ATOM      6  C   UNL     1      45.720   5.912  13.035  0.00  0.00    +0.000 A 
ENDROOT
BRANCH   1   7
ATOM      7  C   UNL     1      47.091   7.934  13.691  0.00  0.00    +0.000 C 
BRANCH   7  10
ATOM      8  O   UNL     1      49.663   6.880  14.082  0.00  0.00    +0.000 OA
ATOM      9  C   UNL     1      48.835   6.764  14.981  0.00  0.00    +0.000 C 
ATOM     10  N   UNL     1      47.554   7.236  14.863  0.00  0.00    +0.000 N 
ATOM     11  H   UNL     1      46.946   7.254  15.674  0.00  0.00    +0.000 HD
BRANCH   9  12
ATOM     12  C   UNL     1      49.162   6.056  16.225  0.00  0.00    +0.000 A 
ATOM     13  C   UNL     1      50.178   6.539  17.040  0.00  0.00    +0.000 A 
ATOM     14  S   UNL     1      50.424   5.616  18.451  0.00  0.00    +0.000 S 
ATOM     15  C   UNL     1      49.158   4.556  18.042  0.00  0.00    +0.000 A 
ATOM     16  N   UNL     1      48.805   3.535  18.873  0.00  0.00    +0.000 NA
ATOM     17  C   UNL     1      47.802   2.832  18.461  0.00  0.00    +0.000 A 
ATOM     18  N   UNL     1      47.133   3.047  17.282  0.00  0.00    +0.000 N 
ATOM     19  C   UNL     1      47.510   4.009  16.375  0.00  0.00    +0.000 A 
ATOM     20  O   UNL     1      46.987   4.074  15.267  0.00  0.00    +0.000 OA
ATOM     21  C   UNL     1      48.585   4.872  16.824  0.00  0.00    +0.000 A 
ATOM     22  H   UNL     1      46.383   2.436  17.000  0.00  0.00    +0.000 HD
ENDBRANCH   9  12
ENDBRANCH   7  10
ENDBRANCH   1   7
BRANCH   4  23
ATOM     23  C   UNL     1      44.999   4.239   9.674  0.00  0.00    +0.000 C 
BRANCH  23  24
ATOM     24  N   UNL     1      45.446   4.639   8.347  0.00  0.00    +0.000 N 
ATOM     25  C   UNL     1      46.032   3.594   7.611  0.00  0.00    +0.000 A 
ATOM     26  C   UNL     1      46.511   3.868   6.335  0.00  0.00    +0.000 A 
ATOM     27  C   UNL     1      47.087   2.844   5.582  0.00  0.00    +0.000 A 
ATOM     28  C   UNL     1      47.168   1.567   6.124  0.00  0.00    +0.000 A 
ATOM     29  CA  UNL     1      46.664   1.360   7.402  0.00  0.00    +0.000 A 
ATOM     30  N   UNL     1      46.091   2.350   8.131  0.00  0.00    +0.000 NA
ATOM     31  H   UNL     1      46.089   5.425   8.386  0.00  0.00    +0.000 HD
BRANCH  29  32
ATOM     32  C   UNL     1      46.751  -0.002   8.048  0.00  0.00    +0.000 C 
BRANCH  32  33
ATOM     33  O   UNL     1      46.631  -1.047   7.085  0.00  0.00    +0.000 OA
ATOM     34  H   UNL     1      46.712  -0.616   6.214  0.00  0.00    +0.000 HD
ENDBRANCH  32  33
ENDBRANCH  29  32
ENDBRANCH  23  24
ENDBRANCH   4  23
TORSDOF 7
ENDMDL
MODEL 3
REMARK VINA RESULT:    -7.003      2.790      8.080
REMARK INTER + INTRA:         -10.843
REMARK INTER:                 -10.200
REMARK INTRA:                  -0.643
REMARK UNBOUND:                -1.178
REMARK  Name = 
REMARK  7 active torsions:
REMARK  status: ('A' for Active; 'I' for Inactive)
REMARK    1  A    between atoms: C_2  and  C_21
REMARK    2  A    between atoms: N_3  and  C_4
REMARK    3  A    between atoms: C_4  and  C_5
REMARK    4  A    between atoms: C_8  and  C_9
REMARK    5  A    between atoms: C_9  and  N_10
REMARK    6  A    between atoms: CA_15  and  C_16
REMARK    7  A    between atoms: C_16  and  O_17
REMARK                            x       y       z     vdW  Elec       q    Type
REMARK                         _______ _______ _______ _____ _____    ______ ____
ROOT
ATOM      1  C   UNL     1      48.302   7.980  13.125  0.00  0.00    +0.000 A 
ATOM      2  C   UNL     1      47.674   8.584  14.223  0.00  0.00    +0.000 A 
ATOM      3  C   UNL     1      48.287   8.586  15.479  0.00  0.00    +0.000 A 
ATOM      4  C   UNL     1      49.549   8.006  15.660  0.00  0.00    +0.000 A 
ATOM      5  C   UNL     1      50.186   7.421  14.555  0.00  0.00    +0.000 A 
ATOM      6  C   UNL     1      49.572   7.418  13.298  0.00  0.00    +0.000 A 
ENDROOT
BRANCH   1   7
ATOM      7  C   UNL     1      47.611   7.937  11.787  0.00  0.00    +0.000 C 
BRANCH   7  10
ATOM      8  O   UNL     1      44.865   7.496  12.164  0.00  0.00    +0.000 OA
ATOM      9  C   UNL     1      45.562   6.566  11.769  0.00  0.00    +0.000 C 
ATOM     10  N   UNL     1      46.913   6.694  11.576  0.00  0.00    +0.000 N 
ATOM     11  H   UNL     1      47.429   5.954  11.112  0.00  0.00    +0.000 HD
BRANCH   9  12
ATOM     12  C   UNL     1      44.988   5.235  11.533  0.00  0.00    +0.000 A 
ATOM     13  C   UNL     1      44.296   4.598  12.556  0.00  0.00    +0.000 A 
ATOM     14  S   UNL     1      43.680   3.070  12.119  0.00  0.00    +0.000 S 
ATOM     15  C   UNL     1      44.284   3.220  10.536  0.00  0.00    +0.000 A 
ATOM     16  N   UNL     1      44.059   2.249   9.607  0.00  0.00    +0.000 NA
ATOM     17  C   UNL     1      44.538   2.508   8.435  0.00  0.00    +0.000 A 
ATOM     18  N   UNL     1      45.240   3.643   8.115  0.00  0.00    +0.000 N 
ATOM     19  C   UNL     1      45.564   4.606   9.041  0.00  0.00    +0.000 A 
ATOM     20  O   UNL     1      46.321   5.529   8.756  0.00  0.00    +0.000 OA
ATOM     21  C   UNL     1      44.987   4.397  10.355  0.00  0.00    +0.000 A 
ATOM     22  H   UNL     1      45.622   3.765   7.191  0.00  0.00    +0.000 HD
ENDBRANCH   9  12
ENDBRANCH   7  10
ENDBRANCH   1   7
BRANCH   4  23
ATOM     23  C   UNL     1      50.214   8.012  17.020  0.00  0.00    +0.000 C 
BRANCH  23  24
ATOM     24  N   UNL     1      51.162   6.911  17.119  0.00  0.00    +0.000 N 
ATOM     25  C   UNL     1      50.551   5.656  17.295  0.00  0.00    +0.000 A 
ATOM     26  C   UNL     1      51.362   4.534  17.420  0.00  0.00    +0.000 A 
ATOM     27  C   UNL     1      50.779   3.278  17.585  0.00  0.00    +0.000 A 
ATOM     28  C   UNL     1      49.394   3.173  17.618  0.00  0.00    +0.000 A 
ATOM     29  CA  UNL     1      48.641   4.333  17.481  0.00  0.00    +0.000 A 
ATOM     30  N   UNL     1      49.206   5.554  17.306  0.00  0.00    +0.000 NA
ATOM     31  H   UNL     1      51.840   7.062  17.861  0.00  0.00    +0.000 HD
BRANCH  29  32
ATOM     32  C   UNL     1      47.133   4.278  17.537  0.00  0.00    +0.000 C 
BRANCH  32  33
ATOM     33  O   UNL     1      46.664   2.942  17.705  0.00  0.00    +0.000 OA
ATOM     34  H   UNL     1      45.755   3.020  18.047  0.00  0.00    +0.000 HD
ENDBRANCH  32  33
ENDBRANCH  29  32
ENDBRANCH  23  24
ENDBRANCH   4  23
TORSDOF 7
ENDMDL
MODEL 4
REMARK VINA RESULT:    -6.793      3.788      5.727
REMARK INTER + INTRA:         -10.553
REMARK INTER:                  -9.473
REMARK INTRA:                  -1.080
REMARK UNBOUND:                -1.178
REMARK  Name = 
REMARK  7 active torsions:
REMARK  status: ('A' for Active; 'I' for Inactive)
REMARK    1  A    between atoms: C_2  and  C_21
REMARK    2  A    between atoms: N_3  and  C_4
REMARK    3  A    between atoms: C_4  and  C_5
REMARK    4  A    between atoms: C_8  and  C_9
REMARK    5  A    between atoms: C_9  and  N_10
REMARK    6  A    between atoms: CA_15  and  C_16
REMARK    7  A    between atoms: C_16  and  O_17
REMARK                            x       y       z     vdW  Elec       q    Type
REMARK                         _______ _______ _______ _____ _____    ______ ____
ROOT
ATOM      1  C   UNL     1      49.014   4.714  18.334  0.00  0.00    +0.000 A 
ATOM      2  C   UNL     1      48.995   5.727  17.366  0.00  0.00    +0.000 A 
ATOM      3  C   UNL     1      48.273   5.565  16.181  0.00  0.00    +0.000 A 
ATOM      4  C   UNL     1      47.537   4.396  15.947  0.00  0.00    +0.000 A 
ATOM      5  C   UNL     1      47.539   3.391  16.925  0.00  0.00    +0.000 A 
ATOM      6  C   UNL     1      48.262   3.554  18.112  0.00  0.00    +0.000 A 
ENDROOT
BRANCH   1   7
ATOM      7  C   UNL     1      49.836   4.876  19.586  0.00  0.00    +0.000 C 
BRANCH   7  10
ATOM      8  O   UNL     1      52.384   5.604  18.659  0.00  0.00    +0.000 OA
ATOM      9  C   UNL     1      52.224   4.477  19.120  0.00  0.00    +0.000 C 
ATOM     10  N   UNL     1      51.009   4.038  19.577  0.00  0.00    +0.000 N 
ATOM     11  H   UNL     1      50.946   3.162  20.083  0.00  0.00    +0.000 HD
BRANCH   9  12
ATOM     12  C   UNL     1      53.327   3.509  19.154  0.00  0.00    +0.000 A 
ATOM     13  C   UNL     1      54.495   3.828  19.837  0.00  0.00    +0.000 A 
ATOM     14  S   UNL     1      55.672   2.596  19.796  0.00  0.00    +0.000 S 
ATOM     15  C   UNL     1      54.650   1.577  18.895  0.00  0.00    +0.000 A 
ATOM     16  N   UNL     1      55.043   0.318  18.553  0.00  0.00    +0.000 NA
ATOM     17  C   UNL     1      54.156  -0.362  17.905  0.00  0.00    +0.000 A 
ATOM     18  N   UNL     1      52.918   0.111  17.551  0.00  0.00    +0.000 N 
ATOM     19  C   UNL     1      52.514   1.402  17.799  0.00  0.00    +0.000 A 
ATOM     20  O   UNL     1      51.465   1.837  17.335  0.00  0.00    +0.000 OA
ATOM     21  C   UNL     1      53.446   2.184  18.588  0.00  0.00    +0.000 A 
ATOM     22  H   UNL     1      52.288  -0.458  17.009  0.00  0.00    +0.000 HD
ENDBRANCH   9  12
ENDBRANCH   7  10
ENDBRANCH   1   7
BRANCH   4  23
ATOM     23  C   UNL     1      46.752   4.223  14.664  0.00  0.00    +0.000 C 
BRANCH  23  24
ATOM     24  N   UNL     1      46.393   5.523  14.116  0.00  0.00    +0.000 N 
ATOM     25  C   UNL     1      45.423   5.458  13.100  0.00  0.00    +0.000 A 
ATOM     26  C   UNL     1      45.017   6.641  12.492  0.00  0.00    +0.000 A 
ATOM     27  C   UNL     1      44.047   6.602  11.490  0.00  0.00    +0.000 A 
ATOM     28  C   UNL     1      43.504   5.378  11.120  0.00  0.00    +0.000 A 
ATOM     29  CA  UNL     1      43.949   4.234  11.772  0.00  0.00    +0.000 A 
ATOM     30  N   UNL     1      44.881   4.271  12.757  0.00  0.00    +0.000 NA
ATOM     31  H   UNL     1      47.207   6.026  13.772  0.00  0.00    +0.000 HD
BRANCH  29  32
ATOM     32  C   UNL     1      43.410   2.877  11.389  0.00  0.00    +0.000 C 
BRANCH  32  33
ATOM     33  O   UNL     1      43.446   1.970  12.488  0.00  0.00    +0.000 OA
ATOM     34  H   UNL     1      42.669   1.391  12.381  0.00  0.00    +0.000 HD
ENDBRANCH  32  33
ENDBRANCH  29  32
ENDBRANCH  23  24
ENDBRANCH   4  23
TORSDOF 7
ENDMDL
MODEL 5
REMARK VINA RESULT:    -6.775      4.864      7.513
REMARK INTER + INTRA:         -10.528
REMARK INTER:                  -9.620
REMARK INTRA:                  -0.907
REMARK UNBOUND:                -1.178
REMARK  Name = 
REMARK  7 active torsions:
REMARK  status: ('A' for Active; 'I' for Inactive)
REMARK    1  A    between atoms: C_2  and  C_21
REMARK    2  A    between atoms: N_3  and  C_4
REMARK    3  A    between atoms: C_4  and  C_5
REMARK    4  A    between atoms: C_8  and  C_9
REMARK    5  A    between atoms: C_9  and  N_10
REMARK    6  A    between atoms: CA_15  and  C_16
REMARK    7  A    between atoms: C_16  and  O_17
REMARK                            x       y       z     vdW  Elec       q    Type
REMARK                         _______ _______ _______ _____ _____    ______ ____
ROOT
ATOM      1  C   UNL     1      47.882   8.374  12.304  0.00  0.00    +0.000 A 
ATOM      2  C   UNL     1      48.771   7.292  12.357  0.00  0.00    +0.000 A 
ATOM      3  C   UNL     1      50.103   7.446  11.968  0.00  0.00    +0.000 A 
ATOM      4  C   UNL     1      50.583   8.691  11.539  0.00  0.00    +0.000 A 
ATOM      5  C   UNL     1      49.698   9.780  11.507  0.00  0.00    +0.000 A 
ATOM      6  C   UNL     1      48.363   9.623  11.896  0.00  0.00    +0.000 A 
ENDROOT
BRANCH   1   7
ATOM      7  C   UNL     1      46.434   8.185  12.677  0.00  0.00    +0.000 C 
BRANCH   7  10
ATOM      8  O   UNL     1      44.126   7.515  11.228  0.00  0.00    +0.000 OA
ATOM      9  C   UNL     1      44.835   6.610  11.658  0.00  0.00    +0.000 C 
ATOM     10  N   UNL     1      45.969   6.852  12.389  0.00  0.00    +0.000 N 
ATOM     11  H   UNL     1      46.606   6.092  12.599  0.00  0.00    +0.000 HD
BRANCH   9  12
ATOM     12  C   UNL     1      44.472   5.202  11.456  0.00  0.00    +0.000 A 
ATOM     13  C   UNL     1      43.757   4.532  12.442  0.00  0.00    +0.000 A 
ATOM     14  S   UNL     1      43.401   2.912  12.050  0.00  0.00    +0.000 S 
ATOM     15  C   UNL     1      44.160   3.056  10.534  0.00  0.00    +0.000 A 
ATOM     16  N   UNL     1      44.172   2.013   9.658  0.00  0.00    +0.000 NA
ATOM     17  C   UNL     1      44.746   2.270   8.528  0.00  0.00    +0.000 A 
ATOM     18  N   UNL     1      45.324   3.472   8.205  0.00  0.00    +0.000 N 
ATOM     19  C   UNL     1      45.410   4.521   9.090  0.00  0.00    +0.000 A 
ATOM     20  O   UNL     1      46.066   5.522   8.824  0.00  0.00    +0.000 OA
ATOM     21  C   UNL     1      44.718   4.307  10.346  0.00  0.00    +0.000 A 
ATOM     22  H   UNL     1      45.791   3.594   7.321  0.00  0.00    +0.000 HD
ENDBRANCH   9  12
ENDBRANCH   7  10
ENDBRANCH   1   7
BRANCH   4  23
ATOM     23  C   UNL     1      52.028   8.860  11.120  0.00  0.00    +0.000 C 
BRANCH  23  24
ATOM     24  N   UNL     1      52.715   7.576  11.163  0.00  0.00    +0.000 N 
ATOM     25  C   UNL     1      53.054   7.077   9.893  0.00  0.00    +0.000 A 
ATOM     26  C   UNL     1      53.700   5.847   9.814  0.00  0.00    +0.000 A 
ATOM     27  C   UNL     1      54.056   5.336   8.566  0.00  0.00    +0.000 A 
ATOM     28  C   UNL     1      53.760   6.070   7.423  0.00  0.00    +0.000 A 
ATOM     29  CA  UNL     1      53.120   7.295   7.573  0.00  0.00    +0.000 A 
ATOM     30  N   UNL     1      52.785   7.800   8.787  0.00  0.00    +0.000 NA
ATOM     31  H   UNL     1      52.177   6.876  11.667  0.00  0.00    +0.000 HD
BRANCH  29  32
ATOM     32  C   UNL     1      52.751   8.119   6.363  0.00  0.00    +0.000 C 
BRANCH  32  33
ATOM     33  O   UNL     1      53.412   7.650   5.190  0.00  0.00    +0.000 OA
ATOM     34  H   UNL     1      53.793   8.440   4.765  0.00  0.00    +0.000 HD
ENDBRANCH  32  33
ENDBRANCH  29  32
ENDBRANCH  23  24
ENDBRANCH   4  23
TORSDOF 7
ENDMDL
MODEL 6
REMARK VINA RESULT:    -6.726      3.757      8.629
REMARK INTER + INTRA:         -10.460
REMARK INTER:                  -9.364
REMARK INTRA:                  -1.096
REMARK UNBOUND:                -1.178
REMARK  Name = 
REMARK  7 active torsions:
REMARK  status: ('A' for Active; 'I' for Inactive)
REMARK    1  A    between atoms: C_2  and  C_21
REMARK    2  A    between atoms: N_3  and  C_4
REMARK    3  A    between atoms: C_4  and  C_5
REMARK    4  A    between atoms: C_8  and  C_9
REMARK    5  A    between atoms: C_9  and  N_10
REMARK    6  A    between atoms: CA_15  and  C_16
REMARK    7  A    between atoms: C_16  and  O_17
REMARK                            x       y       z     vdW  Elec       q    Type
REMARK                         _______ _______ _______ _____ _____    ______ ____
ROOT
ATOM      1  C   UNL     1      48.952   6.633  15.377  0.00  0.00    +0.000 A 
ATOM      2  C   UNL     1      48.201   5.595  15.946  0.00  0.00    +0.000 A 
ATOM      3  C   UNL     1      48.742   4.801  16.960  0.00  0.00    +0.000 A 
ATOM      4  C   UNL     1      50.035   5.041  17.444  0.00  0.00    +0.000 A 
ATOM      5  C   UNL     1      50.777   6.094  16.889  0.00  0.00    +0.000 A 
ATOM      6  C   UNL     1      50.235   6.888  15.873  0.00  0.00    +0.000 A 
ENDROOT
BRANCH   1   7
ATOM      7  C   UNL     1      48.380   7.451  14.248  0.00  0.00    +0.000 C 
BRANCH   7  10
ATOM      8  O   UNL     1      47.629   7.172  11.558  0.00  0.00    +0.000 OA
ATOM      9  C   UNL     1      46.850   6.796  12.429  0.00  0.00    +0.000 C 
ATOM     10  N   UNL     1      47.134   6.913  13.765  0.00  0.00    +0.000 N 
ATOM     11  H   UNL     1      46.537   6.461  14.449  0.00  0.00    +0.000 HD
BRANCH   9  12
ATOM     12  C   UNL     1      45.534   6.246  12.083  0.00  0.00    +0.000 A 
ATOM     13  C   UNL     1      44.572   7.076  11.521  0.00  0.00    +0.000 A 
ATOM     14  S   UNL     1      43.106   6.283  11.163  0.00  0.00    +0.000 S 
ATOM     15  C   UNL     1      43.715   4.794  11.713  0.00  0.00    +0.000 A 
ATOM     16  N   UNL     1      42.962   3.661  11.641  0.00  0.00    +0.000 NA
ATOM     17  C   UNL     1      43.560   2.593  12.056  0.00  0.00    +0.000 A 
ATOM     18  N   UNL     1      44.838   2.561  12.553  0.00  0.00    +0.000 N 
ATOM     19  C   UNL     1      45.601   3.691  12.724  0.00  0.00    +0.000 A 
ATOM     20  O   UNL     1      46.677   3.646  13.312  0.00  0.00    +0.000 OA
ATOM     21  C   UNL     1      45.002   4.906  12.207  0.00  0.00    +0.000 A 
ATOM     22  H   UNL     1      45.232   1.699  12.898  0.00  0.00    +0.000 HD
ENDBRANCH   9  12
ENDBRANCH   7  10
ENDBRANCH   1   7
BRANCH   4  23
ATOM     23  C   UNL     1      50.618   4.182  18.546  0.00  0.00    +0.000 C 
BRANCH  23  24
ATOM     24  N   UNL     1      50.673   2.790  18.121  0.00  0.00    +0.000 N 
ATOM     25  C   UNL     1      51.978   2.330  17.866  0.00  0.00    +0.000 A 
ATOM     26  C   UNL     1      52.147   1.018  17.438  0.00  0.00    +0.000 A 
ATOM     27  C   UNL     1      53.433   0.536  17.189  0.00  0.00    +0.000 A 
ATOM     28  C   UNL     1      54.521   1.379  17.378  0.00  0.00    +0.000 A 
ATOM     29  CA  UNL     1      54.282   2.677  17.815  0.00  0.00    +0.000 A 
ATOM     30  N   UNL     1      53.035   3.144  18.071  0.00  0.00    +0.000 NA
ATOM     31  H   UNL     1      50.092   2.621  17.305  0.00  0.00    +0.000 HD
BRANCH  29  32
ATOM     32  C   UNL     1      55.427   3.641  18.010  0.00  0.00    +0.000 C 
BRANCH  32  33
ATOM     33  O   UNL     1      54.993   4.996  17.917  0.00  0.00    +0.000 OA
ATOM     34  H   UNL     1      55.805   5.534  17.872  0.00  0.00    +0.000 HD
ENDBRANCH  32  33
ENDBRANCH  29  32
ENDBRANCH  23  24
ENDBRANCH   4  23
TORSDOF 7
ENDMDL
MODEL 7
REMARK VINA RESULT:    -6.723      4.681      9.550
REMARK INTER + INTRA:         -10.455
REMARK INTER:                  -9.695
REMARK INTRA:                  -0.760
REMARK UNBOUND:                -1.178
REMARK  Name = 
REMARK  7 active torsions:
REMARK  status: ('A' for Active; 'I' for Inactive)
REMARK    1  A    between atoms: C_2  and  C_21
REMARK    2  A    between atoms: N_3  and  C_4
REMARK    3  A    between atoms: C_4  and  C_5
REMARK    4  A    between atoms: C_8  and  C_9
REMARK    5  A    between atoms: C_9  and  N_10
REMARK    6  A    between atoms: CA_15  and  C_16
REMARK    7  A    between atoms: C_16  and  O_17
REMARK                            x       y       z     vdW  Elec       q    Type
REMARK                         _______ _______ _______ _____ _____    ______ ____
ROOT
ATOM      1  C   UNL     1      48.866   3.229  17.390  0.00  0.00    +0.000 A 
ATOM      2  C   UNL     1      49.457   4.270  18.119  0.00  0.00    +0.000 A 
ATOM      3  C   UNL     1      50.803   4.206  18.486  0.00  0.00    +0.000 A 
ATOM      4  C   UNL     1      51.594   3.111  18.114  0.00  0.00    +0.000 A 
ATOM      5  C   UNL     1      51.008   2.080  17.365  0.00  0.00    +0.000 A 
ATOM      6  C   UNL     1      49.660   2.145  16.998  0.00  0.00    +0.000 A 
ENDROOT
BRANCH   1   7
ATOM      7  C   UNL     1      47.401   3.283  17.043  0.00  0.00    +0.000 C 
BRANCH   7  10
ATOM      8  O   UNL     1      47.408   2.991  14.251  0.00  0.00    +0.000 OA
ATOM      9  C   UNL     1      47.119   4.085  14.728  0.00  0.00    +0.000 C 
ATOM     10  N   UNL     1      47.110   4.314  16.080  0.00  0.00    +0.000 N 
ATOM     11  H   UNL     1      46.727   5.181  16.441  0.00  0.00    +0.000 HD
BRANCH   9  12
ATOM     12  C   UNL     1      46.820   5.233  13.864  0.00  0.00    +0.000 A 
ATOM     13  C   UNL     1      47.779   6.223  13.686  0.00  0.00    +0.000 A 
ATOM     14  S   UNL     1      47.284   7.478  12.644  0.00  0.00    +0.000 S 
ATOM     15  C   UNL     1      45.783   6.727  12.366  0.00  0.00    +0.000 A 
ATOM     16  N   UNL     1      44.877   7.273  11.508  0.00  0.00    +0.000 NA
ATOM     17  C   UNL     1      43.797   6.580  11.358  0.00  0.00    +0.000 A 
ATOM     18  N   UNL     1      43.535   5.398  12.003  0.00  0.00    +0.000 N 
ATOM     19  C   UNL     1      44.382   4.856  12.940  0.00  0.00    +0.000 A 
ATOM     20  O   UNL     1      44.048   3.883  13.608  0.00  0.00    +0.000 OA
ATOM     21  C   UNL     1      45.641   5.559  13.092  0.00  0.00    +0.000 A 
ATOM     22  H   UNL     1      42.654   4.927  11.872  0.00  0.00    +0.000 HD
ENDBRANCH   9  12
ENDBRANCH   7  10
ENDBRANCH   1   7
BRANCH   4  23
ATOM     23  C   UNL     1      53.054   3.044  18.508  0.00  0.00    +0.000 C 
BRANCH  23  24
ATOM     24  N   UNL     1      53.881   2.810  17.332  0.00  0.00    +0.000 N 
ATOM     25  C   UNL     1      54.406   1.507  17.263  0.00  0.00    +0.000 A 
ATOM     26  C   UNL     1      55.225   1.177  16.189  0.00  0.00    +0.000 A 
ATOM     27  C   UNL     1      55.748  -0.113  16.093  0.00  0.00    +0.000 A 
ATOM     28  C   UNL     1      55.436  -1.045  17.074  0.00  0.00    +0.000 A 
ATOM     29  CA  UNL     1      54.606  -0.652  18.118  0.00  0.00    +0.000 A 
ATOM     30  N   UNL     1      54.085   0.597  18.206  0.00  0.00    +0.000 NA
ATOM     31  H   UNL     1      54.640   3.482  17.264  0.00  0.00    +0.000 HD
BRANCH  29  32
ATOM     32  C   UNL     1      54.258  -1.619  19.224  0.00  0.00    +0.000 C 
BRANCH  32  33
ATOM     33  O   UNL     1      52.869  -1.936  19.225  0.00  0.00    +0.000 OA
ATOM     34  H   UNL     1      52.449  -1.297  18.620  0.00  0.00    +0.000 HD
ENDBRANCH  32  33
ENDBRANCH  29  32
ENDBRANCH  23  24
ENDBRANCH   4  23
TORSDOF 7
ENDMDL
MODEL 8
REMARK VINA RESULT:    -6.600      1.970      2.535
REMARK INTER + INTRA:         -10.286
REMARK INTER:                  -9.168
REMARK INTRA:                  -1.117
REMARK UNBOUND:                -1.178
REMARK  Name = 
REMARK  7 active torsions:
REMARK  status: ('A' for Active; 'I' for Inactive)
REMARK    1  A    between atoms: C_2  and  C_21
REMARK    2  A    between atoms: N_3  and  C_4
REMARK    3  A    between atoms: C_4  and  C_5
REMARK    4  A    between atoms: C_8  and  C_9
REMARK    5  A    between atoms: C_9  and  N_10
REMARK    6  A    between atoms: CA_15  and  C_16
REMARK    7  A    between atoms: C_16  and  O_17
REMARK                            x       y       z     vdW  Elec       q    Type
REMARK                         _______ _______ _______ _____ _____    ______ ____
ROOT
ATOM      1  C   UNL     1      48.208   8.134  13.808  0.00  0.00    +0.000 A 
ATOM      2  C   UNL     1      48.262   6.876  13.192  0.00  0.00    +0.000 A 
ATOM      3  C   UNL     1      47.203   6.427  12.399  0.00  0.00    +0.000 A 
ATOM      4  C   UNL     1      46.078   7.234  12.185  0.00  0.00    +0.000 A 
ATOM      5  C   UNL     1      46.035   8.502  12.783  0.00  0.00    +0.000 A 
ATOM      6  C   UNL     1      47.095   8.951  13.578  0.00  0.00    +0.000 A 
ENDROOT
BRANCH   1   7
ATOM      7  C   UNL     1      49.332   8.589  14.703  0.00  0.00    +0.000 C 
BRANCH   7  10
ATOM      8  O   UNL     1      47.970   9.317  17.047  0.00  0.00    +0.000 OA
ATOM      9  C   UNL     1      48.643   8.291  17.051  0.00  0.00    +0.000 C 
ATOM     10  N   UNL     1      49.351   7.875  15.954  0.00  0.00    +0.000 N 
ATOM     11  H   UNL     1      49.773   6.953  15.946  0.00  0.00    +0.000 HD
BRANCH   9  12
ATOM     12  C   UNL     1      48.770   7.473  18.264  0.00  0.00    +0.000 A 
ATOM     13  C   UNL     1      48.947   8.097  19.493  0.00  0.00    +0.000 A 
ATOM     14  S   UNL     1      49.063   7.012  20.803  0.00  0.00    +0.000 S 
ATOM     15  C   UNL     1      48.845   5.671  19.779  0.00  0.00    +0.000 A 
ATOM     16  N   UNL     1      48.795   4.407  20.285  0.00  0.00    +0.000 NA
ATOM     17  C   UNL     1      48.585   3.485  19.404  0.00  0.00    +0.000 A 
ATOM     18  N   UNL     1      48.439   3.714  18.059  0.00  0.00    +0.000 N 
ATOM     19  C   UNL     1      48.568   4.961  17.496  0.00  0.00    +0.000 A 
ATOM     20  O   UNL     1      48.584   5.108  16.278  0.00  0.00    +0.000 OA
ATOM     21  C   UNL     1      48.732   6.040  18.451  0.00  0.00    +0.000 A 
ATOM     22  H   UNL     1      48.317   2.945  17.419  0.00  0.00    +0.000 HD
ENDBRANCH   9  12
ENDBRANCH   7  10
ENDBRANCH   1   7
BRANCH   4  23
ATOM     23  C   UNL     1      44.933   6.749  11.322  0.00  0.00    +0.000 C 
BRANCH  23  24
ATOM     24  N   UNL     1      45.437   6.274  10.041  0.00  0.00    +0.000 N 
ATOM     25  C   UNL     1      45.151   4.920   9.790  0.00  0.00    +0.000 A 
ATOM     26  C   UNL     1      45.601   4.355   8.602  0.00  0.00    +0.000 A 
ATOM     27  C   UNL     1      45.320   3.016   8.326  0.00  0.00    +0.000 A 
ATOM     28  C   UNL     1      44.592   2.273   9.247  0.00  0.00    +0.000 A 
ATOM     29  CA  UNL     1      44.167   2.900  10.413  0.00  0.00    +0.000 A 
ATOM     30  N   UNL     1      44.426   4.205  10.676  0.00  0.00    +0.000 NA
ATOM     31  H   UNL     1      46.437   6.430   9.947  0.00  0.00    +0.000 HD
BRANCH  29  32
ATOM     32  C   UNL     1      43.396   2.131  11.458  0.00  0.00    +0.000 C 
BRANCH  32  33
ATOM     33  O   UNL     1      43.765   2.526  12.777  0.00  0.00    +0.000 OA
ATOM     34  H   UNL     1      43.913   3.489  12.735  0.00  0.00    +0.000 HD
ENDBRANCH  32  33
ENDBRANCH  29  32
ENDBRANCH  23  24
ENDBRANCH   4  23
TORSDOF 7
ENDMDL
MODEL 9
REMARK VINA RESULT:    -6.468      1.874      2.401
REMARK INTER + INTRA:         -10.104
REMARK INTER:                  -9.066
REMARK INTRA:                  -1.038
REMARK UNBOUND:                -1.178
REMARK  Name = 
REMARK  7 active torsions:
REMARK  status: ('A' for Active; 'I' for Inactive)
REMARK    1  A    between atoms: C_2  and  C_21
REMARK    2  A    between atoms: N_3  and  C_4
REMARK    3  A    between atoms: C_4  and  C_5
REMARK    4  A    between atoms: C_8  and  C_9
REMARK    5  A    between atoms: C_9  and  N_10
REMARK    6  A    between atoms: CA_15  and  C_16
REMARK    7  A    between atoms: C_16  and  O_17
REMARK                            x       y       z     vdW  Elec       q    Type
REMARK                         _______ _______ _______ _____ _____    ______ ____
ROOT
ATOM      1  C   UNL     1      49.084   8.221  12.767  0.00  0.00    +0.000 A 
ATOM      2  C   UNL     1      48.595   6.954  12.422  0.00  0.00    +0.000 A 
ATOM      3  C   UNL     1      47.245   6.774  12.112  0.00  0.00    +0.000 A 
ATOM      4  C   UNL     1      46.359   7.859  12.118  0.00  0.00    +0.000 A 
ATOM      5  C   UNL     1      46.854   9.131  12.442  0.00  0.00    +0.000 A 
ATOM      6  C   UNL     1      48.206   9.311  12.753  0.00  0.00    +0.000 A 
ENDROOT
BRANCH   1   7
ATOM      7  C   UNL     1      50.531   8.397  13.150  0.00  0.00    +0.000 C 
BRANCH   7  10
ATOM      8  O   UNL     1      50.438   9.403  15.769  0.00  0.00    +0.000 OA
ATOM      9  C   UNL     1      50.779   8.236  15.597  0.00  0.00    +0.000 C 
ATOM     10  N   UNL     1      50.866   7.674  14.350  0.00  0.00    +0.000 N 
ATOM     11  H   UNL     1      51.006   6.674  14.256  0.00  0.00    +0.000 HD
BRANCH   9  12
ATOM     12  C   UNL     1      51.168   7.386  16.730  0.00  0.00    +0.000 A 
ATOM     13  C   UNL     1      52.279   7.729  17.491  0.00  0.00    +0.000 A 
ATOM     14  S   UNL     1      52.589   6.652  18.775  0.00  0.00    +0.000 S 
ATOM     15  C   UNL     1      51.229   5.708  18.383  0.00  0.00    +0.000 A 
ATOM     16  N   UNL     1      50.887   4.627  19.138  0.00  0.00    +0.000 NA
ATOM     17  C   UNL     1      49.811   4.025  18.753  0.00  0.00    +0.000 A 
ATOM     18  N   UNL     1      49.056   4.396  17.669  0.00  0.00    +0.000 N 
ATOM     19  C   UNL     1      49.411   5.425  16.830  0.00  0.00    +0.000 A 
ATOM     20  O   UNL     1      48.800   5.632  15.787  0.00  0.00    +0.000 OA
ATOM     21  C   UNL     1      50.573   6.179  17.260  0.00  0.00    +0.000 A 
ATOM     22  H   UNL     1      48.248   3.858  17.399  0.00  0.00    +0.000 HD
ENDBRANCH   9  12
ENDBRANCH   7  10
ENDBRANCH   1   7
BRANCH   4  23
ATOM     23  C   UNL     1      44.897   7.664  11.778  0.00  0.00    +0.000 C 
BRANCH  23  24
ATOM     24  N   UNL     1      44.315   6.641  12.635  0.00  0.00    +0.000 N 
ATOM     25  C   UNL     1      44.132   5.404  11.991  0.00  0.00    +0.000 A 
ATOM     26  C   UNL     1      43.567   4.357  12.711  0.00  0.00    +0.000 A 
ATOM     27  C   UNL     1      43.386   3.118  12.097  0.00  0.00    +0.000 A 
ATOM     28  C   UNL     1      43.777   2.954  10.774  0.00  0.00    +0.000 A 
ATOM     29  CA  UNL     1      44.342   4.039  10.113  0.00  0.00    +0.000 A 
ATOM     30  N   UNL     1      44.533   5.240  10.713  0.00  0.00    +0.000 NA
ATOM     31  H   UNL     1      43.433   6.943  13.040  0.00  0.00    +0.000 HD
BRANCH  29  32
ATOM     32  C   UNL     1      44.760   3.921   8.667  0.00  0.00    +0.000 C 
BRANCH  32  33
ATOM     33  O   UNL     1      45.614   4.995   8.280  0.00  0.00    +0.000 OA
ATOM     34  H   UNL     1      46.524   4.663   8.387  0.00  0.00    +0.000 HD
ENDBRANCH  32  33
ENDBRANCH  29  32
ENDBRANCH  23  24
ENDBRANCH   4  23
TORSDOF 7
ENDMDL
