MODEL 1
REMARK VINA RESULT:    -8.071      0.000      0.000
REMARK INTER + INTRA:         -12.441
REMARK INTER:                 -11.373
REMARK INTRA:                  -1.068
REMARK UNBOUND:                -1.068
REMARK  Name = 
REMARK  7 active torsions:
REMARK  status: ('A' for Active; 'I' for Inactive)
REMARK    1  A    between atoms: C_2  and  C_19
REMARK    2  A    between atoms: N_3  and  C_4
REMARK    3  A    between atoms: C_4  and  C_5
REMARK    4  A    between atoms: C_8  and  C_9
REMARK    5  A    between atoms: C_9  and  N_10
REMARK    6  A    between atoms: N_10  and  C_11
REMARK    7  A    between atoms: C_11  and  C_12
REMARK                            x       y       z     vdW  Elec       q    Type
REMARK                         _______ _______ _______ _____ _____    ______ ____
ROOT
ATOM      1  C   UNL     1      46.516   7.445  12.741  0.00  0.00    +0.000 C 
ENDROOT
BRANCH   1   2
ATOM      2  C   UNL     1      45.919   6.285  12.004  0.00  0.00    +0.000 A 
ATOM      3  C   UNL     1      45.929   6.218  10.611  0.00  0.00    +0.000 A 
ATOM      4  C   UNL     1      45.363   5.119   9.964  0.00  0.00    +0.000 A 
ATOM      5  C   UNL     1      44.774   4.112  10.728  0.00  0.00    +0.000 A 
ATOM      6  N   UNL     1      44.742   4.171  12.084  0.00  0.00    +0.000 NA
ATOM      7  C   UNL     1      45.299   5.246  12.685  0.00  0.00    +0.000 A 
BRANCH   5   8
ATOM      8  C   UNL     1      44.186   2.880  10.045  0.00  0.00    +0.000 C 
BRANCH   8   9
ATOM      9  N   UNL     1      44.531   2.808   8.623  0.00  0.00    +0.000 NA
ATOM     10  H   UNL     1      44.831   3.727   8.306  0.00  0.00    +0.000 HD
BRANCH   9  11
ATOM     11  C   UNL     1      45.500   1.772   8.298  0.00  0.00    +0.000 C 
BRANCH  11  12
ATOM     12  C   UNL     1      46.816   2.422   7.826  0.00  0.00    +0.000 C 
ATOM     13  C   UNL     1      46.610   3.508   6.771  0.00  0.00    +0.000 C 
ATOM     14  C   UNL     1      46.853   2.790   5.462  0.00  0.00    +0.000 C 
ATOM     15  N   UNL     1      47.961   1.879   5.761  0.00  0.00    +0.000 NA
ATOM     16  C   UNL     1      47.736   1.408   7.136  0.00  0.00    +0.000 C 
ATOM     17  H   UNL     1      48.829   2.416   5.741  0.00  0.00    +0.000 HD
ENDBRANCH  11  12
ENDBRANCH   9  11
ENDBRANCH   8   9
ENDBRANCH   5   8
ENDBRANCH   1   2
BRANCH   1  20
ATOM     18  O   UNL     1      48.993   6.255  13.341  0.00  0.00    +0.000 OA
ATOM     19  C   UNL     1      48.228   6.532  14.262  0.00  0.00    +0.000 C 
ATOM     20  N   UNL     1      46.981   7.055  14.047  0.00  0.00    +0.000 N 
ATOM     21  H   UNL     1      46.461   7.426  14.836  0.00  0.00    +0.000 HD
BRANCH  19  22
ATOM     22  C   UNL     1      48.592   6.276  15.661  0.00  0.00    +0.000 A 
ATOM     23  C   UNL     1      49.213   7.270  16.406  0.00  0.00    +0.000 A 
ATOM     24  S   UNL     1      49.563   6.804  18.008  0.00  0.00    +0.000 S 
ATOM     25  C   UNL     1      48.856   5.273  17.777  0.00  0.00    +0.000 A 
ATOM     26  N   UNL     1      48.787   4.374  18.794  0.00  0.00    +0.000 NA
ATOM     27  C   UNL     1      48.187   3.271  18.492  0.00  0.00    +0.000 A 
ATOM     28  N   UNL     1      47.662   2.980  17.260  0.00  0.00    +0.000 N 
ATOM     29  C   UNL     1      47.782   3.825  16.182  0.00  0.00    +0.000 A 
ATOM     30  O   UNL     1      47.435   3.475  15.058  0.00  0.00    +0.000 OA
ATOM     31  C   UNL     1      48.395   5.105  16.484  0.00  0.00    +0.000 A 
ATOM     32  H   UNL     1      47.236   2.084  17.078  0.00  0.00    +0.000 HD
ENDBRANCH  19  22
ENDBRANCH   1  20
TORSDOF 7
ENDMDL
MODEL 2
REMARK VINA RESULT:    -7.072      2.620      3.575
REMARK INTER + INTRA:         -11.034
REMARK INTER:                  -9.434
REMARK INTRA:                  -1.600
REMARK UNBOUND:                -1.068
REMARK  Name = 
REMARK  7 active torsions:
REMARK  status: ('A' for Active; 'I' for Inactive)
REMARK    1  A    between atoms: C_2  and  C_19
REMARK    2  A    between atoms: N_3  and  C_4
REMARK    3  A    between atoms: C_4  and  C_5
REMARK    4  A    between atoms: C_8  and  C_9
REMARK    5  A    between atoms: C_9  and  N_10
REMARK    6  A    between atoms: N_10  and  C_11
REMARK    7  A    between atoms: C_11  and  C_12
REMARK                            x       y       z     vdW  Elec       q    Type
REMARK                         _______ _______ _______ _____ _____    ______ ____
ROOT
ATOM      1  C   UNL     1      48.964   7.905  13.006  0.00  0.00    +0.000 C 
ENDROOT
BRANCH   1   2
ATOM      2  C   UNL     1      47.564   7.749  12.495  0.00  0.00    +0.000 A 
ATOM      3  C   UNL     1      47.192   6.669  11.694  0.00  0.00    +0.000 A 
ATOM      4  C   UNL     1      45.878   6.561  11.239  0.00  0.00    +0.000 A 
ATOM      5  C   UNL     1      44.960   7.555  11.577  0.00  0.00    +0.000 A 
ATOM      6  N   UNL     1      45.311   8.621  12.343  0.00  0.00    +0.000 NA
ATOM      7  C   UNL     1      46.590   8.699  12.771  0.00  0.00    +0.000 A 
BRANCH   5   8
ATOM      8  C   UNL     1      43.506   7.437  11.128  0.00  0.00    +0.000 C 
BRANCH   8   9
ATOM      9  N   UNL     1      43.157   6.078  10.708  0.00  0.00    +0.000 NA
ATOM     10  H   UNL     1      43.967   5.645  10.271  0.00  0.00    +0.000 HD
BRANCH   9  11
ATOM     11  C   UNL     1      42.600   5.252  11.771  0.00  0.00    +0.000 C 
BRANCH  11  12
ATOM     12  C   UNL     1      42.969   3.775  11.526  0.00  0.00    +0.000 C 
ATOM     13  C   UNL     1      43.702   3.131  12.703  0.00  0.00    +0.000 C 
ATOM     14  C   UNL     1      45.161   3.240  12.321  0.00  0.00    +0.000 C 
ATOM     15  N   UNL     1      45.168   2.990  10.878  0.00  0.00    +0.000 NA
ATOM     16  C   UNL     1      43.946   3.619  10.354  0.00  0.00    +0.000 C 
ATOM     17  H   UNL     1      45.102   1.983  10.728  0.00  0.00    +0.000 HD
ENDBRANCH  11  12
ENDBRANCH   9  11
ENDBRANCH   8   9
ENDBRANCH   5   8
ENDBRANCH   1   2
BRANCH   1  20
ATOM     18  O   UNL     1      48.628   8.621  15.706  0.00  0.00    +0.000 OA
ATOM     19  C   UNL     1      48.960   7.470  15.433  0.00  0.00    +0.000 C 
ATOM     20  N   UNL     1      49.203   7.061  14.149  0.00  0.00    +0.000 N 
ATOM     21  H   UNL     1      49.302   6.069  13.960  0.00  0.00    +0.000 HD
BRANCH  19  22
ATOM     22  C   UNL     1      49.159   6.463  16.484  0.00  0.00    +0.000 A 
ATOM     23  C   UNL     1      50.090   6.690  17.489  0.00  0.00    +0.000 A 
ATOM     24  S   UNL     1      50.191   5.420  18.624  0.00  0.00    +0.000 S 
ATOM     25  C   UNL     1      48.962   4.544  17.837  0.00  0.00    +0.000 A 
ATOM     26  N   UNL     1      48.528   3.353  18.329  0.00  0.00    +0.000 NA
ATOM     27  C   UNL     1      47.563   2.819  17.658  0.00  0.00    +0.000 A 
ATOM     28  N   UNL     1      47.002   3.360  16.530  0.00  0.00    +0.000 N 
ATOM     29  C   UNL     1      47.465   4.519  15.952  0.00  0.00    +0.000 A 
ATOM     30  O   UNL     1      47.043   4.899  14.865  0.00  0.00    +0.000 OA
ATOM     31  C   UNL     1      48.509   5.192  16.702  0.00  0.00    +0.000 A 
ATOM     32  H   UNL     1      46.273   2.874  16.030  0.00  0.00    +0.000 HD
ENDBRANCH  19  22
ENDBRANCH   1  20
TORSDOF 7
ENDMDL
MODEL 3
REMARK VINA RESULT:    -7.001      3.340      8.237
REMARK INTER + INTRA:         -10.934
REMARK INTER:                  -9.849
REMARK INTRA:                  -1.085
REMARK UNBOUND:                -1.068
REMARK  Name = 
REMARK  7 active torsions:
REMARK  status: ('A' for Active; 'I' for Inactive)
REMARK    1  A    between atoms: C_2  and  C_19
REMARK    2  A    between atoms: N_3  and  C_4
REMARK    3  A    between atoms: C_4  and  C_5
REMARK    4  A    between atoms: C_8  and  C_9
REMARK    5  A    between atoms: C_9  and  N_10
REMARK    6  A    between atoms: N_10  and  C_11
REMARK    7  A    between atoms: C_11  and  C_12
REMARK                            x       y       z     vdW  Elec       q    Type
REMARK                         _______ _______ _______ _____ _____    ______ ____
ROOT
ATOM      1  C   UNL     1      48.267   8.041  12.253  0.00  0.00    +0.000 C 
ENDROOT
BRANCH   1   2
ATOM      2  C   UNL     1      49.045   7.653  13.474  0.00  0.00    +0.000 A 
ATOM      3  C   UNL     1      50.329   8.143  13.711  0.00  0.00    +0.000 A 
ATOM      4  C   UNL     1      51.018   7.757  14.861  0.00  0.00    +0.000 A 
ATOM      5  C   UNL     1      50.414   6.865  15.746  0.00  0.00    +0.000 A 
ATOM      6  N   UNL     1      49.171   6.366  15.521  0.00  0.00    +0.000 NA
ATOM      7  C   UNL     1      48.525   6.758  14.400  0.00  0.00    +0.000 A 
BRANCH   5   8
ATOM      8  C   UNL     1      51.130   6.462  17.032  0.00  0.00    +0.000 C 
BRANCH   8   9
ATOM      9  N   UNL     1      50.208   5.951  18.051  0.00  0.00    +0.000 NA
ATOM     10  H   UNL     1      49.279   6.330  17.879  0.00  0.00    +0.000 HD
BRANCH   9  11
ATOM     11  C   UNL     1      50.197   4.500  18.167  0.00  0.00    +0.000 C 
BRANCH  11  12
ATOM     12  C   UNL     1      48.861   4.040  18.785  0.00  0.00    +0.000 C 
ATOM     13  C   UNL     1      48.102   3.042  17.912  0.00  0.00    +0.000 C 
ATOM     14  C   UNL     1      47.107   3.901  17.163  0.00  0.00    +0.000 C 
ATOM     15  N   UNL     1      46.682   4.893  18.153  0.00  0.00    +0.000 NA
ATOM     16  C   UNL     1      47.879   5.207  18.949  0.00  0.00    +0.000 C 
ATOM     17  H   UNL     1      45.993   4.456  18.766  0.00  0.00    +0.000 HD
ENDBRANCH  11  12
ENDBRANCH   9  11
ENDBRANCH   8   9
ENDBRANCH   5   8
ENDBRANCH   1   2
BRANCH   1  20
ATOM     18  O   UNL     1      45.496   7.927  11.781  0.00  0.00    +0.000 OA
ATOM     19  C   UNL     1      46.193   6.966  11.463  0.00  0.00    +0.000 C 
ATOM     20  N   UNL     1      47.538   6.920  11.716  0.00  0.00    +0.000 N 
ATOM     21  H   UNL     1      48.095   6.190  11.283  0.00  0.00    +0.000 HD
BRANCH  19  22
ATOM     22  C   UNL     1      45.612   5.778  10.825  0.00  0.00    +0.000 A 
ATOM     23  C   UNL     1      45.853   5.530   9.480  0.00  0.00    +0.000 A 
ATOM     24  S   UNL     1      45.104   4.111   8.903  0.00  0.00    +0.000 S 
ATOM     25  C   UNL     1      44.468   3.754  10.441  0.00  0.00    +0.000 A 
ATOM     26  N   UNL     1      43.740   2.626  10.653  0.00  0.00    +0.000 NA
ATOM     27  C   UNL     1      43.358   2.458  11.875  0.00  0.00    +0.000 A 
ATOM     28  N   UNL     1      43.624   3.326  12.902  0.00  0.00    +0.000 N 
ATOM     29  C   UNL     1      44.283   4.518  12.717  0.00  0.00    +0.000 A 
ATOM     30  O   UNL     1      44.377   5.340  13.622  0.00  0.00    +0.000 OA
ATOM     31  C   UNL     1      44.790   4.725  11.373  0.00  0.00    +0.000 A 
ATOM     32  H   UNL     1      43.264   3.155  13.830  0.00  0.00    +0.000 HD
ENDBRANCH  19  22
ENDBRANCH   1  20
TORSDOF 7
ENDMDL
MODEL 4
REMARK VINA RESULT:    -6.884      2.084      3.553
REMARK INTER + INTRA:         -10.769
REMARK INTER:                  -9.687
REMARK INTRA:                  -1.082
REMARK UNBOUND:                -1.068
REMARK  Name = 
REMARK  7 active torsions:
REMARK  status: ('A' for Active; 'I' for Inactive)
REMARK    1  A    between atoms: C_2  and  C_19
REMARK    2  A    between atoms: N_3  and  C_4
REMARK    3  A    between atoms: C_4  and  C_5
REMARK    4  A    between atoms: C_8  and  C_9
REMARK    5  A    between atoms: C_9  and  N_10
REMARK    6  A    between atoms: N_10  and  C_11
REMARK    7  A    between atoms: C_11  and  C_12
REMARK                            x       y       z     vdW  Elec       q    Type
REMARK                         _______ _______ _______ _____ _____    ______ ____
ROOT
ATOM      1  C   UNL     1      46.795   4.619  14.647  0.00  0.00    +0.000 C 
ENDROOT
BRANCH   1   2
ATOM      2  C   UNL     1      46.130   4.606  13.305  0.00  0.00    +0.000 A 
ATOM      3  C   UNL     1      45.888   5.782  12.595  0.00  0.00    +0.000 A 
ATOM      4  C   UNL     1      45.266   5.724  11.347  0.00  0.00    +0.000 A 
ATOM      5  C   UNL     1      44.875   4.486  10.841  0.00  0.00    +0.000 A 
ATOM      6  N   UNL     1      45.089   3.333  11.527  0.00  0.00    +0.000 NA
ATOM      7  C   UNL     1      45.695   3.417  12.732  0.00  0.00    +0.000 A 
BRANCH   5   8
ATOM      8  C   UNL     1      44.232   4.393   9.460  0.00  0.00    +0.000 C 
BRANCH   8   9
ATOM      9  N   UNL     1      44.196   3.020   8.949  0.00  0.00    +0.000 NA
ATOM     10  H   UNL     1      43.231   2.699   8.926  0.00  0.00    +0.000 HD
BRANCH   9  11
ATOM     11  C   UNL     1      44.864   2.846   7.667  0.00  0.00    +0.000 C 
BRANCH  11  12
ATOM     12  C   UNL     1      46.373   2.631   7.895  0.00  0.00    +0.000 C 
ATOM     13  C   UNL     1      47.251   3.430   6.932  0.00  0.00    +0.000 C 
ATOM     14  C   UNL     1      47.587   2.437   5.842  0.00  0.00    +0.000 C 
ATOM     15  N   UNL     1      47.778   1.176   6.561  0.00  0.00    +0.000 NA
ATOM     16  C   UNL     1      46.785   1.175   7.646  0.00  0.00    +0.000 C 
ATOM     17  H   UNL     1      48.711   1.184   6.977  0.00  0.00    +0.000 HD
ENDBRANCH  11  12
ENDBRANCH   9  11
ENDBRANCH   8   9
ENDBRANCH   5   8
ENDBRANCH   1   2
BRANCH   1  20
ATOM     18  O   UNL     1      48.952   4.976  16.418  0.00  0.00    +0.000 OA
ATOM     19  C   UNL     1      48.615   5.911  15.696  0.00  0.00    +0.000 C 
ATOM     20  N   UNL     1      47.538   5.837  14.854  0.00  0.00    +0.000 N 
ATOM     21  H   UNL     1      47.406   6.564  14.159  0.00  0.00    +0.000 HD
BRANCH  19  22
ATOM     22  C   UNL     1      49.327   7.195  15.725  0.00  0.00    +0.000 A 
ATOM     23  C   UNL     1      49.578   7.818  16.941  0.00  0.00    +0.000 A 
ATOM     24  S   UNL     1      50.415   9.296  16.790  0.00  0.00    +0.000 S 
ATOM     25  C   UNL     1      50.512   9.133  15.099  0.00  0.00    +0.000 A 
ATOM     26  N   UNL     1      51.155  10.062  14.343  0.00  0.00    +0.000 NA
ATOM     27  C   UNL     1      51.190   9.791  13.081  0.00  0.00    +0.000 A 
ATOM     28  N   UNL     1      50.627   8.683  12.504  0.00  0.00    +0.000 N 
ATOM     29  C   UNL     1      49.898   7.762  13.218  0.00  0.00    +0.000 A 
ATOM     30  O   UNL     1      49.282   6.863  12.654  0.00  0.00    +0.000 OA
ATOM     31  C   UNL     1      49.880   7.987  14.651  0.00  0.00    +0.000 A 
ATOM     32  H   UNL     1      50.659   8.547  11.504  0.00  0.00    +0.000 HD
ENDBRANCH  19  22
ENDBRANCH   1  20
TORSDOF 7
ENDMDL
MODEL 5
REMARK VINA RESULT:    -6.649      3.477      5.845
REMARK INTER + INTRA:         -10.438
REMARK INTER:                  -9.499
REMARK INTRA:                  -0.938
REMARK UNBOUND:                -1.068
REMARK  Name = 
REMARK  7 active torsions:
REMARK  status: ('A' for Active; 'I' for Inactive)
REMARK    1  A    between atoms: C_2  and  C_19
REMARK    2  A    between atoms: N_3  and  C_4
REMARK    3  A    between atoms: C_4  and  C_5
REMARK    4  A    between atoms: C_8  and  C_9
REMARK    5  A    between atoms: C_9  and  N_10
REMARK    6  A    between atoms: N_10  and  C_11
REMARK    7  A    between atoms: C_11  and  C_12
REMARK                            x       y       z     vdW  Elec       q    Type
REMARK                         _______ _______ _______ _____ _____    ______ ____
ROOT
ATOM      1  C   UNL     1      47.839   3.344  17.520  0.00  0.00    +0.000 C 
ENDROOT
BRANCH   1   2
ATOM      2  C   UNL     1      47.707   4.133  16.254  0.00  0.00    +0.000 A 
ATOM      3  C   UNL     1      47.040   3.624  15.139  0.00  0.00    +0.000 A 
ATOM      4  C   UNL     1      46.939   4.392  13.979  0.00  0.00    +0.000 A 
ATOM      5  C   UNL     1      47.531   5.654  13.948  0.00  0.00    +0.000 A 
ATOM      6  N   UNL     1      48.198   6.157  15.019  0.00  0.00    +0.000 NA
ATOM      7  C   UNL     1      48.279   5.393  16.131  0.00  0.00    +0.000 A 
BRANCH   5   8
ATOM      8  C   UNL     1      47.398   6.531  12.706  0.00  0.00    +0.000 C 
BRANCH   8   9
ATOM      9  N   UNL     1      46.001   6.818  12.369  0.00  0.00    +0.000 NA
ATOM     10  H   UNL     1      45.885   7.822  12.256  0.00  0.00    +0.000 HD
BRANCH   9  11
ATOM     11  C   UNL     1      45.502   6.075  11.221  0.00  0.00    +0.000 C 
BRANCH  11  12
ATOM     12  C   UNL     1      43.986   5.839  11.375  0.00  0.00    +0.000 C 
ATOM     13  C   UNL     1      43.576   5.444  12.793  0.00  0.00    +0.000 C 
ATOM     14  C   UNL     1      43.494   3.935  12.738  0.00  0.00    +0.000 C 
ATOM     15  N   UNL     1      42.925   3.661  11.416  0.00  0.00    +0.000 NA
ATOM     16  C   UNL     1      43.502   4.667  10.512  0.00  0.00    +0.000 C 
ATOM     17  H   UNL     1      41.917   3.812  11.466  0.00  0.00    +0.000 HD
ENDBRANCH  11  12
ENDBRANCH   9  11
ENDBRANCH   8   9
ENDBRANCH   5   8
ENDBRANCH   1   2
BRANCH   1  20
ATOM     18  O   UNL     1      49.576   1.623  16.129  0.00  0.00    +0.000 OA
ATOM     19  C   UNL     1      50.015   2.275  17.073  0.00  0.00    +0.000 C 
ATOM     20  N   UNL     1      49.221   3.086  17.838  0.00  0.00    +0.000 N 
ATOM     21  H   UNL     1      49.658   3.731  18.489  0.00  0.00    +0.000 HD
BRANCH  19  22
ATOM     22  C   UNL     1      51.427   2.190  17.469  0.00  0.00    +0.000 A 
ATOM     23  C   UNL     1      52.025   0.947  17.629  0.00  0.00    +0.000 A 
ATOM     24  S   UNL     1      53.665   1.033  18.089  0.00  0.00    +0.000 S 
ATOM     25  C   UNL     1      53.646   2.734  18.047  0.00  0.00    +0.000 A 
ATOM     26  N   UNL     1      54.769   3.453  18.308  0.00  0.00    +0.000 NA
ATOM     27  C   UNL     1      54.623   4.731  18.198  0.00  0.00    +0.000 A 
ATOM     28  N   UNL     1      53.450   5.357  17.865  0.00  0.00    +0.000 N 
ATOM     29  C   UNL     1      52.272   4.676  17.673  0.00  0.00    +0.000 A 
ATOM     30  O   UNL     1      51.210   5.271  17.523  0.00  0.00    +0.000 OA
ATOM     31  C   UNL     1      52.395   3.231  17.725  0.00  0.00    +0.000 A 
ATOM     32  H   UNL     1      53.393   6.364  17.830  0.00  0.00    +0.000 HD
ENDBRANCH  19  22
ENDBRANCH   1  20
TORSDOF 7
ENDMDL
MODEL 6
REMARK VINA RESULT:    -6.513      3.325      5.294
REMARK INTER + INTRA:         -10.246
REMARK INTER:                  -9.248
REMARK INTRA:                  -0.999
REMARK UNBOUND:                -1.068
REMARK  Name = 
REMARK  7 active torsions:
REMARK  status: ('A' for Active; 'I' for Inactive)
REMARK    1  A    between atoms: C_2  and  C_19
REMARK    2  A    between atoms: N_3  and  C_4
REMARK    3  A    between atoms: C_4  and  C_5
REMARK    4  A    between atoms: C_8  and  C_9
REMARK    5  A    between atoms: C_9  and  N_10
REMARK    6  A    between atoms: N_10  and  C_11
REMARK    7  A    between atoms: C_11  and  C_12
REMARK                            x       y       z     vdW  Elec       q    Type
REMARK                         _______ _______ _______ _____ _____    ______ ____
ROOT
ATOM      1  C   UNL     1      47.901   4.597  17.038  0.00  0.00    +0.000 C 
ENDROOT
BRANCH   1   2
ATOM      2  C   UNL     1      47.631   5.063  15.639  0.00  0.00    +0.000 A 
ATOM      3  C   UNL     1      46.836   4.325  14.762  0.00  0.00    +0.000 A 
ATOM      4  C   UNL     1      46.609   4.795  13.468  0.00  0.00    +0.000 A 
ATOM      5  C   UNL     1      47.205   5.989  13.066  0.00  0.00    +0.000 A 
ATOM      6  N   UNL     1      47.995   6.711  13.903  0.00  0.00    +0.000 NA
ATOM      7  C   UNL     1      48.196   6.234  15.152  0.00  0.00    +0.000 A 
BRANCH   5   8
ATOM      8  C   UNL     1      46.937   6.546  11.670  0.00  0.00    +0.000 C 
BRANCH   8   9
ATOM      9  N   UNL     1      45.726   5.984  11.065  0.00  0.00    +0.000 NA
ATOM     10  H   UNL     1      45.672   4.993  11.288  0.00  0.00    +0.000 HD
BRANCH   9  11
ATOM     11  C   UNL     1      44.504   6.694  11.414  0.00  0.00    +0.000 C 
BRANCH  11  12
ATOM     12  C   UNL     1      43.287   5.777  11.180  0.00  0.00    +0.000 C 
ATOM     13  C   UNL     1      42.728   5.172  12.467  0.00  0.00    +0.000 C 
ATOM     14  C   UNL     1      43.363   3.801  12.527  0.00  0.00    +0.000 C 
ATOM     15  N   UNL     1      43.373   3.356  11.132  0.00  0.00    +0.000 NA
ATOM     16  C   UNL     1      43.652   4.555  10.328  0.00  0.00    +0.000 C 
ATOM     17  H   UNL     1      42.437   3.021  10.898  0.00  0.00    +0.000 HD
ENDBRANCH  11  12
ENDBRANCH   9  11
ENDBRANCH   8   9
ENDBRANCH   5   8
ENDBRANCH   1   2
BRANCH   1  20
ATOM     18  O   UNL     1      49.369   4.911  19.417  0.00  0.00    +0.000 OA
ATOM     19  C   UNL     1      49.922   4.414  18.438  0.00  0.00    +0.000 C 
ATOM     20  N   UNL     1      49.295   4.285  17.228  0.00  0.00    +0.000 N 
ATOM     21  H   UNL     1      49.727   3.716  16.508  0.00  0.00    +0.000 HD
BRANCH  19  22
ATOM     22  C   UNL     1      51.318   3.962  18.496  0.00  0.00    +0.000 A 
ATOM     23  C   UNL     1      52.277   4.762  19.103  0.00  0.00    +0.000 A 
ATOM     24  S   UNL     1      53.842   4.085  19.083  0.00  0.00    +0.000 S 
ATOM     25  C   UNL     1      53.285   2.679  18.302  0.00  0.00    +0.000 A 
ATOM     26  N   UNL     1      54.132   1.654  18.018  0.00  0.00    +0.000 NA
ATOM     27  C   UNL     1      53.567   0.633  17.465  0.00  0.00    +0.000 A 
ATOM     28  N   UNL     1      52.234   0.550  17.156  0.00  0.00    +0.000 N 
ATOM     29  C   UNL     1      51.359   1.592  17.349  0.00  0.00    +0.000 A 
ATOM     30  O   UNL     1      50.209   1.543  16.927  0.00  0.00    +0.000 OA
ATOM     31  C   UNL     1      51.931   2.742  18.026  0.00  0.00    +0.000 A 
ATOM     32  H   UNL     1      51.861  -0.264  16.690  0.00  0.00    +0.000 HD
ENDBRANCH  19  22
ENDBRANCH   1  20
TORSDOF 7
ENDMDL
MODEL 7
REMARK VINA RESULT:    -6.490      1.819      2.496
REMARK INTER + INTRA:         -10.213
REMARK INTER:                  -9.290
REMARK INTRA:                  -0.924
REMARK UNBOUND:                -1.068
REMARK  Name = 
REMARK  7 active torsions:
REMARK  status: ('A' for Active; 'I' for Inactive)
REMARK    1  A    between atoms: C_2  and  C_19
REMARK    2  A    between atoms: N_3  and  C_4
REMARK    3  A    between atoms: C_4  and  C_5
REMARK    4  A    between atoms: C_8  and  C_9
REMARK    5  A    between atoms: C_9  and  N_10
REMARK    6  A    between atoms: N_10  and  C_11
REMARK    7  A    between atoms: C_11  and  C_12
REMARK                            x       y       z     vdW  Elec       q    Type
REMARK                         _______ _______ _______ _____ _____    ______ ____
ROOT
ATOM      1  C   UNL     1      48.415   6.771  13.974  0.00  0.00    +0.000 C 
ENDROOT
BRANCH   1   2
ATOM      2  C   UNL     1      47.216   6.173  13.302  0.00  0.00    +0.000 A 
ATOM      3  C   UNL     1      46.530   5.092  13.854  0.00  0.00    +0.000 A 
ATOM      4  C   UNL     1      45.417   4.566  13.197  0.00  0.00    +0.000 A 
ATOM      5  C   UNL     1      45.024   5.121  11.980  0.00  0.00    +0.000 A 
ATOM      6  N   UNL     1      45.691   6.164  11.421  0.00  0.00    +0.000 NA
ATOM      7  C   UNL     1      46.764   6.655  12.080  0.00  0.00    +0.000 A 
BRANCH   5   8
ATOM      8  C   UNL     1      43.785   4.591  11.263  0.00  0.00    +0.000 C 
BRANCH   8   9
ATOM      9  N   UNL     1      44.085   4.094   9.918  0.00  0.00    +0.000 NA
ATOM     10  H   UNL     1      44.550   4.827   9.387  0.00  0.00    +0.000 HD
BRANCH   9  11
ATOM     11  C   UNL     1      44.833   2.844   9.899  0.00  0.00    +0.000 C 
BRANCH  11  12
ATOM     12  C   UNL     1      44.867   2.283   8.464  0.00  0.00    +0.000 C 
ATOM     13  C   UNL     1      46.041   1.337   8.212  0.00  0.00    +0.000 C 
ATOM     14  C   UNL     1      47.083   2.221   7.563  0.00  0.00    +0.000 C 
ATOM     15  N   UNL     1      46.303   3.106   6.694  0.00  0.00    +0.000 NA
ATOM     16  C   UNL     1      45.058   3.393   7.423  0.00  0.00    +0.000 C 
ATOM     17  H   UNL     1      46.067   2.591   5.844  0.00  0.00    +0.000 HD
ENDBRANCH  11  12
ENDBRANCH   9  11
ENDBRANCH   8   9
ENDBRANCH   5   8
ENDBRANCH   1   2
BRANCH   1  20
ATOM     18  O   UNL     1      49.680   8.414  15.874  0.00  0.00    +0.000 OA
ATOM     19  C   UNL     1      48.940   7.515  16.265  0.00  0.00    +0.000 C 
ATOM     20  N   UNL     1      48.337   6.635  15.406  0.00  0.00    +0.000 N 
ATOM     21  H   UNL     1      47.606   6.026  15.759  0.00  0.00    +0.000 HD
BRANCH  19  22
ATOM     22  C   UNL     1      48.688   7.300  17.696  0.00  0.00    +0.000 A 
ATOM     23  C   UNL     1      48.223   8.347  18.479  0.00  0.00    +0.000 A 
ATOM     24  S   UNL     1      47.984   7.923  20.114  0.00  0.00    +0.000 S 
ATOM     25  C   UNL     1      48.451   6.312  19.822  0.00  0.00    +0.000 A 
ATOM     26  N   UNL     1      48.433   5.387  20.818  0.00  0.00    +0.000 NA
ATOM     27  C   UNL     1      48.770   4.197  20.448  0.00  0.00    +0.000 A 
ATOM     28  N   UNL     1      49.137   3.851  19.173  0.00  0.00    +0.000 N 
ATOM     29  C   UNL     1      49.249   4.768  18.156  0.00  0.00    +0.000 A 
ATOM     30  O   UNL     1      49.721   4.457  17.068  0.00  0.00    +0.000 OA
ATOM     31  C   UNL     1      48.822   6.111  18.505  0.00  0.00    +0.000 A 
ATOM     32  H   UNL     1      49.424   2.908  18.956  0.00  0.00    +0.000 HD
ENDBRANCH  19  22
ENDBRANCH   1  20
TORSDOF 7
ENDMDL
MODEL 8
REMARK VINA RESULT:    -6.466      2.049      2.609
REMARK INTER + INTRA:         -10.179
REMARK INTER:                  -9.327
REMARK INTRA:                  -0.852
REMARK UNBOUND:                -1.068
REMARK  Name = 
REMARK  7 active torsions:
REMARK  status: ('A' for Active; 'I' for Inactive)
REMARK    1  A    between atoms: C_2  and  C_19
REMARK    2  A    between atoms: N_3  and  C_4
REMARK    3  A    between atoms: C_4  and  C_5
REMARK    4  A    between atoms: C_8  and  C_9
REMARK    5  A    between atoms: C_9  and  N_10
REMARK    6  A    between atoms: N_10  and  C_11
REMARK    7  A    between atoms: C_11  and  C_12
REMARK                            x       y       z     vdW  Elec       q    Type
REMARK                         _______ _______ _______ _____ _____    ______ ____
ROOT
ATOM      1  C   UNL     1      45.622   8.515  13.067  0.00  0.00    +0.000 C 
ENDROOT
BRANCH   1   2
ATOM      2  C   UNL     1      45.371   7.134  12.540  0.00  0.00    +0.000 A 
ATOM      3  C   UNL     1      45.888   6.004  13.171  0.00  0.00    +0.000 A 
ATOM      4  C   UNL     1      45.631   4.736  12.648  0.00  0.00    +0.000 A 
ATOM      5  C   UNL     1      44.874   4.625  11.482  0.00  0.00    +0.000 A 
ATOM      6  N   UNL     1      44.376   5.718  10.847  0.00  0.00    +0.000 NA
ATOM      7  C   UNL     1      44.640   6.933  11.376  0.00  0.00    +0.000 A 
BRANCH   5   8
ATOM      8  C   UNL     1      44.542   3.248  10.914  0.00  0.00    +0.000 C 
BRANCH   8   9
ATOM      9  N   UNL     1      44.204   3.296   9.489  0.00  0.00    +0.000 NA
ATOM     10  H   UNL     1      44.528   4.178   9.099  0.00  0.00    +0.000 HD
BRANCH   9  11
ATOM     11  C   UNL     1      44.681   2.150   8.727  0.00  0.00    +0.000 C 
BRANCH  11  12
ATOM     12  C   UNL     1      46.180   2.326   8.412  0.00  0.00    +0.000 C 
ATOM     13  C   UNL     1      46.463   3.457   7.424  0.00  0.00    +0.000 C 
ATOM     14  C   UNL     1      46.579   2.752   6.091  0.00  0.00    +0.000 C 
ATOM     15  N   UNL     1      47.276   1.504   6.413  0.00  0.00    +0.000 NA
ATOM     16  C   UNL     1      46.767   1.085   7.728  0.00  0.00    +0.000 C 
ATOM     17  H   UNL     1      48.272   1.709   6.503  0.00  0.00    +0.000 HD
ENDBRANCH  11  12
ENDBRANCH   9  11
ENDBRANCH   8   9
ENDBRANCH   5   8
ENDBRANCH   1   2
BRANCH   1  20
ATOM     18  O   UNL     1      48.258   9.027  12.228  0.00  0.00    +0.000 OA
ATOM     19  C   UNL     1      48.036   8.866  13.426  0.00  0.00    +0.000 C 
ATOM     20  N   UNL     1      46.792   8.552  13.906  0.00  0.00    +0.000 N 
ATOM     21  H   UNL     1      46.625   8.601  14.906  0.00  0.00    +0.000 HD
BRANCH  19  22
ATOM     22  C   UNL     1      49.111   8.960  14.421  0.00  0.00    +0.000 A 
ATOM     23  C   UNL     1      49.792  10.158  14.591  0.00  0.00    +0.000 A 
ATOM     24  S   UNL     1      51.006  10.089  15.787  0.00  0.00    +0.000 S 
ATOM     25  C   UNL     1      50.634   8.469  16.151  0.00  0.00    +0.000 A 
ATOM     26  N   UNL     1      51.293   7.804  17.137  0.00  0.00    +0.000 NA
ATOM     27  C   UNL     1      50.880   6.597  17.336  0.00  0.00    +0.000 A 
ATOM     28  N   UNL     1      49.876   5.989  16.628  0.00  0.00    +0.000 N 
ATOM     29  C   UNL     1      49.240   6.594  15.570  0.00  0.00    +0.000 A 
ATOM     30  O   UNL     1      48.452   5.974  14.863  0.00  0.00    +0.000 OA
ATOM     31  C   UNL     1      49.624   7.975  15.345  0.00  0.00    +0.000 A 
ATOM     32  H   UNL     1      49.625   5.028  16.809  0.00  0.00    +0.000 HD
ENDBRANCH  19  22
ENDBRANCH   1  20
TORSDOF 7
ENDMDL
MODEL 9
REMARK VINA RESULT:    -6.272      4.489      7.268
REMARK INTER + INTRA:          -9.906
REMARK INTER:                  -9.029
REMARK INTRA:                  -0.877
REMARK UNBOUND:                -1.068
REMARK  Name = 
REMARK  7 active torsions:
REMARK  status: ('A' for Active; 'I' for Inactive)
REMARK    1  A    between atoms: C_2  and  C_19
REMARK    2  A    between atoms: N_3  and  C_4
REMARK    3  A    between atoms: C_4  and  C_5
REMARK    4  A    between atoms: C_8  and  C_9
REMARK    5  A    between atoms: C_9  and  N_10
REMARK    6  A    between atoms: N_10  and  C_11
REMARK    7  A    between atoms: C_11  and  C_12
REMARK                            x       y       z     vdW  Elec       q    Type
REMARK                         _______ _______ _______ _____ _____    ______ ____
ROOT
ATOM      1  C   UNL     1      46.232   8.219  13.023  0.00  0.00    +0.000 C 
ENDROOT
BRANCH   1   2
ATOM      2  C   UNL     1      47.687   8.362  12.698  0.00  0.00    +0.000 A 
ATOM      3  C   UNL     1      48.153   9.359  11.841  0.00  0.00    +0.000 A 
ATOM      4  C   UNL     1      49.517   9.457  11.566  0.00  0.00    +0.000 A 
ATOM      5  C   UNL     1      50.392   8.535  12.139  0.00  0.00    +0.000 A 
ATOM      6  N   UNL     1      49.952   7.549  12.962  0.00  0.00    +0.000 NA
ATOM      7  C   UNL     1      48.627   7.478  13.214  0.00  0.00    +0.000 A 
BRANCH   5   8
ATOM      8  C   UNL     1      51.894   8.648  11.887  0.00  0.00    +0.000 C 
BRANCH   8   9
ATOM      9  N   UNL     1      52.452   7.439  11.276  0.00  0.00    +0.000 NA
ATOM     10  H   UNL     1      52.206   6.633  11.846  0.00  0.00    +0.000 HD
BRANCH   9  11
ATOM     11  C   UNL     1      52.085   7.257   9.878  0.00  0.00    +0.000 C 
BRANCH  11  12
ATOM     12  C   UNL     1      53.347   6.952   9.047  0.00  0.00    +0.000 C 
ATOM     13  C   UNL     1      53.072   6.831   7.549  0.00  0.00    +0.000 C 
ATOM     14  C   UNL     1      52.938   5.341   7.326  0.00  0.00    +0.000 C 
ATOM     15  N   UNL     1      53.952   4.760   8.209  0.00  0.00    +0.000 NA
ATOM     16  C   UNL     1      53.959   5.595   9.420  0.00  0.00    +0.000 C 
ATOM     17  H   UNL     1      54.861   4.847   7.752  0.00  0.00    +0.000 HD
ENDBRANCH  11  12
ENDBRANCH   9  11
ENDBRANCH   8   9
ENDBRANCH   5   8
ENDBRANCH   1   2
BRANCH   1  20
ATOM     18  O   UNL     1      44.271   7.573  11.111  0.00  0.00    +0.000 OA
ATOM     19  C   UNL     1      44.831   6.664  11.720  0.00  0.00    +0.000 C 
ATOM     20  N   UNL     1      45.749   6.898  12.707  0.00  0.00    +0.000 N 
ATOM     21  H   UNL     1      46.306   6.124  13.055  0.00  0.00    +0.000 HD
BRANCH  19  22
ATOM     22  C   UNL     1      44.512   5.256  11.451  0.00  0.00    +0.000 A 
ATOM     23  C   UNL     1      43.752   4.534  12.362  0.00  0.00    +0.000 A 
ATOM     24  S   UNL     1      43.477   2.918  11.891  0.00  0.00    +0.000 S 
ATOM     25  C   UNL     1      44.326   3.139  10.433  0.00  0.00    +0.000 A 
ATOM     26  N   UNL     1      44.436   2.130   9.528  0.00  0.00    +0.000 NA
ATOM     27  C   UNL     1      45.069   2.448   8.448  0.00  0.00    +0.000 A 
ATOM     28  N   UNL     1      45.615   3.680   8.198  0.00  0.00    +0.000 N 
ATOM     29  C   UNL     1      45.600   4.702   9.117  0.00  0.00    +0.000 A 
ATOM     30  O   UNL     1      46.223   5.740   8.925  0.00  0.00    +0.000 OA
ATOM     31  C   UNL     1      44.846   4.416  10.324  0.00  0.00    +0.000 A 
ATOM     32  H   UNL     1      46.129   3.854   7.347  0.00  0.00    +0.000 HD
ENDBRANCH  19  22
ENDBRANCH   1  20
TORSDOF 7
ENDMDL
