MODEL 1
REMARK VINA RESULT:    -7.181      0.000      0.000
REMARK INTER + INTRA:          -9.005
REMARK INTER:                  -8.440
REMARK INTRA:                  -0.565
REMARK UNBOUND:                -0.565
REMARK  Name = 
REMARK  4 active torsions:
REMARK  status: ('A' for Active; 'I' for Inactive)
REMARK    1  A    between atoms: C_1  and  O_2
REMARK    2  A    between atoms: O_2  and  C_3
REMARK    3  A    between atoms: C_6  and  C_7
REMARK    4  A    between atoms: C_7  and  N_8
REMARK                            x       y       z     vdW  Elec       q    Type
REMARK                         _______ _______ _______ _____ _____    ______ ____
ROOT
ATOM      1  C   UNL     1      43.823   4.305   9.580  0.00  0.00    +0.000 C 
ENDROOT
BRANCH   1   2
ATOM      2  N   UNL     1      44.117   4.410  11.005  0.00  0.00    +0.000 N 
ATOM      3  C   UNL     1      43.475   3.681  11.980  0.00  0.00    +0.000 A 
ATOM      4  C   UNL     1      44.101   3.932  13.182  0.00  0.00    +0.000 A 
ATOM      5  C   UNL     1      45.157   4.834  12.930  0.00  0.00    +0.000 A 
ATOM      6  N   UNL     1      46.060   5.343  13.803  0.00  0.00    +0.000 NA
ATOM      7  C   UNL     1      46.965   6.181  13.259  0.00  0.00    +0.000 A 
ATOM      8  C   UNL     1      47.023   6.548  11.922  0.00  0.00    +0.000 A 
ATOM      9  C   UNL     1      46.094   6.020  11.030  0.00  0.00    +0.000 A 
ATOM     10  C   UNL     1      45.149   5.137  11.566  0.00  0.00    +0.000 A 
ENDBRANCH   1   2
BRANCH   1  14
ATOM     11  C   UNL     1      46.812   2.047   7.414  0.00  0.00    +0.000 A 
ATOM     12  C   UNL     1      45.996   1.417   8.353  0.00  0.00    +0.000 A 
ATOM     13  C   UNL     1      45.034   2.150   9.055  0.00  0.00    +0.000 A 
ATOM     14  C   UNL     1      44.871   3.523   8.831  0.00  0.00    +0.000 A 
ATOM     15  C   UNL     1      45.699   4.152   7.893  0.00  0.00    +0.000 A 
ATOM     16  C   UNL     1      46.658   3.417   7.189  0.00  0.00    +0.000 A 
BRANCH  11  18
ATOM     17  C   UNL     1      48.214   2.145   5.499  0.00  0.00    +0.000 C 
ATOM     18  O   UNL     1      47.779   1.444   6.657  0.00  0.00    +0.000 OA
ENDBRANCH  11  18
ENDBRANCH   1  14
TORSDOF 3
ENDMDL
MODEL 2
REMARK VINA RESULT:    -6.984      1.007      1.573
REMARK INTER + INTRA:          -8.774
REMARK INTER:                  -8.259
REMARK INTRA:                  -0.515
REMARK UNBOUND:                -0.565
REMARK  Name = 
REMARK  4 active torsions:
REMARK  status: ('A' for Active; 'I' for Inactive)
REMARK    1  A    between atoms: C_1  and  O_2
REMARK    2  A    between atoms: O_2  and  C_3
REMARK    3  A    between atoms: C_6  and  C_7
REMARK    4  A    between atoms: C_7  and  N_8
REMARK                            x       y       z     vdW  Elec       q    Type
REMARK                         _______ _______ _______ _____ _____    ______ ____
ROOT
ATOM      1  C   UNL     1      44.064   3.744  10.227  0.00  0.00    +0.000 C 
ENDROOT
BRANCH   1   2
ATOM      2  N   UNL     1      44.778   4.176  11.424  0.00  0.00    +0.000 N 
ATOM      3  C   UNL     1      45.311   3.313  12.355  0.00  0.00    +0.000 A 
ATOM      4  C   UNL     1      46.028   4.059  13.265  0.00  0.00    +0.000 A 
ATOM      5  C   UNL     1      45.932   5.412  12.874  0.00  0.00    +0.000 A 
ATOM      6  N   UNL     1      46.497   6.500  13.452  0.00  0.00    +0.000 NA
ATOM      7  C   UNL     1      46.230   7.670  12.839  0.00  0.00    +0.000 A 
ATOM      8  C   UNL     1      45.441   7.827  11.708  0.00  0.00    +0.000 A 
ATOM      9  C   UNL     1      44.867   6.704  11.118  0.00  0.00    +0.000 A 
ATOM     10  C   UNL     1      45.137   5.474  11.728  0.00  0.00    +0.000 A 
ENDBRANCH   1   2
BRANCH   1  14
ATOM     11  C   UNL     1      46.746   2.217   7.193  0.00  0.00    +0.000 A 
ATOM     12  C   UNL     1      46.466   3.581   7.265  0.00  0.00    +0.000 A 
ATOM     13  C   UNL     1      45.596   4.071   8.243  0.00  0.00    +0.000 A 
ATOM     14  C   UNL     1      44.990   3.209   9.165  0.00  0.00    +0.000 A 
ATOM     15  C   UNL     1      45.268   1.838   9.083  0.00  0.00    +0.000 A 
ATOM     16  C   UNL     1      46.142   1.350   8.107  0.00  0.00    +0.000 A 
BRANCH  11  18
ATOM     17  C   UNL     1      47.936   2.371   5.144  0.00  0.00    +0.000 C 
ATOM     18  O   UNL     1      47.584   1.615   6.295  0.00  0.00    +0.000 OA
ENDBRANCH  11  18
ENDBRANCH   1  14
TORSDOF 3
ENDMDL
MODEL 3
REMARK VINA RESULT:    -6.927      1.148      2.051
REMARK INTER + INTRA:          -8.706
REMARK INTER:                  -8.194
REMARK INTRA:                  -0.512
REMARK UNBOUND:                -0.565
REMARK  Name = 
REMARK  4 active torsions:
REMARK  status: ('A' for Active; 'I' for Inactive)
REMARK    1  A    between atoms: C_1  and  O_2
REMARK    2  A    between atoms: O_2  and  C_3
REMARK    3  A    between atoms: C_6  and  C_7
REMARK    4  A    between atoms: C_7  and  N_8
REMARK                            x       y       z     vdW  Elec       q    Type
REMARK                         _______ _______ _______ _____ _____    ______ ____
ROOT
ATOM      1  C   UNL     1      43.855   4.357  10.330  0.00  0.00    +0.000 C 
ENDROOT
BRANCH   1   2
ATOM      2  N   UNL     1      44.597   5.206  11.256  0.00  0.00    +0.000 N 
ATOM      3  C   UNL     1      44.437   6.570  11.346  0.00  0.00    +0.000 A 
ATOM      4  C   UNL     1      45.188   7.017  12.411  0.00  0.00    +0.000 A 
ATOM      5  C   UNL     1      45.817   5.893  12.988  0.00  0.00    +0.000 A 
ATOM      6  N   UNL     1      46.629   5.843  14.072  0.00  0.00    +0.000 NA
ATOM      7  C   UNL     1      47.073   4.612  14.392  0.00  0.00    +0.000 A 
ATOM      8  C   UNL     1      46.773   3.443  13.707  0.00  0.00    +0.000 A 
ATOM      9  C   UNL     1      45.935   3.501  12.597  0.00  0.00    +0.000 A 
ATOM     10  C   UNL     1      45.450   4.767  12.249  0.00  0.00    +0.000 A 
ENDBRANCH   1   2
BRANCH   1  14
ATOM     11  C   UNL     1      46.467   2.302   7.558  0.00  0.00    +0.000 A 
ATOM     12  C   UNL     1      46.369   3.692   7.535  0.00  0.00    +0.000 A 
ATOM     13  C   UNL     1      45.521   4.353   8.429  0.00  0.00    +0.000 A 
ATOM     14  C   UNL     1      44.756   3.638   9.359  0.00  0.00    +0.000 A 
ATOM     15  C   UNL     1      44.852   2.241   9.371  0.00  0.00    +0.000 A 
ATOM     16  C   UNL     1      45.704   1.581   8.479  0.00  0.00    +0.000 A 
BRANCH  11  18
ATOM     17  C   UNL     1      47.951   2.218   5.705  0.00  0.00    +0.000 C 
ATOM     18  O   UNL     1      47.263   1.539   6.748  0.00  0.00    +0.000 OA
ENDBRANCH  11  18
ENDBRANCH   1  14
TORSDOF 3
ENDMDL
MODEL 4
REMARK VINA RESULT:    -6.061      2.772      5.922
REMARK INTER + INTRA:          -7.689
REMARK INTER:                  -7.183
REMARK INTRA:                  -0.505
REMARK UNBOUND:                -0.565
REMARK  Name = 
REMARK  4 active torsions:
REMARK  status: ('A' for Active; 'I' for Inactive)
REMARK    1  A    between atoms: C_1  and  O_2
REMARK    2  A    between atoms: O_2  and  C_3
REMARK    3  A    between atoms: C_6  and  C_7
REMARK    4  A    between atoms: C_7  and  N_8
REMARK                            x       y       z     vdW  Elec       q    Type
REMARK                         _______ _______ _______ _____ _____    ______ ____
ROOT
ATOM      1  C   UNL     1      44.618   6.286  11.798  0.00  0.00    +0.000 C 
ENDROOT
BRANCH   1   2
ATOM      2  N   UNL     1      44.382   4.904  11.395  0.00  0.00    +0.000 N 
ATOM      3  C   UNL     1      43.613   4.014  12.112  0.00  0.00    +0.000 A 
ATOM      4  C   UNL     1      43.497   2.859  11.370  0.00  0.00    +0.000 A 
ATOM      5  C   UNL     1      44.209   3.054  10.166  0.00  0.00    +0.000 A 
ATOM      6  N   UNL     1      44.351   2.202   9.122  0.00  0.00    +0.000 NA
ATOM      7  C   UNL     1      45.088   2.678   8.099  0.00  0.00    +0.000 A 
ATOM      8  C   UNL     1      45.692   3.926   8.052  0.00  0.00    +0.000 A 
ATOM      9  C   UNL     1      45.540   4.797   9.127  0.00  0.00    +0.000 A 
ATOM     10  C   UNL     1      44.769   4.332  10.200  0.00  0.00    +0.000 A 
ENDBRANCH   1   2
BRANCH   1  14
ATOM     11  C   UNL     1      48.523   6.875  13.568  0.00  0.00    +0.000 A 
ATOM     12  C   UNL     1      48.096   7.686  12.516  0.00  0.00    +0.000 A 
ATOM     13  C   UNL     1      46.835   7.490  11.943  0.00  0.00    +0.000 A 
ATOM     14  C   UNL     1      45.981   6.483  12.409  0.00  0.00    +0.000 A 
ATOM     15  C   UNL     1      46.420   5.666  13.460  0.00  0.00    +0.000 A 
ATOM     16  C   UNL     1      47.679   5.866  14.035  0.00  0.00    +0.000 A 
BRANCH  11  18
ATOM     17  C   UNL     1      49.678   7.013  15.639  0.00  0.00    +0.000 C 
ATOM     18  O   UNL     1      49.723   6.970  14.218  0.00  0.00    +0.000 OA
ENDBRANCH  11  18
ENDBRANCH   1  14
TORSDOF 3
ENDMDL
MODEL 5
REMARK VINA RESULT:    -5.392      2.068      3.513
REMARK INTER + INTRA:          -6.903
REMARK INTER:                  -6.380
REMARK INTRA:                  -0.523
REMARK UNBOUND:                -0.565
REMARK  Name = 
REMARK  4 active torsions:
REMARK  status: ('A' for Active; 'I' for Inactive)
REMARK    1  A    between atoms: C_1  and  O_2
REMARK    2  A    between atoms: O_2  and  C_3
REMARK    3  A    between atoms: C_6  and  C_7
REMARK    4  A    between atoms: C_7  and  N_8
REMARK                            x       y       z     vdW  Elec       q    Type
REMARK                         _______ _______ _______ _____ _____    ______ ____
ROOT
ATOM      1  C   UNL     1      44.518   5.970  12.373  0.00  0.00    +0.000 C 
ENDROOT
BRANCH   1   2
ATOM      2  N   UNL     1      45.791   6.445  12.904  0.00  0.00    +0.000 N 
ATOM      3  C   UNL     1      46.724   5.632  13.507  0.00  0.00    +0.000 A 
ATOM      4  C   UNL     1      47.850   6.387  13.755  0.00  0.00    +0.000 A 
ATOM      5  C   UNL     1      47.596   7.695  13.285  0.00  0.00    +0.000 A 
ATOM      6  N   UNL     1      48.421   8.769  13.291  0.00  0.00    +0.000 NA
ATOM      7  C   UNL     1      47.895   9.890  12.759  0.00  0.00    +0.000 A 
ATOM      8  C   UNL     1      46.616  10.012  12.235  0.00  0.00    +0.000 A 
ATOM      9  C   UNL     1      45.775   8.902  12.229  0.00  0.00    +0.000 A 
ATOM     10  C   UNL     1      46.300   7.721  12.766  0.00  0.00    +0.000 A 
ENDBRANCH   1   2
BRANCH   1  14
ATOM     11  C   UNL     1      45.053   3.305   9.005  0.00  0.00    +0.000 A 
ATOM     12  C   UNL     1      45.541   4.610   8.956  0.00  0.00    +0.000 A 
ATOM     13  C   UNL     1      45.363   5.471  10.044  0.00  0.00    +0.000 A 
ATOM     14  C   UNL     1      44.694   5.043  11.198  0.00  0.00    +0.000 A 
ATOM     15  C   UNL     1      44.198   3.734  11.237  0.00  0.00    +0.000 A 
ATOM     16  C   UNL     1      44.380   2.873  10.150  0.00  0.00    +0.000 A 
BRANCH  11  18
ATOM     17  C   UNL     1      46.379   1.620   7.985  0.00  0.00    +0.000 C 
ATOM     18  O   UNL     1      45.170   2.366   8.017  0.00  0.00    +0.000 OA
ENDBRANCH  11  18
ENDBRANCH   1  14
TORSDOF 3
ENDMDL
MODEL 6
REMARK VINA RESULT:    -5.264      3.017      5.646
REMARK INTER + INTRA:          -6.752
REMARK INTER:                  -6.293
REMARK INTRA:                  -0.459
REMARK UNBOUND:                -0.565
REMARK  Name = 
REMARK  4 active torsions:
REMARK  status: ('A' for Active; 'I' for Inactive)
REMARK    1  A    between atoms: C_1  and  O_2
REMARK    2  A    between atoms: O_2  and  C_3
REMARK    3  A    between atoms: C_6  and  C_7
REMARK    4  A    between atoms: C_7  and  N_8
REMARK                            x       y       z     vdW  Elec       q    Type
REMARK                         _______ _______ _______ _____ _____    ______ ____
ROOT
ATOM      1  C   UNL     1      45.353   6.951  12.393  0.00  0.00    +0.000 C 
ENDROOT
BRANCH   1   2
ATOM      2  N   UNL     1      45.182   5.524  12.139  0.00  0.00    +0.000 N 
ATOM      3  C   UNL     1      44.824   4.609  13.103  0.00  0.00    +0.000 A 
ATOM      4  C   UNL     1      44.620   3.395  12.483  0.00  0.00    +0.000 A 
ATOM      5  C   UNL     1      44.856   3.579  11.103  0.00  0.00    +0.000 A 
ATOM      6  N   UNL     1      44.752   2.673  10.100  0.00  0.00    +0.000 NA
ATOM      7  C   UNL     1      45.034   3.152   8.873  0.00  0.00    +0.000 A 
ATOM      8  C   UNL     1      45.416   4.454   8.582  0.00  0.00    +0.000 A 
ATOM      9  C   UNL     1      45.518   5.380   9.617  0.00  0.00    +0.000 A 
ATOM     10  C   UNL     1      45.219   4.912  10.902  0.00  0.00    +0.000 A 
ENDBRANCH   1   2
BRANCH   1  14
ATOM     11  C   UNL     1      49.516   8.132  12.334  0.00  0.00    +0.000 A 
ATOM     12  C   UNL     1      49.151   6.857  12.764  0.00  0.00    +0.000 A 
ATOM     13  C   UNL     1      47.805   6.480  12.786  0.00  0.00    +0.000 A 
ATOM     14  C   UNL     1      46.801   7.368  12.381  0.00  0.00    +0.000 A 
ATOM     15  C   UNL     1      47.173   8.651  11.958  0.00  0.00    +0.000 A 
ATOM     16  C   UNL     1      48.520   9.026  11.932  0.00  0.00    +0.000 A 
BRANCH  11  18
ATOM     17  C   UNL     1      51.600   8.127  11.194  0.00  0.00    +0.000 C 
ATOM     18  O   UNL     1      50.792   8.619  12.255  0.00  0.00    +0.000 OA
ENDBRANCH  11  18
ENDBRANCH   1  14
TORSDOF 3
ENDMDL
MODEL 7
REMARK VINA RESULT:    -5.070      2.996      5.045
REMARK INTER + INTRA:          -6.525
REMARK INTER:                  -6.122
REMARK INTRA:                  -0.402
REMARK UNBOUND:                -0.565
REMARK  Name = 
REMARK  4 active torsions:
REMARK  status: ('A' for Active; 'I' for Inactive)
REMARK    1  A    between atoms: C_1  and  O_2
REMARK    2  A    between atoms: O_2  and  C_3
REMARK    3  A    between atoms: C_6  and  C_7
REMARK    4  A    between atoms: C_7  and  N_8
REMARK                            x       y       z     vdW  Elec       q    Type
REMARK                         _______ _______ _______ _____ _____    ______ ____
ROOT
ATOM      1  C   UNL     1      45.727   7.422  12.853  0.00  0.00    +0.000 C 
ENDROOT
BRANCH   1   2
ATOM      2  N   UNL     1      47.164   7.624  12.702  0.00  0.00    +0.000 N 
ATOM      3  C   UNL     1      48.104   6.638  12.900  0.00  0.00    +0.000 A 
ATOM      4  C   UNL     1      49.334   7.143  12.535  0.00  0.00    +0.000 A 
ATOM      5  C   UNL     1      49.134   8.471  12.097  0.00  0.00    +0.000 A 
ATOM      6  N   UNL     1      50.049   9.349  11.620  0.00  0.00    +0.000 NA
ATOM      7  C   UNL     1      49.551  10.551  11.269  0.00  0.00    +0.000 A 
ATOM      8  C   UNL     1      48.221  10.934  11.368  0.00  0.00    +0.000 A 
ATOM      9  C   UNL     1      47.286  10.025  11.856  0.00  0.00    +0.000 A 
ATOM     10  C   UNL     1      47.774   8.764  12.218  0.00  0.00    +0.000 A 
ENDBRANCH   1   2
BRANCH   1  14
ATOM     11  C   UNL     1      44.350   3.893  10.761  0.00  0.00    +0.000 A 
ATOM     12  C   UNL     1      45.010   4.909  10.071  0.00  0.00    +0.000 A 
ATOM     13  C   UNL     1      45.450   6.050  10.749  0.00  0.00    +0.000 A 
ATOM     14  C   UNL     1      45.238   6.197  12.125  0.00  0.00    +0.000 A 
ATOM     15  C   UNL     1      44.566   5.177  12.811  0.00  0.00    +0.000 A 
ATOM     16  C   UNL     1      44.131   4.034  12.133  0.00  0.00    +0.000 A 
BRANCH  11  18
ATOM     17  C   UNL     1      44.623   2.182   9.136  0.00  0.00    +0.000 C 
ATOM     18  O   UNL     1      43.881   2.727  10.220  0.00  0.00    +0.000 OA
ENDBRANCH  11  18
ENDBRANCH   1  14
TORSDOF 3
ENDMDL
MODEL 8
REMARK VINA RESULT:    -4.721      3.024      5.431
REMARK INTER + INTRA:          -6.114
REMARK INTER:                  -5.609
REMARK INTRA:                  -0.505
REMARK UNBOUND:                -0.565
REMARK  Name = 
REMARK  4 active torsions:
REMARK  status: ('A' for Active; 'I' for Inactive)
REMARK    1  A    between atoms: C_1  and  O_2
REMARK    2  A    between atoms: O_2  and  C_3
REMARK    3  A    between atoms: C_6  and  C_7
REMARK    4  A    between atoms: C_7  and  N_8
REMARK                            x       y       z     vdW  Elec       q    Type
REMARK                         _______ _______ _______ _____ _____    ______ ____
ROOT
ATOM      1  C   UNL     1      46.533   7.645  13.069  0.00  0.00    +0.000 C 
ENDROOT
BRANCH   1   2
ATOM      2  N   UNL     1      47.987   7.755  13.012  0.00  0.00    +0.000 N 
ATOM      3  C   UNL     1      48.677   8.285  11.945  0.00  0.00    +0.000 A 
ATOM      4  C   UNL     1      50.008   8.358  12.294  0.00  0.00    +0.000 A 
ATOM      5  C   UNL     1      50.130   7.864  13.611  0.00  0.00    +0.000 A 
ATOM      6  N   UNL     1      51.243   7.768  14.378  0.00  0.00    +0.000 NA
ATOM      7  C   UNL     1      51.041   7.260  15.609  0.00  0.00    +0.000 A 
ATOM      8  C   UNL     1      49.821   6.838  16.118  0.00  0.00    +0.000 A 
ATOM      9  C   UNL     1      48.681   6.942  15.326  0.00  0.00    +0.000 A 
ATOM     10  C   UNL     1      48.860   7.477  14.045  0.00  0.00    +0.000 A 
ENDBRANCH   1   2
BRANCH   1  14
ATOM     11  C   UNL     1      45.103   4.004  11.218  0.00  0.00    +0.000 A 
ATOM     12  C   UNL     1      45.205   5.180  10.475  0.00  0.00    +0.000 A 
ATOM     13  C   UNL     1      45.663   6.356  11.077  0.00  0.00    +0.000 A 
ATOM     14  C   UNL     1      46.026   6.378  12.429  0.00  0.00    +0.000 A 
ATOM     15  C   UNL     1      45.912   5.196  13.173  0.00  0.00    +0.000 A 
ATOM     16  C   UNL     1      45.458   4.020  12.568  0.00  0.00    +0.000 A 
BRANCH  11  18
ATOM     17  C   UNL     1      44.945   2.508   9.379  0.00  0.00    +0.000 C 
ATOM     18  O   UNL     1      44.680   2.791  10.747  0.00  0.00    +0.000 OA
ENDBRANCH  11  18
ENDBRANCH   1  14
TORSDOF 3
ENDMDL
MODEL 9
REMARK VINA RESULT:    -4.642      4.953      7.799
REMARK INTER + INTRA:          -6.021
REMARK INTER:                  -5.937
REMARK INTRA:                  -0.084
REMARK UNBOUND:                -0.565
REMARK  Name = 
REMARK  4 active torsions:
REMARK  status: ('A' for Active; 'I' for Inactive)
REMARK    1  A    between atoms: C_1  and  O_2
REMARK    2  A    between atoms: O_2  and  C_3
REMARK    3  A    between atoms: C_6  and  C_7
REMARK    4  A    between atoms: C_7  and  N_8
REMARK                            x       y       z     vdW  Elec       q    Type
REMARK                         _______ _______ _______ _____ _____    ______ ____
ROOT
ATOM      1  C   UNL     1      47.120   4.005  14.275  0.00  0.00    +0.000 C 
ENDROOT
BRANCH   1   2
ATOM      2  N   UNL     1      46.606   5.059  13.407  0.00  0.00    +0.000 N 
ATOM      3  C   UNL     1      47.396   6.006  12.795  0.00  0.00    +0.000 A 
ATOM      4  C   UNL     1      46.598   6.744  11.949  0.00  0.00    +0.000 A 
ATOM      5  C   UNL     1      45.287   6.228  12.045  0.00  0.00    +0.000 A 
ATOM      6  N   UNL     1      44.175   6.620  11.377  0.00  0.00    +0.000 NA
ATOM      7  C   UNL     1      43.060   5.924  11.675  0.00  0.00    +0.000 A 
ATOM      8  C   UNL     1      42.980   4.882  12.589  0.00  0.00    +0.000 A 
ATOM      9  C   UNL     1      44.127   4.483  13.269  0.00  0.00    +0.000 A 
ATOM     10  C   UNL     1      45.303   5.182  12.970  0.00  0.00    +0.000 A 
ENDBRANCH   1   2
BRANCH   1  14
ATOM     11  C   UNL     1      48.217   5.452  18.203  0.00  0.00    +0.000 A 
ATOM     12  C   UNL     1      47.435   4.305  18.068  0.00  0.00    +0.000 A 
ATOM     13  C   UNL     1      47.079   3.842  16.797  0.00  0.00    +0.000 A 
ATOM     14  C   UNL     1      47.495   4.516  15.642  0.00  0.00    +0.000 A 
ATOM     15  C   UNL     1      48.272   5.673  15.786  0.00  0.00    +0.000 A 
ATOM     16  C   UNL     1      48.632   6.132  17.057  0.00  0.00    +0.000 A 
BRANCH  11  18
ATOM     17  C   UNL     1      49.329   5.136  20.279  0.00  0.00    +0.000 C 
ATOM     18  O   UNL     1      48.640   6.000  19.384  0.00  0.00    +0.000 OA
ENDBRANCH  11  18
ENDBRANCH   1  14
TORSDOF 3
ENDMDL
