MODEL 1
REMARK VINA RESULT:    -9.042      0.000      0.000
REMARK INTER + INTRA:         -13.155
REMARK INTER:                 -12.214
REMARK INTRA:                  -0.942
REMARK UNBOUND:                -0.942
REMARK  Name = 
REMARK  6 active torsions:
REMARK  status: ('A' for Active; 'I' for Inactive)
REMARK    1  A    between atoms: C_2  and  C_4
REMARK    2  A    between atoms: C_7  and  N_8
REMARK    3  A    between atoms: N_8  and  C_9
REMARK    4  A    between atoms: C_9  and  C_10
REMARK    5  A    between atoms: C_10  and  C_13
REMARK    6  A    between atoms: C_17  and  C_18
REMARK                            x       y       z     vdW  Elec       q    Type
REMARK                         _______ _______ _______ _____ _____    ______ ____
ROOT
ATOM      1  C   UNL     1      43.460   5.926  11.906  0.00  0.00    +0.000 C 
ATOM      2  F   UNL     1      42.941   7.041  11.312  0.00  0.00    +0.000 F 
ATOM      3  F   UNL     1      42.696   5.746  13.035  0.00  0.00    +0.000 F 
ENDROOT
BRANCH   1   4
ATOM      4  C   UNL     1      44.923   6.111  12.249  0.00  0.00    +0.000 A 
ATOM      5  C   UNL     1      45.716   7.028  11.551  0.00  0.00    +0.000 A 
ATOM      6  C   UNL     1      47.061   7.184  11.876  0.00  0.00    +0.000 A 
ATOM      7  C   UNL     1      47.625   6.436  12.914  0.00  0.00    +0.000 A 
ATOM      8  C   UNL     1      46.861   5.517  13.659  0.00  0.00    +0.000 A 
ATOM      9  C   UNL     1      45.515   5.359  13.276  0.00  0.00    +0.000 A 
ATOM     10  F   UNL     1      44.741   4.485  13.938  0.00  0.00    +0.000 F 
BRANCH   8  11
ATOM     11  C   UNL     1      47.446   4.799  14.817  0.00  0.00    +0.000 A 
ATOM     12  C   UNL     1      47.995   5.489  15.911  0.00  0.00    +0.000 A 
ATOM     13  C   UNL     1      48.506   4.802  17.013  0.00  0.00    +0.000 A 
ATOM     14  C   UNL     1      48.455   3.422  17.004  0.00  0.00    +0.000 A 
ATOM     15  N   UNL     1      47.951   2.706  15.982  0.00  0.00    +0.000 NA
ATOM     16  C   UNL     1      47.466   3.406  14.922  0.00  0.00    +0.000 A 
ENDBRANCH   8  11
ENDBRANCH   1   4
BRANCH   1  17
ATOM     17  C   UNL     1      43.216   4.693  10.994  0.00  0.00    +0.000 C 
BRANCH  17  18
ATOM     18  N   UNL     1      43.735   4.861   9.625  0.00  0.00    +0.000 N 
ATOM     19  H   UNL     1      43.069   5.246   8.958  0.00  0.00    +0.000 HD
BRANCH  18  23
ATOM     20  C   UNL     1      46.320   2.016   7.887  0.00  0.00    +0.000 A 
ATOM     21  C   UNL     1      46.464   3.366   7.562  0.00  0.00    +0.000 A 
ATOM     22  C   UNL     1      45.625   4.321   8.147  0.00  0.00    +0.000 A 
ATOM     23  C   UNL     1      44.650   3.963   9.086  0.00  0.00    +0.000 A 
ATOM     24  C   UNL     1      44.503   2.600   9.379  0.00  0.00    +0.000 A 
ATOM     25  C   UNL     1      45.323   1.632   8.786  0.00  0.00    +0.000 A 
BRANCH  20  27
ATOM     26  N   UNL     1      46.927  -0.327   7.626  0.00  0.00    +0.000 N 
ATOM     27  C   UNL     1      47.176   0.971   7.273  0.00  0.00    +0.000 C 
ATOM     28  O   UNL     1      48.047   1.246   6.455  0.00  0.00    +0.000 OA
ATOM     29  H   UNL     1      47.443  -1.034   7.119  0.00  0.00    +0.000 HD
ATOM     30  H   UNL     1      46.073  -0.607   8.088  0.00  0.00    +0.000 HD
ENDBRANCH  20  27
ENDBRANCH  18  23
ENDBRANCH  17  18
ENDBRANCH   1  17
TORSDOF 6
ENDMDL
MODEL 2
REMARK VINA RESULT:    -8.969      2.134      3.701
REMARK INTER + INTRA:         -13.056
REMARK INTER:                 -12.370
REMARK INTRA:                  -0.686
REMARK UNBOUND:                -0.942
REMARK  Name = 
REMARK  6 active torsions:
REMARK  status: ('A' for Active; 'I' for Inactive)
REMARK    1  A    between atoms: C_2  and  C_4
REMARK    2  A    between atoms: C_7  and  N_8
REMARK    3  A    between atoms: N_8  and  C_9
REMARK    4  A    between atoms: C_9  and  C_10
REMARK    5  A    between atoms: C_10  and  C_13
REMARK    6  A    between atoms: C_17  and  C_18
REMARK                            x       y       z     vdW  Elec       q    Type
REMARK                         _______ _______ _______ _____ _____    ______ ____
ROOT
ATOM      1  C   UNL     1      43.278   5.043  12.548  0.00  0.00    +0.000 C 
ATOM      2  F   UNL     1      42.592   6.222  12.492  0.00  0.00    +0.000 F 
ATOM      3  F   UNL     1      42.673   4.336  13.560  0.00  0.00    +0.000 F 
ENDROOT
BRANCH   1   4
ATOM      4  C   UNL     1      44.749   5.269  12.831  0.00  0.00    +0.000 A 
ATOM      5  C   UNL     1      45.541   4.253  13.377  0.00  0.00    +0.000 A 
ATOM      6  C   UNL     1      46.891   4.478  13.635  0.00  0.00    +0.000 A 
ATOM      7  C   UNL     1      47.467   5.716  13.334  0.00  0.00    +0.000 A 
ATOM      8  C   UNL     1      46.715   6.760  12.763  0.00  0.00    +0.000 A 
ATOM      9  C   UNL     1      45.346   6.509  12.552  0.00  0.00    +0.000 A 
ATOM     10  F   UNL     1      44.573   7.472  12.027  0.00  0.00    +0.000 F 
BRANCH   8  11
ATOM     11  C   UNL     1      47.359   8.034  12.362  0.00  0.00    +0.000 A 
ATOM     12  C   UNL     1      48.630   8.062  11.764  0.00  0.00    +0.000 A 
ATOM     13  C   UNL     1      49.207   9.265  11.354  0.00  0.00    +0.000 A 
ATOM     14  C   UNL     1      48.494  10.432  11.549  0.00  0.00    +0.000 A 
ATOM     15  N   UNL     1      47.278  10.470  12.125  0.00  0.00    +0.000 NA
ATOM     16  C   UNL     1      46.747   9.282  12.517  0.00  0.00    +0.000 A 
ENDBRANCH   8  11
ENDBRANCH   1   4
BRANCH   1  17
ATOM     17  C   UNL     1      43.042   4.245  11.237  0.00  0.00    +0.000 C 
BRANCH  17  18
ATOM     18  N   UNL     1      43.812   4.757  10.089  0.00  0.00    +0.000 N 
ATOM     19  H   UNL     1      43.372   5.525   9.584  0.00  0.00    +0.000 HD
BRANCH  18  23
ATOM     20  C   UNL     1      46.362   2.298   7.798  0.00  0.00    +0.000 A 
ATOM     21  C   UNL     1      45.486   1.715   8.716  0.00  0.00    +0.000 A 
ATOM     22  C   UNL     1      44.622   2.520   9.468  0.00  0.00    +0.000 A 
ATOM     23  C   UNL     1      44.586   3.910   9.304  0.00  0.00    +0.000 A 
ATOM     24  C   UNL     1      45.492   4.478   8.397  0.00  0.00    +0.000 A 
ATOM     25  C   UNL     1      46.375   3.686   7.653  0.00  0.00    +0.000 A 
BRANCH  20  27
ATOM     26  N   UNL     1      48.401   2.121   6.480  0.00  0.00    +0.000 N 
ATOM     27  C   UNL     1      47.308   1.482   6.998  0.00  0.00    +0.000 C 
ATOM     28  O   UNL     1      47.144   0.278   6.833  0.00  0.00    +0.000 OA
ATOM     29  H   UNL     1      49.090   1.533   6.031  0.00  0.00    +0.000 HD
ATOM     30  H   UNL     1      48.695   3.033   6.801  0.00  0.00    +0.000 HD
ENDBRANCH  20  27
ENDBRANCH  18  23
ENDBRANCH  17  18
ENDBRANCH   1  17
TORSDOF 6
ENDMDL
MODEL 3
REMARK VINA RESULT:    -8.554      1.680      2.287
REMARK INTER + INTRA:         -12.497
REMARK INTER:                 -11.673
REMARK INTRA:                  -0.824
REMARK UNBOUND:                -0.942
REMARK  Name = 
REMARK  6 active torsions:
REMARK  status: ('A' for Active; 'I' for Inactive)
REMARK    1  A    between atoms: C_2  and  C_4
REMARK    2  A    between atoms: C_7  and  N_8
REMARK    3  A    between atoms: N_8  and  C_9
REMARK    4  A    between atoms: C_9  and  C_10
REMARK    5  A    between atoms: C_10  and  C_13
REMARK    6  A    between atoms: C_17  and  C_18
REMARK                            x       y       z     vdW  Elec       q    Type
REMARK                         _______ _______ _______ _____ _____    ______ ____
ROOT
ATOM      1  C   UNL     1      44.809   4.379  12.526  0.00  0.00    +0.000 C 
ATOM      2  F   UNL     1      43.981   4.472  13.609  0.00  0.00    +0.000 F 
ATOM      3  F   UNL     1      45.213   3.065  12.508  0.00  0.00    +0.000 F 
ENDROOT
BRANCH   1   4
ATOM      4  C   UNL     1      45.989   5.322  12.648  0.00  0.00    +0.000 A 
ATOM      5  C   UNL     1      46.298   6.223  11.623  0.00  0.00    +0.000 A 
ATOM      6  C   UNL     1      47.388   7.080  11.748  0.00  0.00    +0.000 A 
ATOM      7  C   UNL     1      48.171   7.057  12.905  0.00  0.00    +0.000 A 
ATOM      8  C   UNL     1      47.886   6.183  13.972  0.00  0.00    +0.000 A 
ATOM      9  C   UNL     1      46.799   5.305  13.793  0.00  0.00    +0.000 A 
ATOM     10  F   UNL     1      46.489   4.436  14.768  0.00  0.00    +0.000 F 
BRANCH   8  11
ATOM     11  C   UNL     1      48.666   6.233  15.231  0.00  0.00    +0.000 A 
ATOM     12  C   UNL     1      49.835   7.006  15.344  0.00  0.00    +0.000 A 
ATOM     13  C   UNL     1      50.538   7.077  16.548  0.00  0.00    +0.000 A 
ATOM     14  C   UNL     1      50.054   6.369  17.630  0.00  0.00    +0.000 A 
ATOM     15  N   UNL     1      48.946   5.605  17.580  0.00  0.00    +0.000 NA
ATOM     16  C   UNL     1      48.289   5.554  16.393  0.00  0.00    +0.000 A 
ENDBRANCH   8  11
ENDBRANCH   1   4
BRANCH   1  17
ATOM     17  C   UNL     1      43.991   4.618  11.228  0.00  0.00    +0.000 C 
BRANCH  17  18
ATOM     18  N   UNL     1      43.790   3.397  10.426  0.00  0.00    +0.000 N 
ATOM     19  H   UNL     1      43.423   2.600  10.943  0.00  0.00    +0.000 HD
BRANCH  18  23
ATOM     20  C   UNL     1      46.561   2.562   7.356  0.00  0.00    +0.000 A 
ATOM     21  C   UNL     1      46.085   1.521   8.156  0.00  0.00    +0.000 A 
ATOM     22  C   UNL     1      45.151   1.783   9.165  0.00  0.00    +0.000 A 
ATOM     23  C   UNL     1      44.648   3.072   9.381  0.00  0.00    +0.000 A 
ATOM     24  C   UNL     1      45.158   4.108   8.586  0.00  0.00    +0.000 A 
ATOM     25  C   UNL     1      46.107   3.862   7.586  0.00  0.00    +0.000 A 
BRANCH  20  27
ATOM     26  N   UNL     1      47.553   3.183   5.222  0.00  0.00    +0.000 N 
ATOM     27  C   UNL     1      47.566   2.329   6.291  0.00  0.00    +0.000 C 
ATOM     28  O   UNL     1      48.401   1.435   6.373  0.00  0.00    +0.000 OA
ATOM     29  H   UNL     1      48.310   3.081   4.560  0.00  0.00    +0.000 HD
ATOM     30  H   UNL     1      47.060   4.065   5.242  0.00  0.00    +0.000 HD
ENDBRANCH  20  27
ENDBRANCH  18  23
ENDBRANCH  17  18
ENDBRANCH   1  17
TORSDOF 6
ENDMDL
MODEL 4
REMARK VINA RESULT:    -8.344      2.136      2.765
REMARK INTER + INTRA:         -12.213
REMARK INTER:                 -11.286
REMARK INTRA:                  -0.927
REMARK UNBOUND:                -0.942
REMARK  Name = 
REMARK  6 active torsions:
REMARK  status: ('A' for Active; 'I' for Inactive)
REMARK    1  A    between atoms: C_2  and  C_4
REMARK    2  A    between atoms: C_7  and  N_8
REMARK    3  A    between atoms: N_8  and  C_9
REMARK    4  A    between atoms: C_9  and  C_10
REMARK    5  A    between atoms: C_10  and  C_13
REMARK    6  A    between atoms: C_17  and  C_18
REMARK                            x       y       z     vdW  Elec       q    Type
REMARK                         _______ _______ _______ _____ _____    ______ ____
ROOT
ATOM      1  C   UNL     1      44.370   4.212  12.474  0.00  0.00    +0.000 C 
ATOM      2  F   UNL     1      43.662   4.134  13.639  0.00  0.00    +0.000 F 
ATOM      3  F   UNL     1      45.272   3.177  12.545  0.00  0.00    +0.000 F 
ENDROOT
BRANCH   1   4
ATOM      4  C   UNL     1      45.067   5.549  12.337  0.00  0.00    +0.000 A 
ATOM      5  C   UNL     1      44.457   6.614  11.665  0.00  0.00    +0.000 A 
ATOM      6  C   UNL     1      45.113   7.836  11.544  0.00  0.00    +0.000 A 
ATOM      7  C   UNL     1      46.380   8.012  12.108  0.00  0.00    +0.000 A 
ATOM      8  C   UNL     1      47.024   6.978  12.812  0.00  0.00    +0.000 A 
ATOM      9  C   UNL     1      46.346   5.745  12.881  0.00  0.00    +0.000 A 
ATOM     10  F   UNL     1      46.918   4.715  13.524  0.00  0.00    +0.000 F 
BRANCH   8  11
ATOM     11  C   UNL     1      48.325   7.206  13.485  0.00  0.00    +0.000 A 
ATOM     12  C   UNL     1      49.415   7.781  12.809  0.00  0.00    +0.000 A 
ATOM     13  C   UNL     1      50.622   8.027  13.465  0.00  0.00    +0.000 A 
ATOM     14  C   UNL     1      50.718   7.695  14.802  0.00  0.00    +0.000 A 
ATOM     15  N   UNL     1      49.713   7.134  15.501  0.00  0.00    +0.000 NA
ATOM     16  C   UNL     1      48.554   6.902  14.830  0.00  0.00    +0.000 A 
ENDBRANCH   8  11
ENDBRANCH   1   4
BRANCH   1  17
ATOM     17  C   UNL     1      43.429   3.909  11.276  0.00  0.00    +0.000 C 
BRANCH  17  18
ATOM     18  N   UNL     1      43.822   2.715  10.506  0.00  0.00    +0.000 N 
ATOM     19  H   UNL     1      43.845   1.848  11.040  0.00  0.00    +0.000 HD
BRANCH  18  23
ATOM     20  C   UNL     1      46.519   2.799   7.263  0.00  0.00    +0.000 A 
ATOM     21  C   UNL     1      45.919   3.986   7.690  0.00  0.00    +0.000 A 
ATOM     22  C   UNL     1      45.037   3.973   8.777  0.00  0.00    +0.000 A 
ATOM     23  C   UNL     1      44.757   2.795   9.480  0.00  0.00    +0.000 A 
ATOM     24  C   UNL     1      45.349   1.610   9.020  0.00  0.00    +0.000 A 
ATOM     25  C   UNL     1      46.217   1.606   7.921  0.00  0.00    +0.000 A 
BRANCH  20  27
ATOM     26  N   UNL     1      48.750   2.456   6.354  0.00  0.00    +0.000 N 
ATOM     27  C   UNL     1      47.442   2.768   6.103  0.00  0.00    +0.000 C 
ATOM     28  O   UNL     1      47.051   2.974   4.959  0.00  0.00    +0.000 OA
ATOM     29  H   UNL     1      49.342   2.331   5.544  0.00  0.00    +0.000 HD
ATOM     30  H   UNL     1      49.048   2.039   7.225  0.00  0.00    +0.000 HD
ENDBRANCH  20  27
ENDBRANCH  18  23
ENDBRANCH  17  18
ENDBRANCH   1  17
TORSDOF 6
ENDMDL
MODEL 5
REMARK VINA RESULT:    -8.042      2.699      3.615
REMARK INTER + INTRA:         -11.805
REMARK INTER:                 -11.092
REMARK INTRA:                  -0.713
REMARK UNBOUND:                -0.942
REMARK  Name = 
REMARK  6 active torsions:
REMARK  status: ('A' for Active; 'I' for Inactive)
REMARK    1  A    between atoms: C_2  and  C_4
REMARK    2  A    between atoms: C_7  and  N_8
REMARK    3  A    between atoms: N_8  and  C_9
REMARK    4  A    between atoms: C_9  and  C_10
REMARK    5  A    between atoms: C_10  and  C_13
REMARK    6  A    between atoms: C_17  and  C_18
REMARK                            x       y       z     vdW  Elec       q    Type
REMARK                         _______ _______ _______ _____ _____    ______ ____
ROOT
ATOM      1  C   UNL     1      45.023   5.604  12.187  0.00  0.00    +0.000 C 
ATOM      2  F   UNL     1      44.325   5.431  13.348  0.00  0.00    +0.000 F 
ATOM      3  F   UNL     1      45.910   4.554  12.154  0.00  0.00    +0.000 F 
ENDROOT
BRANCH   1   4
ATOM      4  C   UNL     1      45.740   6.938  12.163  0.00  0.00    +0.000 A 
ATOM      5  C   UNL     1      45.030   8.133  12.006  0.00  0.00    +0.000 A 
ATOM      6  C   UNL     1      45.704   9.351  11.983  0.00  0.00    +0.000 A 
ATOM      7  C   UNL     1      47.093   9.389  12.132  0.00  0.00    +0.000 A 
ATOM      8  C   UNL     1      47.847   8.214  12.314  0.00  0.00    +0.000 A 
ATOM      9  C   UNL     1      47.136   6.999  12.295  0.00  0.00    +0.000 A 
ATOM     10  F   UNL     1      47.802   5.844  12.446  0.00  0.00    +0.000 F 
BRANCH   8  11
ATOM     11  C   UNL     1      49.307   8.274  12.565  0.00  0.00    +0.000 A 
ATOM     12  C   UNL     1      50.232   8.389  11.513  0.00  0.00    +0.000 A 
ATOM     13  C   UNL     1      51.602   8.485  11.766  0.00  0.00    +0.000 A 
ATOM     14  C   UNL     1      52.027   8.468  13.079  0.00  0.00    +0.000 A 
ATOM     15  N   UNL     1      51.190   8.351  14.128  0.00  0.00    +0.000 NA
ATOM     16  C   UNL     1      49.864   8.254  13.847  0.00  0.00    +0.000 A 
ENDBRANCH   8  11
ENDBRANCH   1   4
BRANCH   1  17
ATOM     17  C   UNL     1      44.066   5.424  10.977  0.00  0.00    +0.000 C 
BRANCH  17  18
ATOM     18  N   UNL     1      43.945   4.026  10.524  0.00  0.00    +0.000 N 
ATOM     19  H   UNL     1      43.727   3.354  11.258  0.00  0.00    +0.000 HD
BRANCH  18  23
ATOM     20  C   UNL     1      46.546   2.649   7.501  0.00  0.00    +0.000 A 
ATOM     21  C   UNL     1      45.912   1.727   8.336  0.00  0.00    +0.000 A 
ATOM     22  C   UNL     1      45.032   2.171   9.330  0.00  0.00    +0.000 A 
ATOM     23  C   UNL     1      44.740   3.530   9.496  0.00  0.00    +0.000 A 
ATOM     24  C   UNL     1      45.408   4.442   8.667  0.00  0.00    +0.000 A 
ATOM     25  C   UNL     1      46.305   4.012   7.681  0.00  0.00    +0.000 A 
BRANCH  20  27
ATOM     26  N   UNL     1      47.740   3.097   5.428  0.00  0.00    +0.000 N 
ATOM     27  C   UNL     1      47.501   2.220   6.450  0.00  0.00    +0.000 C 
ATOM     28  O   UNL     1      48.085   1.144   6.506  0.00  0.00    +0.000 OA
ATOM     29  H   UNL     1      48.472   2.839   4.780  0.00  0.00    +0.000 HD
ATOM     30  H   UNL     1      47.480   4.072   5.481  0.00  0.00    +0.000 HD
ENDBRANCH  20  27
ENDBRANCH  18  23
ENDBRANCH  17  18
ENDBRANCH   1  17
TORSDOF 6
ENDMDL
MODEL 6
REMARK VINA RESULT:    -7.664      2.661      7.024
REMARK INTER + INTRA:         -11.294
REMARK INTER:                 -10.641
REMARK INTRA:                  -0.653
REMARK UNBOUND:                -0.942
REMARK  Name = 
REMARK  6 active torsions:
REMARK  status: ('A' for Active; 'I' for Inactive)
REMARK    1  A    between atoms: C_2  and  C_4
REMARK    2  A    between atoms: C_7  and  N_8
REMARK    3  A    between atoms: N_8  and  C_9
REMARK    4  A    between atoms: C_9  and  C_10
REMARK    5  A    between atoms: C_10  and  C_13
REMARK    6  A    between atoms: C_17  and  C_18
REMARK                            x       y       z     vdW  Elec       q    Type
REMARK                         _______ _______ _______ _____ _____    ______ ____
ROOT
ATOM      1  C   UNL     1      44.610   6.803  11.379  0.00  0.00    +0.000 C 
ATOM      2  F   UNL     1      43.436   7.490  11.264  0.00  0.00    +0.000 F 
ATOM      3  F   UNL     1      45.470   7.435  10.512  0.00  0.00    +0.000 F 
ENDROOT
BRANCH   1   4
ATOM      4  C   UNL     1      44.435   5.341  11.022  0.00  0.00    +0.000 A 
ATOM      5  C   UNL     1      43.527   4.534  11.717  0.00  0.00    +0.000 A 
ATOM      6  C   UNL     1      43.381   3.192  11.379  0.00  0.00    +0.000 A 
ATOM      7  C   UNL     1      44.129   2.644  10.332  0.00  0.00    +0.000 A 
ATOM      8  C   UNL     1      45.038   3.422   9.591  0.00  0.00    +0.000 A 
ATOM      9  C   UNL     1      45.187   4.766   9.986  0.00  0.00    +0.000 A 
ATOM     10  F   UNL     1      46.052   5.553   9.328  0.00  0.00    +0.000 F 
BRANCH   8  11
ATOM     11  C   UNL     1      45.755   2.855   8.424  0.00  0.00    +0.000 A 
ATOM     12  C   UNL     1      46.104   3.647   7.316  0.00  0.00    +0.000 A 
ATOM     13  C   UNL     1      46.814   3.110   6.242  0.00  0.00    +0.000 A 
ATOM     14  C   UNL     1      47.170   1.776   6.294  0.00  0.00    +0.000 A 
ATOM     15  N   UNL     1      46.856   0.966   7.323  0.00  0.00    +0.000 NA
ATOM     16  C   UNL     1      46.160   1.519   8.350  0.00  0.00    +0.000 A 
ENDBRANCH   8  11
ENDBRANCH   1   4
BRANCH   1  17
ATOM     17  C   UNL     1      45.186   6.999  12.808  0.00  0.00    +0.000 C 
BRANCH  17  18
ATOM     18  N   UNL     1      46.617   6.663  12.918  0.00  0.00    +0.000 N 
ATOM     19  H   UNL     1      47.132   6.687  12.039  0.00  0.00    +0.000 HD
BRANCH  18  23
ATOM     20  C   UNL     1      47.872   3.931  15.877  0.00  0.00    +0.000 A 
ATOM     21  C   UNL     1      47.088   3.481  14.813  0.00  0.00    +0.000 A 
ATOM     22  C   UNL     1      46.682   4.375  13.815  0.00  0.00    +0.000 A 
ATOM     23  C   UNL     1      47.068   5.720  13.834  0.00  0.00    +0.000 A 
ATOM     24  C   UNL     1      47.833   6.159  14.925  0.00  0.00    +0.000 A 
ATOM     25  C   UNL     1      48.229   5.279  15.940  0.00  0.00    +0.000 A 
BRANCH  20  27
ATOM     26  N   UNL     1      47.400   2.756  17.956  0.00  0.00    +0.000 N 
ATOM     27  C   UNL     1      48.306   3.021  16.965  0.00  0.00    +0.000 C 
ATOM     28  O   UNL     1      49.413   2.494  16.965  0.00  0.00    +0.000 OA
ATOM     29  H   UNL     1      47.669   2.052  18.629  0.00  0.00    +0.000 HD
ATOM     30  H   UNL     1      46.416   2.963  17.858  0.00  0.00    +0.000 HD
ENDBRANCH  20  27
ENDBRANCH  18  23
ENDBRANCH  17  18
ENDBRANCH   1  17
TORSDOF 6
ENDMDL
MODEL 7
REMARK VINA RESULT:    -7.549      3.321      7.290
REMARK INTER + INTRA:         -11.138
REMARK INTER:                 -10.627
REMARK INTRA:                  -0.511
REMARK UNBOUND:                -0.942
REMARK  Name = 
REMARK  6 active torsions:
REMARK  status: ('A' for Active; 'I' for Inactive)
REMARK    1  A    between atoms: C_2  and  C_4
REMARK    2  A    between atoms: C_7  and  N_8
REMARK    3  A    between atoms: N_8  and  C_9
REMARK    4  A    between atoms: C_9  and  C_10
REMARK    5  A    between atoms: C_10  and  C_13
REMARK    6  A    between atoms: C_17  and  C_18
REMARK                            x       y       z     vdW  Elec       q    Type
REMARK                         _______ _______ _______ _____ _____    ______ ____
ROOT
ATOM      1  C   UNL     1      44.495   6.358  11.418  0.00  0.00    +0.000 C 
ATOM      2  F   UNL     1      43.300   7.009  11.307  0.00  0.00    +0.000 F 
ATOM      3  F   UNL     1      45.358   7.077  10.626  0.00  0.00    +0.000 F 
ENDROOT
BRANCH   1   4
ATOM      4  C   UNL     1      44.388   4.918  10.959  0.00  0.00    +0.000 A 
ATOM      5  C   UNL     1      43.512   4.026  11.587  0.00  0.00    +0.000 A 
ATOM      6  C   UNL     1      43.428   2.705  11.155  0.00  0.00    +0.000 A 
ATOM      7  C   UNL     1      44.206   2.265  10.080  0.00  0.00    +0.000 A 
ATOM      8  C   UNL     1      45.085   3.132   9.403  0.00  0.00    +0.000 A 
ATOM      9  C   UNL     1      45.171   4.450   9.892  0.00  0.00    +0.000 A 
ATOM     10  F   UNL     1      46.005   5.319   9.299  0.00  0.00    +0.000 F 
BRANCH   8  11
ATOM     11  C   UNL     1      45.834   2.680   8.207  0.00  0.00    +0.000 A 
ATOM     12  C   UNL     1      46.030   3.521   7.098  0.00  0.00    +0.000 A 
ATOM     13  C   UNL     1      46.771   3.097   5.994  0.00  0.00    +0.000 A 
ATOM     14  C   UNL     1      47.313   1.827   6.020  0.00  0.00    +0.000 A 
ATOM     15  N   UNL     1      47.152   0.973   7.048  0.00  0.00    +0.000 NA
ATOM     16  C   UNL     1      46.421   1.416   8.104  0.00  0.00    +0.000 A 
ENDBRANCH   8  11
ENDBRANCH   1   4
BRANCH   1  17
ATOM     17  C   UNL     1      45.015   6.477  12.877  0.00  0.00    +0.000 C 
BRANCH  17  18
ATOM     18  N   UNL     1      46.210   5.656  13.145  0.00  0.00    +0.000 N 
ATOM     19  H   UNL     1      46.040   4.819  13.700  0.00  0.00    +0.000 HD
BRANCH  18  23
ATOM     20  C   UNL     1      49.905   7.635  13.626  0.00  0.00    +0.000 A 
ATOM     21  C   UNL     1      49.257   7.104  14.744  0.00  0.00    +0.000 A 
ATOM     22  C   UNL     1      48.040   6.429  14.594  0.00  0.00    +0.000 A 
ATOM     23  C   UNL     1      47.458   6.239  13.335  0.00  0.00    +0.000 A 
ATOM     24  C   UNL     1      48.109   6.802  12.228  0.00  0.00    +0.000 A 
ATOM     25  C   UNL     1      49.317   7.497  12.367  0.00  0.00    +0.000 A 
BRANCH  20  27
ATOM     26  N   UNL     1      52.107   8.192  12.752  0.00  0.00    +0.000 N 
ATOM     27  C   UNL     1      51.185   8.375  13.745  0.00  0.00    +0.000 C 
ATOM     28  O   UNL     1      51.401   9.148  14.672  0.00  0.00    +0.000 OA
ATOM     29  H   UNL     1      52.926   8.784  12.789  0.00  0.00    +0.000 HD
ATOM     30  H   UNL     1      51.868   7.772  11.864  0.00  0.00    +0.000 HD
ENDBRANCH  20  27
ENDBRANCH  18  23
ENDBRANCH  17  18
ENDBRANCH   1  17
TORSDOF 6
ENDMDL
MODEL 8
REMARK VINA RESULT:    -6.995      3.402      7.723
REMARK INTER + INTRA:         -10.391
REMARK INTER:                  -9.687
REMARK INTRA:                  -0.704
REMARK UNBOUND:                -0.942
REMARK  Name = 
REMARK  6 active torsions:
REMARK  status: ('A' for Active; 'I' for Inactive)
REMARK    1  A    between atoms: C_2  and  C_4
REMARK    2  A    between atoms: C_7  and  N_8
REMARK    3  A    between atoms: N_8  and  C_9
REMARK    4  A    between atoms: C_9  and  C_10
REMARK    5  A    between atoms: C_10  and  C_13
REMARK    6  A    between atoms: C_17  and  C_18
REMARK                            x       y       z     vdW  Elec       q    Type
REMARK                         _______ _______ _______ _____ _____    ______ ____
ROOT
ATOM      1  C   UNL     1      48.028   6.853  14.434  0.00  0.00    +0.000 C 
ATOM      2  F   UNL     1      48.239   7.950  15.219  0.00  0.00    +0.000 F 
ATOM      3  F   UNL     1      49.251   6.595  13.861  0.00  0.00    +0.000 F 
ENDROOT
BRANCH   1   4
ATOM      4  C   UNL     1      46.967   7.116  13.385  0.00  0.00    +0.000 A 
ATOM      5  C   UNL     1      46.414   8.392  13.226  0.00  0.00    +0.000 A 
ATOM      6  C   UNL     1      45.437   8.617  12.260  0.00  0.00    +0.000 A 
ATOM      7  C   UNL     1      45.014   7.573  11.432  0.00  0.00    +0.000 A 
ATOM      8  C   UNL     1      45.557   6.279  11.540  0.00  0.00    +0.000 A 
ATOM      9  C   UNL     1      46.515   6.080  12.554  0.00  0.00    +0.000 A 
ATOM     10  F   UNL     1      47.056   4.863  12.718  0.00  0.00    +0.000 F 
BRANCH   8  11
ATOM     11  C   UNL     1      45.168   5.205  10.595  0.00  0.00    +0.000 A 
ATOM     12  C   UNL     1      45.716   5.126   9.303  0.00  0.00    +0.000 A 
ATOM     13  C   UNL     1      45.372   4.087   8.437  0.00  0.00    +0.000 A 
ATOM     14  C   UNL     1      44.479   3.132   8.884  0.00  0.00    +0.000 A 
ATOM     15  N   UNL     1      43.914   3.160  10.106  0.00  0.00    +0.000 NA
ATOM     16  C   UNL     1      44.267   4.188  10.921  0.00  0.00    +0.000 A 
ENDBRANCH   8  11
ENDBRANCH   1   4
BRANCH   1  17
ATOM     17  C   UNL     1      47.684   5.634  15.332  0.00  0.00    +0.000 C 
BRANCH  17  18
ATOM     18  N   UNL     1      48.350   5.664  16.647  0.00  0.00    +0.000 N 
ATOM     19  H   UNL     1      48.537   6.596  17.012  0.00  0.00    +0.000 HD
BRANCH  18  23
ATOM     20  C   UNL     1      51.167   2.642  17.500  0.00  0.00    +0.000 A 
ATOM     21  C   UNL     1      51.542   3.982  17.607  0.00  0.00    +0.000 A 
ATOM     22  C   UNL     1      50.611   4.994  17.345  0.00  0.00    +0.000 A 
ATOM     23  C   UNL     1      49.285   4.699  17.004  0.00  0.00    +0.000 A 
ATOM     24  C   UNL     1      48.936   3.347  16.875  0.00  0.00    +0.000 A 
ATOM     25  C   UNL     1      49.863   2.326  17.115  0.00  0.00    +0.000 A 
BRANCH  20  27
ATOM     26  N   UNL     1      51.612   0.329  18.115  0.00  0.00    +0.000 N 
ATOM     27  C   UNL     1      52.130   1.541  17.749  0.00  0.00    +0.000 C 
ATOM     28  O   UNL     1      53.338   1.692  17.600  0.00  0.00    +0.000 OA
ATOM     29  H   UNL     1      52.269  -0.437  18.174  0.00  0.00    +0.000 HD
ATOM     30  H   UNL     1      50.634   0.104  18.001  0.00  0.00    +0.000 HD
ENDBRANCH  20  27
ENDBRANCH  18  23
ENDBRANCH  17  18
ENDBRANCH   1  17
TORSDOF 6
ENDMDL
MODEL 9
REMARK VINA RESULT:    -6.806      3.033      4.447
REMARK INTER + INTRA:         -10.136
REMARK INTER:                  -8.824
REMARK INTRA:                  -1.312
REMARK UNBOUND:                -0.942
REMARK  Name = 
REMARK  6 active torsions:
REMARK  status: ('A' for Active; 'I' for Inactive)
REMARK    1  A    between atoms: C_2  and  C_4
REMARK    2  A    between atoms: C_7  and  N_8
REMARK    3  A    between atoms: N_8  and  C_9
REMARK    4  A    between atoms: C_9  and  C_10
REMARK    5  A    between atoms: C_10  and  C_13
REMARK    6  A    between atoms: C_17  and  C_18
REMARK                            x       y       z     vdW  Elec       q    Type
REMARK                         _______ _______ _______ _____ _____    ______ ____
ROOT
ATOM      1  C   UNL     1      48.376   8.183  12.503  0.00  0.00    +0.000 C 
ATOM      2  F   UNL     1      48.633   7.028  11.821  0.00  0.00    +0.000 F 
ATOM      3  F   UNL     1      49.272   9.094  11.995  0.00  0.00    +0.000 F 
ENDROOT
BRANCH   1   4
ATOM      4  C   UNL     1      48.557   7.997  13.995  0.00  0.00    +0.000 A 
ATOM      5  C   UNL     1      48.840   9.087  14.826  0.00  0.00    +0.000 A 
ATOM      6  C   UNL     1      49.007   8.900  16.195  0.00  0.00    +0.000 A 
ATOM      7  C   UNL     1      48.877   7.624  16.752  0.00  0.00    +0.000 A 
ATOM      8  C   UNL     1      48.572   6.502  15.959  0.00  0.00    +0.000 A 
ATOM      9  C   UNL     1      48.447   6.724  14.574  0.00  0.00    +0.000 A 
ATOM     10  F   UNL     1      48.174   5.689  13.764  0.00  0.00    +0.000 F 
BRANCH   8  11
ATOM     11  C   UNL     1      48.344   5.172  16.572  0.00  0.00    +0.000 A 
ATOM     12  C   UNL     1      49.338   4.530  17.331  0.00  0.00    +0.000 A 
ATOM     13  C   UNL     1      49.097   3.295  17.937  0.00  0.00    +0.000 A 
ATOM     14  C   UNL     1      47.852   2.720  17.775  0.00  0.00    +0.000 A 
ATOM     15  N   UNL     1      46.864   3.281  17.053  0.00  0.00    +0.000 NA
ATOM     16  C   UNL     1      47.134   4.480  16.472  0.00  0.00    +0.000 A 
ENDBRANCH   8  11
ENDBRANCH   1   4
BRANCH   1  17
ATOM     17  C   UNL     1      46.956   8.694  12.137  0.00  0.00    +0.000 C 
BRANCH  17  18
ATOM     18  N   UNL     1      45.875   7.993  12.851  0.00  0.00    +0.000 N 
ATOM     19  H   UNL     1      45.884   8.108  13.863  0.00  0.00    +0.000 HD
BRANCH  18  23
ATOM     20  C   UNL     1      44.638   4.231  11.397  0.00  0.00    +0.000 A 
ATOM     21  C   UNL     1      44.634   4.472  12.772  0.00  0.00    +0.000 A 
ATOM     22  C   UNL     1      45.024   5.723  13.265  0.00  0.00    +0.000 A 
ATOM     23  C   UNL     1      45.395   6.766  12.407  0.00  0.00    +0.000 A 
ATOM     24  C   UNL     1      45.419   6.495  11.032  0.00  0.00    +0.000 A 
ATOM     25  C   UNL     1      45.050   5.242  10.527  0.00  0.00    +0.000 A 
BRANCH  20  27
ATOM     26  N   UNL     1      43.391   2.148  11.574  0.00  0.00    +0.000 N 
ATOM     27  C   UNL     1      44.252   2.913  10.836  0.00  0.00    +0.000 C 
ATOM     28  O   UNL     1      44.653   2.533   9.741  0.00  0.00    +0.000 OA
ATOM     29  H   UNL     1      43.052   1.305  11.132  0.00  0.00    +0.000 HD
ATOM     30  H   UNL     1      42.853   2.528  12.340  0.00  0.00    +0.000 HD
ENDBRANCH  20  27
ENDBRANCH  18  23
ENDBRANCH  17  18
ENDBRANCH   1  17
TORSDOF 6
ENDMDL
