MODEL 1
REMARK VINA RESULT:    -8.060      0.000      0.000
REMARK INTER + INTRA:         -12.703
REMARK INTER:                 -11.358
REMARK INTRA:                  -1.346
REMARK UNBOUND:                -1.346
REMARK  Name = 
REMARK  7 active torsions:
REMARK  status: ('A' for Active; 'I' for Inactive)
REMARK    1  A    between atoms: C_2  and  C_20
REMARK    2  A    between atoms: N_3  and  C_4
REMARK    3  A    between atoms: C_4  and  C_5
REMARK    4  A    between atoms: C_8  and  C_9
REMARK    5  A    between atoms: C_9  and  O_10
REMARK    6  A    between atoms: O_10  and  C_11
REMARK    7  A    between atoms: C_11  and  C_12
REMARK                            x       y       z     vdW  Elec       q    Type
REMARK                         _______ _______ _______ _____ _____    ______ ____
ROOT
ATOM      1  C   UNL     1      47.286   8.448  13.036  0.00  0.00    +0.000 C 
ENDROOT
BRANCH   1   2
ATOM      2  C   UNL     1      46.420   7.401  12.394  0.00  0.00    +0.000 A 
ATOM      3  C   UNL     1      46.884   6.616  11.339  0.00  0.00    +0.000 A 
ATOM      4  C   UNL     1      46.051   5.649  10.778  0.00  0.00    +0.000 A 
ATOM      5  C   UNL     1      44.754   5.505  11.269  0.00  0.00    +0.000 A 
ATOM      6  N   UNL     1      44.261   6.300  12.252  0.00  0.00    +0.000 NA
ATOM      7  C   UNL     1      45.099   7.216  12.791  0.00  0.00    +0.000 A 
BRANCH   5   8
ATOM      8  C   UNL     1      43.843   4.432  10.717  0.00  0.00    +0.000 C 
BRANCH   8   9
ATOM      9  O   UNL     1      44.341   4.000   9.449  0.00  0.00    +0.000 OA
BRANCH   9  10
ATOM     10  C   UNL     1      44.552   2.588   9.416  0.00  0.00    +0.000 C 
BRANCH  10  11
ATOM     11  C   UNL     1      45.664   2.244   8.451  0.00  0.00    +0.000 A 
ATOM     12  C   UNL     1      46.305   3.233   7.728  0.00  0.00    +0.000 A 
ATOM     13  C   UNL     1      47.317   2.822   6.883  0.00  0.00    +0.000 A 
ATOM     14  N   UNL     1      47.698   1.539   6.758  0.00  0.00    +0.000 NA
ATOM     15  C   UNL     1      47.027   0.657   7.514  0.00  0.00    +0.000 A 
ATOM     16  N   UNL     1      46.027   0.943   8.363  0.00  0.00    +0.000 NA
ENDBRANCH  10  11
ENDBRANCH   9  10
ENDBRANCH   8   9
ENDBRANCH   5   8
ENDBRANCH   1   2
BRANCH   1  19
ATOM     17  O   UNL     1      49.519   6.868  13.849  0.00  0.00    +0.000 OA
ATOM     18  C   UNL     1      48.667   7.201  14.654  0.00  0.00    +0.000 C 
ATOM     19  N   UNL     1      47.615   8.054  14.376  0.00  0.00    +0.000 N 
ATOM     20  H   UNL     1      46.849   8.070  15.035  0.00  0.00    +0.000 HD
BRANCH  18  21
ATOM     21  C   UNL     1      48.477   6.570  15.955  0.00  0.00    +0.000 A 
ATOM     22  C   UNL     1      48.862   7.171  17.141  0.00  0.00    +0.000 A 
ATOM     23  S   UNL     1      49.182   5.993  18.351  0.00  0.00    +0.000 S 
ATOM     24  C   UNL     1      48.627   4.729  17.351  0.00  0.00    +0.000 A 
ATOM     25  N   UNL     1      48.760   3.416  17.678  0.00  0.00    +0.000 NA
ATOM     26  C   UNL     1      48.213   2.602  16.835  0.00  0.00    +0.000 A 
ATOM     27  N   UNL     1      47.500   2.980  15.721  0.00  0.00    +0.000 N 
ATOM     28  C   UNL     1      47.355   4.292  15.337  0.00  0.00    +0.000 A 
ATOM     29  O   UNL     1      46.681   4.620  14.368  0.00  0.00    +0.000 OA
ATOM     30  C   UNL     1      48.061   5.222  16.195  0.00  0.00    +0.000 A 
ATOM     31  H   UNL     1      47.022   2.295  15.154  0.00  0.00    +0.000 HD
ENDBRANCH  18  21
ENDBRANCH   1  19
TORSDOF 7
ENDMDL
MODEL 2
REMARK VINA RESULT:    -7.902      1.560      1.724
REMARK INTER + INTRA:         -12.481
REMARK INTER:                 -11.664
REMARK INTRA:                  -0.817
REMARK UNBOUND:                -1.346
REMARK  Name = 
REMARK  7 active torsions:
REMARK  status: ('A' for Active; 'I' for Inactive)
REMARK    1  A    between atoms: C_2  and  C_20
REMARK    2  A    between atoms: N_3  and  C_4
REMARK    3  A    between atoms: C_4  and  C_5
REMARK    4  A    between atoms: C_8  and  C_9
REMARK    5  A    between atoms: C_9  and  O_10
REMARK    6  A    between atoms: O_10  and  C_11
REMARK    7  A    between atoms: C_11  and  C_12
REMARK                            x       y       z     vdW  Elec       q    Type
REMARK                         _______ _______ _______ _____ _____    ______ ____
ROOT
ATOM      1  C   UNL     1      47.890   7.043  13.902  0.00  0.00    +0.000 C 
ENDROOT
BRANCH   1   2
ATOM      2  C   UNL     1      46.885   6.198  13.169  0.00  0.00    +0.000 A 
ATOM      3  C   UNL     1      46.343   6.602  11.950  0.00  0.00    +0.000 A 
ATOM      4  C   UNL     1      45.421   5.784  11.299  0.00  0.00    +0.000 A 
ATOM      5  C   UNL     1      45.039   4.584  11.897  0.00  0.00    +0.000 A 
ATOM      6  N   UNL     1      45.507   4.202  13.111  0.00  0.00    +0.000 NA
ATOM      7  C   UNL     1      46.415   5.006  13.710  0.00  0.00    +0.000 A 
BRANCH   5   8
ATOM      8  C   UNL     1      44.081   3.651  11.192  0.00  0.00    +0.000 C 
BRANCH   8   9
ATOM      9  O   UNL     1      44.825   2.743  10.376  0.00  0.00    +0.000 OA
BRANCH   9  10
ATOM     10  C   UNL     1      44.622   2.994   8.985  0.00  0.00    +0.000 C 
BRANCH  10  11
ATOM     11  C   UNL     1      45.768   2.430   8.176  0.00  0.00    +0.000 A 
ATOM     12  C   UNL     1      46.537   3.251   7.372  0.00  0.00    +0.000 A 
ATOM     13  C   UNL     1      47.571   2.648   6.682  0.00  0.00    +0.000 A 
ATOM     14  N   UNL     1      47.855   1.337   6.778  0.00  0.00    +0.000 NA
ATOM     15  C   UNL     1      47.062   0.629   7.597  0.00  0.00    +0.000 A 
ATOM     16  N   UNL     1      46.030   1.109   8.310  0.00  0.00    +0.000 NA
ENDBRANCH  10  11
ENDBRANCH   9  10
ENDBRANCH   8   9
ENDBRANCH   5   8
ENDBRANCH   1   2
BRANCH   1  19
ATOM     17  O   UNL     1      48.659   8.252  16.370  0.00  0.00    +0.000 OA
ATOM     18  C   UNL     1      48.770   7.049  16.205  0.00  0.00    +0.000 C 
ATOM     19  N   UNL     1      48.322   6.365  15.090  0.00  0.00    +0.000 N 
ATOM     20  H   UNL     1      48.674   5.428  14.953  0.00  0.00    +0.000 HD
BRANCH  18  21
ATOM     21  C   UNL     1      49.602   6.182  17.032  0.00  0.00    +0.000 A 
ATOM     22  C   UNL     1      50.796   6.602  17.590  0.00  0.00    +0.000 A 
ATOM     23  S   UNL     1      51.848   5.270  17.866  0.00  0.00    +0.000 S 
ATOM     24  C   UNL     1      50.641   4.151  17.423  0.00  0.00    +0.000 A 
ATOM     25  N   UNL     1      50.888   2.822  17.268  0.00  0.00    +0.000 NA
ATOM     26  C   UNL     1      49.837   2.116  17.004  0.00  0.00    +0.000 A 
ATOM     27  N   UNL     1      48.554   2.606  16.931  0.00  0.00    +0.000 N 
ATOM     28  C   UNL     1      48.257   3.942  17.059  0.00  0.00    +0.000 A 
ATOM     29  O   UNL     1      47.105   4.361  17.037  0.00  0.00    +0.000 OA
ATOM     30  C   UNL     1      49.428   4.776  17.235  0.00  0.00    +0.000 A 
ATOM     31  H   UNL     1      47.767   1.985  16.811  0.00  0.00    +0.000 HD
ENDBRANCH  18  21
ENDBRANCH   1  19
TORSDOF 7
ENDMDL
MODEL 3
REMARK VINA RESULT:    -7.340      2.362      3.102
REMARK INTER + INTRA:         -11.689
REMARK INTER:                 -10.645
REMARK INTRA:                  -1.044
REMARK UNBOUND:                -1.346
REMARK  Name = 
REMARK  7 active torsions:
REMARK  status: ('A' for Active; 'I' for Inactive)
REMARK    1  A    between atoms: C_2  and  C_20
REMARK    2  A    between atoms: N_3  and  C_4
REMARK    3  A    between atoms: C_4  and  C_5
REMARK    4  A    between atoms: C_8  and  C_9
REMARK    5  A    between atoms: C_9  and  O_10
REMARK    6  A    between atoms: O_10  and  C_11
REMARK    7  A    between atoms: C_11  and  C_12
REMARK                            x       y       z     vdW  Elec       q    Type
REMARK                         _______ _______ _______ _____ _____    ______ ____
ROOT
ATOM      1  C   UNL     1      47.416   4.314  15.157  0.00  0.00    +0.000 C 
ENDROOT
BRANCH   1   2
ATOM      2  C   UNL     1      46.557   4.374  13.925  0.00  0.00    +0.000 A 
ATOM      3  C   UNL     1      46.211   3.222  13.220  0.00  0.00    +0.000 A 
ATOM      4  C   UNL     1      45.404   3.321  12.088  0.00  0.00    +0.000 A 
ATOM      5  C   UNL     1      44.980   4.580  11.666  0.00  0.00    +0.000 A 
ATOM      6  N   UNL     1      45.355   5.718  12.301  0.00  0.00    +0.000 NA
ATOM      7  C   UNL     1      46.122   5.590  13.408  0.00  0.00    +0.000 A 
BRANCH   5   8
ATOM      8  C   UNL     1      44.062   4.716  10.473  0.00  0.00    +0.000 C 
BRANCH   8   9
ATOM      9  O   UNL     1      44.288   3.624   9.579  0.00  0.00    +0.000 OA
BRANCH   9  10
ATOM     10  C   UNL     1      44.852   4.061   8.342  0.00  0.00    +0.000 C 
BRANCH  10  11
ATOM     11  C   UNL     1      45.865   3.056   7.841  0.00  0.00    +0.000 A 
ATOM     12  C   UNL     1      46.836   3.426   6.928  0.00  0.00    +0.000 A 
ATOM     13  C   UNL     1      47.725   2.442   6.540  0.00  0.00    +0.000 A 
ATOM     14  N   UNL     1      47.689   1.186   7.019  0.00  0.00    +0.000 NA
ATOM     15  C   UNL     1      46.722   0.932   7.913  0.00  0.00    +0.000 A 
ATOM     16  N   UNL     1      45.804   1.806   8.357  0.00  0.00    +0.000 NA
ENDBRANCH  10  11
ENDBRANCH   9  10
ENDBRANCH   8   9
ENDBRANCH   5   8
ENDBRANCH   1   2
BRANCH   1  19
ATOM     17  O   UNL     1      49.802   5.248  16.415  0.00  0.00    +0.000 OA
ATOM     18  C   UNL     1      48.822   5.968  16.328  0.00  0.00    +0.000 C 
ATOM     19  N   UNL     1      47.667   5.642  15.641  0.00  0.00    +0.000 N 
ATOM     20  H   UNL     1      46.845   6.198  15.832  0.00  0.00    +0.000 HD
BRANCH  18  21
ATOM     21  C   UNL     1      48.614   7.169  17.128  0.00  0.00    +0.000 A 
ATOM     22  C   UNL     1      49.109   8.408  16.760  0.00  0.00    +0.000 A 
ATOM     23  S   UNL     1      49.342   9.410  18.137  0.00  0.00    +0.000 S 
ATOM     24  C   UNL     1      48.610   8.266  19.167  0.00  0.00    +0.000 A 
ATOM     25  N   UNL     1      48.607   8.387  20.521  0.00  0.00    +0.000 NA
ATOM     26  C   UNL     1      47.939   7.464  21.134  0.00  0.00    +0.000 A 
ATOM     27  N   UNL     1      47.230   6.461  20.516  0.00  0.00    +0.000 N 
ATOM     28  C   UNL     1      47.219   6.284  19.153  0.00  0.00    +0.000 A 
ATOM     29  O   UNL     1      46.548   5.413  18.611  0.00  0.00    +0.000 OA
ATOM     30  C   UNL     1      48.057   7.230  18.445  0.00  0.00    +0.000 A 
ATOM     31  H   UNL     1      46.656   5.825  21.051  0.00  0.00    +0.000 HD
ENDBRANCH  18  21
ENDBRANCH   1  19
TORSDOF 7
ENDMDL
MODEL 4
REMARK VINA RESULT:    -7.185      2.437      3.406
REMARK INTER + INTRA:         -11.472
REMARK INTER:                 -10.645
REMARK INTRA:                  -0.827
REMARK UNBOUND:                -1.346
REMARK  Name = 
REMARK  7 active torsions:
REMARK  status: ('A' for Active; 'I' for Inactive)
REMARK    1  A    between atoms: C_2  and  C_20
REMARK    2  A    between atoms: N_3  and  C_4
REMARK    3  A    between atoms: C_4  and  C_5
REMARK    4  A    between atoms: C_8  and  C_9
REMARK    5  A    between atoms: C_9  and  O_10
REMARK    6  A    between atoms: O_10  and  C_11
REMARK    7  A    between atoms: C_11  and  C_12
REMARK                            x       y       z     vdW  Elec       q    Type
REMARK                         _______ _______ _______ _____ _____    ______ ____
ROOT
ATOM      1  C   UNL     1      47.143   4.691  14.764  0.00  0.00    +0.000 C 
ENDROOT
BRANCH   1   2
ATOM      2  C   UNL     1      46.199   4.612  13.597  0.00  0.00    +0.000 A 
ATOM      3  C   UNL     1      45.426   5.705  13.208  0.00  0.00    +0.000 A 
ATOM      4  C   UNL     1      44.570   5.591  12.113  0.00  0.00    +0.000 A 
ATOM      5  C   UNL     1      44.485   4.372  11.443  0.00  0.00    +0.000 A 
ATOM      6  N   UNL     1      45.182   3.279  11.842  0.00  0.00    +0.000 NA
ATOM      7  C   UNL     1      46.020   3.424  12.895  0.00  0.00    +0.000 A 
BRANCH   5   8
ATOM      8  C   UNL     1      43.607   4.232  10.221  0.00  0.00    +0.000 C 
BRANCH   8   9
ATOM      9  O   UNL     1      44.202   3.298   9.318  0.00  0.00    +0.000 OA
BRANCH   9  10
ATOM     10  C   UNL     1      44.972   3.953   8.310  0.00  0.00    +0.000 C 
BRANCH  10  11
ATOM     11  C   UNL     1      45.950   2.986   7.682  0.00  0.00    +0.000 A 
ATOM     12  C   UNL     1      46.735   3.370   6.611  0.00  0.00    +0.000 A 
ATOM     13  C   UNL     1      47.608   2.421   6.114  0.00  0.00    +0.000 A 
ATOM     14  N   UNL     1      47.727   1.186   6.632  0.00  0.00    +0.000 NA
ATOM     15  C   UNL     1      46.934   0.916   7.680  0.00  0.00    +0.000 A 
ATOM     16  N   UNL     1      46.049   1.757   8.240  0.00  0.00    +0.000 NA
ENDBRANCH  10  11
ENDBRANCH   9  10
ENDBRANCH   8   9
ENDBRANCH   5   8
ENDBRANCH   1   2
BRANCH   1  19
ATOM     17  O   UNL     1      48.892   6.124  13.022  0.00  0.00    +0.000 OA
ATOM     18  C   UNL     1      48.530   6.611  14.080  0.00  0.00    +0.000 C 
ATOM     19  N   UNL     1      47.601   6.040  14.930  0.00  0.00    +0.000 N 
ATOM     20  H   UNL     1      47.556   6.403  15.872  0.00  0.00    +0.000 HD
BRANCH  18  21
ATOM     21  C   UNL     1      49.189   7.737  14.731  0.00  0.00    +0.000 A 
ATOM     22  C   UNL     1      48.850   9.053  14.474  0.00  0.00    +0.000 A 
ATOM     23  S   UNL     1      50.176  10.102  14.784  0.00  0.00    +0.000 S 
ATOM     24  C   UNL     1      51.108   8.829  15.429  0.00  0.00    +0.000 A 
ATOM     25  N   UNL     1      52.422   8.965  15.750  0.00  0.00    +0.000 NA
ATOM     26  C   UNL     1      52.945   7.916  16.297  0.00  0.00    +0.000 A 
ATOM     27  N   UNL     1      52.263   6.761  16.601  0.00  0.00    +0.000 N 
ATOM     28  C   UNL     1      50.941   6.568  16.278  0.00  0.00    +0.000 A 
ATOM     29  O   UNL     1      50.332   5.551  16.593  0.00  0.00    +0.000 OA
ATOM     30  C   UNL     1      50.359   7.679  15.554  0.00  0.00    +0.000 A 
ATOM     31  H   UNL     1      52.711   6.013  17.110  0.00  0.00    +0.000 HD
ENDBRANCH  18  21
ENDBRANCH   1  19
TORSDOF 7
ENDMDL
MODEL 5
REMARK VINA RESULT:    -7.159      1.652      2.102
REMARK INTER + INTRA:         -11.434
REMARK INTER:                 -10.303
REMARK INTRA:                  -1.131
REMARK UNBOUND:                -1.346
REMARK  Name = 
REMARK  7 active torsions:
REMARK  status: ('A' for Active; 'I' for Inactive)
REMARK    1  A    between atoms: C_2  and  C_20
REMARK    2  A    between atoms: N_3  and  C_4
REMARK    3  A    between atoms: C_4  and  C_5
REMARK    4  A    between atoms: C_8  and  C_9
REMARK    5  A    between atoms: C_9  and  O_10
REMARK    6  A    between atoms: O_10  and  C_11
REMARK    7  A    between atoms: C_11  and  C_12
REMARK                            x       y       z     vdW  Elec       q    Type
REMARK                         _______ _______ _______ _____ _____    ______ ____
ROOT
ATOM      1  C   UNL     1      48.324   6.592  13.388  0.00  0.00    +0.000 C 
ENDROOT
BRANCH   1   2
ATOM      2  C   UNL     1      47.054   6.123  12.734  0.00  0.00    +0.000 A 
ATOM      3  C   UNL     1      46.651   6.608  11.491  0.00  0.00    +0.000 A 
ATOM      4  C   UNL     1      45.471   6.140  10.915  0.00  0.00    +0.000 A 
ATOM      5  C   UNL     1      44.700   5.210  11.611  0.00  0.00    +0.000 A 
ATOM      6  N   UNL     1      45.041   4.772  12.849  0.00  0.00    +0.000 NA
ATOM      7  C   UNL     1      46.202   5.229  13.374  0.00  0.00    +0.000 A 
BRANCH   5   8
ATOM      8  C   UNL     1      43.443   4.644  10.992  0.00  0.00    +0.000 C 
BRANCH   8   9
ATOM      9  O   UNL     1      43.752   4.116   9.700  0.00  0.00    +0.000 OA
BRANCH   9  10
ATOM     10  C   UNL     1      44.362   2.828   9.787  0.00  0.00    +0.000 C 
BRANCH  10  11
ATOM     11  C   UNL     1      45.432   2.680   8.729  0.00  0.00    +0.000 A 
ATOM     12  C   UNL     1      45.960   1.438   8.427  0.00  0.00    +0.000 A 
ATOM     13  C   UNL     1      46.922   1.402   7.436  0.00  0.00    +0.000 A 
ATOM     14  N   UNL     1      47.334   2.493   6.768  0.00  0.00    +0.000 NA
ATOM     15  C   UNL     1      46.749   3.647   7.122  0.00  0.00    +0.000 A 
ATOM     16  N   UNL     1      45.810   3.800   8.070  0.00  0.00    +0.000 NA
ENDBRANCH  10  11
ENDBRANCH   9  10
ENDBRANCH   8   9
ENDBRANCH   5   8
ENDBRANCH   1   2
BRANCH   1  19
ATOM     17  O   UNL     1      50.026   8.166  15.053  0.00  0.00    +0.000 OA
ATOM     18  C   UNL     1      48.986   7.702  15.488  0.00  0.00    +0.000 C 
ATOM     19  N   UNL     1      48.050   7.025  14.728  0.00  0.00    +0.000 N 
ATOM     20  H   UNL     1      47.356   6.485  15.227  0.00  0.00    +0.000 HD
BRANCH  18  21
ATOM     21  C   UNL     1      48.679   7.569  16.907  0.00  0.00    +0.000 A 
ATOM     22  C   UNL     1      48.295   8.642  17.693  0.00  0.00    +0.000 A 
ATOM     23  S   UNL     1      48.691   8.368  19.343  0.00  0.00    +0.000 S 
ATOM     24  C   UNL     1      49.185   6.769  19.020  0.00  0.00    +0.000 A 
ATOM     25  N   UNL     1      49.799   5.985  19.946  0.00  0.00    +0.000 NA
ATOM     26  C   UNL     1      50.033   4.777  19.546  0.00  0.00    +0.000 A 
ATOM     27  N   UNL     1      49.663   4.265  18.324  0.00  0.00    +0.000 N 
ATOM     28  C   UNL     1      49.060   5.022  17.348  0.00  0.00    +0.000 A 
ATOM     29  O   UNL     1      48.695   4.544  16.281  0.00  0.00    +0.000 OA
ATOM     30  C   UNL     1      48.894   6.412  17.721  0.00  0.00    +0.000 A 
ATOM     31  H   UNL     1      49.796   3.287  18.110  0.00  0.00    +0.000 HD
ENDBRANCH  18  21
ENDBRANCH   1  19
TORSDOF 7
ENDMDL
MODEL 6
REMARK VINA RESULT:    -6.939      1.979      3.346
REMARK INTER + INTRA:         -11.124
REMARK INTER:                 -10.241
REMARK INTRA:                  -0.883
REMARK UNBOUND:                -1.346
REMARK  Name = 
REMARK  7 active torsions:
REMARK  status: ('A' for Active; 'I' for Inactive)
REMARK    1  A    between atoms: C_2  and  C_20
REMARK    2  A    between atoms: N_3  and  C_4
REMARK    3  A    between atoms: C_4  and  C_5
REMARK    4  A    between atoms: C_8  and  C_9
REMARK    5  A    between atoms: C_9  and  O_10
REMARK    6  A    between atoms: O_10  and  C_11
REMARK    7  A    between atoms: C_11  and  C_12
REMARK                            x       y       z     vdW  Elec       q    Type
REMARK                         _______ _______ _______ _____ _____    ______ ____
ROOT
ATOM      1  C   UNL     1      47.117   4.272  15.407  0.00  0.00    +0.000 C 
ENDROOT
BRANCH   1   2
ATOM      2  C   UNL     1      46.666   4.727  14.047  0.00  0.00    +0.000 A 
ATOM      3  C   UNL     1      47.222   5.848  13.431  0.00  0.00    +0.000 A 
ATOM      4  C   UNL     1      46.782   6.230  12.165  0.00  0.00    +0.000 A 
ATOM      5  C   UNL     1      45.769   5.495  11.549  0.00  0.00    +0.000 A 
ATOM      6  N   UNL     1      45.172   4.439  12.157  0.00  0.00    +0.000 NA
ATOM      7  C   UNL     1      45.634   4.079  13.377  0.00  0.00    +0.000 A 
BRANCH   5   8
ATOM      8  C   UNL     1      45.306   5.853  10.156  0.00  0.00    +0.000 C 
BRANCH   8   9
ATOM      9  O   UNL     1      46.035   5.074   9.204  0.00  0.00    +0.000 OA
BRANCH   9  10
ATOM     10  C   UNL     1      45.233   4.032   8.647  0.00  0.00    +0.000 C 
BRANCH  10  11
ATOM     11  C   UNL     1      46.100   3.035   7.913  0.00  0.00    +0.000 A 
ATOM     12  C   UNL     1      46.956   3.447   6.908  0.00  0.00    +0.000 A 
ATOM     13  C   UNL     1      47.718   2.465   6.305  0.00  0.00    +0.000 A 
ATOM     14  N   UNL     1      47.669   1.170   6.664  0.00  0.00    +0.000 NA
ATOM     15  C   UNL     1      46.821   0.874   7.660  0.00  0.00    +0.000 A 
ATOM     16  N   UNL     1      46.031   1.743   8.312  0.00  0.00    +0.000 NA
ENDBRANCH  10  11
ENDBRANCH   9  10
ENDBRANCH   8   9
ENDBRANCH   5   8
ENDBRANCH   1   2
BRANCH   1  19
ATOM     17  O   UNL     1      49.685   4.306  16.652  0.00  0.00    +0.000 OA
ATOM     18  C   UNL     1      48.924   5.251  16.771  0.00  0.00    +0.000 C 
ATOM     19  N   UNL     1      47.712   5.369  16.116  0.00  0.00    +0.000 N 
ATOM     20  H   UNL     1      47.066   6.063  16.465  0.00  0.00    +0.000 HD
BRANCH  18  21
ATOM     21  C   UNL     1      49.049   6.280  17.796  0.00  0.00    +0.000 A 
ATOM     22  C   UNL     1      49.286   5.985  19.127  0.00  0.00    +0.000 A 
ATOM     23  S   UNL     1      48.689   7.232  20.149  0.00  0.00    +0.000 S 
ATOM     24  C   UNL     1      48.302   8.220  18.815  0.00  0.00    +0.000 A 
ATOM     25  N   UNL     1      47.603   9.380  18.935  0.00  0.00    +0.000 NA
ATOM     26  C   UNL     1      47.470  10.034  17.827  0.00  0.00    +0.000 A 
ATOM     27  N   UNL     1      48.015   9.663  16.620  0.00  0.00    +0.000 N 
ATOM     28  C   UNL     1      48.711   8.490  16.444  0.00  0.00    +0.000 A 
ATOM     29  O   UNL     1      49.230   8.191  15.375  0.00  0.00    +0.000 OA
ATOM     30  C   UNL     1      48.773   7.675  17.640  0.00  0.00    +0.000 A 
ATOM     31  H   UNL     1      47.948  10.266  15.813  0.00  0.00    +0.000 HD
ENDBRANCH  18  21
ENDBRANCH   1  19
TORSDOF 7
ENDMDL
MODEL 7
REMARK VINA RESULT:    -6.927      3.216      7.451
REMARK INTER + INTRA:         -11.108
REMARK INTER:                  -9.752
REMARK INTRA:                  -1.356
REMARK UNBOUND:                -1.346
REMARK  Name = 
REMARK  7 active torsions:
REMARK  status: ('A' for Active; 'I' for Inactive)
REMARK    1  A    between atoms: C_2  and  C_20
REMARK    2  A    between atoms: N_3  and  C_4
REMARK    3  A    between atoms: C_4  and  C_5
REMARK    4  A    between atoms: C_8  and  C_9
REMARK    5  A    between atoms: C_9  and  O_10
REMARK    6  A    between atoms: O_10  and  C_11
REMARK    7  A    between atoms: C_11  and  C_12
REMARK                            x       y       z     vdW  Elec       q    Type
REMARK                         _______ _______ _______ _____ _____    ______ ____
ROOT
ATOM      1  C   UNL     1      46.896   8.492  12.763  0.00  0.00    +0.000 C 
ENDROOT
BRANCH   1   2
ATOM      2  C   UNL     1      47.682   7.998  13.946  0.00  0.00    +0.000 A 
ATOM      3  C   UNL     1      48.099   6.671  14.042  0.00  0.00    +0.000 A 
ATOM      4  C   UNL     1      48.834   6.256  15.152  0.00  0.00    +0.000 A 
ATOM      5  C   UNL     1      49.115   7.176  16.161  0.00  0.00    +0.000 A 
ATOM      6  N   UNL     1      48.666   8.456  16.116  0.00  0.00    +0.000 NA
ATOM      7  C   UNL     1      47.973   8.835  15.018  0.00  0.00    +0.000 A 
BRANCH   5   8
ATOM      8  C   UNL     1      49.954   6.772  17.351  0.00  0.00    +0.000 C 
BRANCH   8   9
ATOM      9  O   UNL     1      49.110   6.178  18.340  0.00  0.00    +0.000 OA
BRANCH   9  10
ATOM     10  C   UNL     1      49.712   5.022  18.924  0.00  0.00    +0.000 C 
BRANCH  10  11
ATOM     11  C   UNL     1      49.593   3.838  17.991  0.00  0.00    +0.000 A 
ATOM     12  C   UNL     1      48.387   3.530  17.389  0.00  0.00    +0.000 A 
ATOM     13  C   UNL     1      48.381   2.439  16.541  0.00  0.00    +0.000 A 
ATOM     14  N   UNL     1      49.476   1.704  16.278  0.00  0.00    +0.000 NA
ATOM     15  C   UNL     1      50.601   2.095  16.897  0.00  0.00    +0.000 A 
ATOM     16  N   UNL     1      50.721   3.132  17.741  0.00  0.00    +0.000 NA
ENDBRANCH  10  11
ENDBRANCH   9  10
ENDBRANCH   8   9
ENDBRANCH   5   8
ENDBRANCH   1   2
BRANCH   1  19
ATOM     17  O   UNL     1      44.575   7.880  11.220  0.00  0.00    +0.000 OA
ATOM     18  C   UNL     1      45.561   7.165  11.170  0.00  0.00    +0.000 C 
ATOM     19  N   UNL     1      46.763   7.442  11.794  0.00  0.00    +0.000 N 
ATOM     20  H   UNL     1      47.422   6.681  11.884  0.00  0.00    +0.000 HD
BRANCH  18  21
ATOM     21  C   UNL     1      45.558   5.800  10.659  0.00  0.00    +0.000 A 
ATOM     22  C   UNL     1      45.905   5.488   9.356  0.00  0.00    +0.000 A 
ATOM     23  S   UNL     1      45.156   4.025   8.853  0.00  0.00    +0.000 S 
ATOM     24  C   UNL     1      44.544   3.732  10.417  0.00  0.00    +0.000 A 
ATOM     25  N   UNL     1      43.666   2.731  10.691  0.00  0.00    +0.000 NA
ATOM     26  C   UNL     1      43.371   2.613  11.945  0.00  0.00    +0.000 A 
ATOM     27  N   UNL     1      43.913   3.370  12.957  0.00  0.00    +0.000 N 
ATOM     28  C   UNL     1      44.788   4.405  12.730  0.00  0.00    +0.000 A 
ATOM     29  O   UNL     1      45.299   5.043  13.644  0.00  0.00    +0.000 OA
ATOM     30  C   UNL     1      45.044   4.642  11.324  0.00  0.00    +0.000 A 
ATOM     31  H   UNL     1      43.708   3.165  13.925  0.00  0.00    +0.000 HD
ENDBRANCH  18  21
ENDBRANCH   1  19
TORSDOF 7
ENDMDL
MODEL 8
REMARK VINA RESULT:    -6.805      2.347      4.153
REMARK INTER + INTRA:         -10.935
REMARK INTER:                 -10.035
REMARK INTRA:                  -0.900
REMARK UNBOUND:                -1.346
REMARK  Name = 
REMARK  7 active torsions:
REMARK  status: ('A' for Active; 'I' for Inactive)
REMARK    1  A    between atoms: C_2  and  C_20
REMARK    2  A    between atoms: N_3  and  C_4
REMARK    3  A    between atoms: C_4  and  C_5
REMARK    4  A    between atoms: C_8  and  C_9
REMARK    5  A    between atoms: C_9  and  O_10
REMARK    6  A    between atoms: O_10  and  C_11
REMARK    7  A    between atoms: C_11  and  C_12
REMARK                            x       y       z     vdW  Elec       q    Type
REMARK                         _______ _______ _______ _____ _____    ______ ____
ROOT
ATOM      1  C   UNL     1      47.437   5.464  14.644  0.00  0.00    +0.000 C 
ENDROOT
BRANCH   1   2
ATOM      2  C   UNL     1      46.526   5.088  13.510  0.00  0.00    +0.000 A 
ATOM      3  C   UNL     1      46.100   3.774  13.320  0.00  0.00    +0.000 A 
ATOM      4  C   UNL     1      45.247   3.470  12.261  0.00  0.00    +0.000 A 
ATOM      5  C   UNL     1      44.856   4.488  11.392  0.00  0.00    +0.000 A 
ATOM      6  N   UNL     1      45.308   5.761  11.522  0.00  0.00    +0.000 NA
ATOM      7  C   UNL     1      46.119   6.030  12.571  0.00  0.00    +0.000 A 
BRANCH   5   8
ATOM      8  C   UNL     1      43.891   4.201  10.265  0.00  0.00    +0.000 C 
BRANCH   8   9
ATOM      9  O   UNL     1      44.460   3.217   9.398  0.00  0.00    +0.000 OA
BRANCH   9  10
ATOM     10  C   UNL     1      44.902   3.789   8.167  0.00  0.00    +0.000 C 
BRANCH  10  11
ATOM     11  C   UNL     1      45.974   2.926   7.540  0.00  0.00    +0.000 A 
ATOM     12  C   UNL     1      46.292   1.692   8.077  0.00  0.00    +0.000 A 
ATOM     13  C   UNL     1      47.274   0.971   7.426  0.00  0.00    +0.000 A 
ATOM     14  N   UNL     1      47.896   1.406   6.317  0.00  0.00    +0.000 NA
ATOM     15  C   UNL     1      47.504   2.607   5.864  0.00  0.00    +0.000 A 
ATOM     16  N   UNL     1      46.567   3.394   6.417  0.00  0.00    +0.000 NA
ENDBRANCH  10  11
ENDBRANCH   9  10
ENDBRANCH   8   9
ENDBRANCH   5   8
ENDBRANCH   1   2
BRANCH   1  19
ATOM     17  O   UNL     1      49.936   6.299  15.743  0.00  0.00    +0.000 OA
ATOM     18  C   UNL     1      49.322   7.020  14.975  0.00  0.00    +0.000 C 
ATOM     19  N   UNL     1      48.166   6.654  14.311  0.00  0.00    +0.000 N 
ATOM     20  H   UNL     1      47.620   7.396  13.895  0.00  0.00    +0.000 HD
BRANCH  18  21
ATOM     21  C   UNL     1      49.564   8.449  14.822  0.00  0.00    +0.000 A 
ATOM     22  C   UNL     1      49.793   9.288  15.898  0.00  0.00    +0.000 A 
ATOM     23  S   UNL     1      49.340  10.904  15.525  0.00  0.00    +0.000 S 
ATOM     24  C   UNL     1      49.030  10.504  13.898  0.00  0.00    +0.000 A 
ATOM     25  N   UNL     1      48.450  11.368  13.023  0.00  0.00    +0.000 NA
ATOM     26  C   UNL     1      48.364  10.918  11.813  0.00  0.00    +0.000 A 
ATOM     27  N   UNL     1      48.849   9.704  11.385  0.00  0.00    +0.000 N 
ATOM     28  C   UNL     1      49.423   8.789  12.235  0.00  0.00    +0.000 A 
ATOM     29  O   UNL     1      49.892   7.729  11.835  0.00  0.00    +0.000 OA
ATOM     30  C   UNL     1      49.425   9.213  13.619  0.00  0.00    +0.000 A 
ATOM     31  H   UNL     1      48.829   9.453  10.408  0.00  0.00    +0.000 HD
ENDBRANCH  18  21
ENDBRANCH   1  19
TORSDOF 7
ENDMDL
MODEL 9
REMARK VINA RESULT:    -6.803      2.026      2.499
REMARK INTER + INTRA:         -10.932
REMARK INTER:                  -9.983
REMARK INTRA:                  -0.949
REMARK UNBOUND:                -1.346
REMARK  Name = 
REMARK  7 active torsions:
REMARK  status: ('A' for Active; 'I' for Inactive)
REMARK    1  A    between atoms: C_2  and  C_20
REMARK    2  A    between atoms: N_3  and  C_4
REMARK    3  A    between atoms: C_4  and  C_5
REMARK    4  A    between atoms: C_8  and  C_9
REMARK    5  A    between atoms: C_9  and  O_10
REMARK    6  A    between atoms: O_10  and  C_11
REMARK    7  A    between atoms: C_11  and  C_12
REMARK                            x       y       z     vdW  Elec       q    Type
REMARK                         _______ _______ _______ _____ _____    ______ ____
ROOT
ATOM      1  C   UNL     1      46.920   8.544  13.138  0.00  0.00    +0.000 C 
ENDROOT
BRANCH   1   2
ATOM      2  C   UNL     1      46.155   7.316  12.729  0.00  0.00    +0.000 A 
ATOM      3  C   UNL     1      46.628   6.034  13.008  0.00  0.00    +0.000 A 
ATOM      4  C   UNL     1      45.882   4.923  12.619  0.00  0.00    +0.000 A 
ATOM      5  C   UNL     1      44.685   5.116  11.932  0.00  0.00    +0.000 A 
ATOM      6  N   UNL     1      44.238   6.352  11.595  0.00  0.00    +0.000 NA
ATOM      7  C   UNL     1      44.972   7.413  12.003  0.00  0.00    +0.000 A 
BRANCH   5   8
ATOM      8  C   UNL     1      43.829   3.933  11.542  0.00  0.00    +0.000 C 
BRANCH   8   9
ATOM      9  O   UNL     1      43.895   3.750  10.126  0.00  0.00    +0.000 OA
BRANCH   9  10
ATOM     10  C   UNL     1      44.315   2.429   9.782  0.00  0.00    +0.000 C 
BRANCH  10  11
ATOM     11  C   UNL     1      45.383   2.478   8.713  0.00  0.00    +0.000 A 
ATOM     12  C   UNL     1      45.697   3.666   8.081  0.00  0.00    +0.000 A 
ATOM     13  C   UNL     1      46.696   3.613   7.128  0.00  0.00    +0.000 A 
ATOM     14  N   UNL     1      47.361   2.486   6.820  0.00  0.00    +0.000 NA
ATOM     15  C   UNL     1      46.995   1.390   7.501  0.00  0.00    +0.000 A 
ATOM     16  N   UNL     1      46.038   1.325   8.441  0.00  0.00    +0.000 NA
ENDBRANCH  10  11
ENDBRANCH   9  10
ENDBRANCH   8   9
ENDBRANCH   5   8
ENDBRANCH   1   2
BRANCH   1  19
ATOM     17  O   UNL     1      49.543   9.347  13.925  0.00  0.00    +0.000 OA
ATOM     18  C   UNL     1      48.850   8.672  14.667  0.00  0.00    +0.000 C 
ATOM     19  N   UNL     1      47.534   8.332  14.417  0.00  0.00    +0.000 N 
ATOM     20  H   UNL     1      47.139   7.585  14.971  0.00  0.00    +0.000 HD
BRANCH  18  21
ATOM     21  C   UNL     1      49.362   7.916  15.804  0.00  0.00    +0.000 A 
ATOM     22  C   UNL     1      50.394   7.002  15.690  0.00  0.00    +0.000 A 
ATOM     23  S   UNL     1      50.299   5.811  16.927  0.00  0.00    +0.000 S 
ATOM     24  C   UNL     1      49.018   6.630  17.697  0.00  0.00    +0.000 A 
ATOM     25  N   UNL     1      48.323   6.099  18.738  0.00  0.00    +0.000 NA
ATOM     26  C   UNL     1      47.437   6.894  19.244  0.00  0.00    +0.000 A 
ATOM     27  N   UNL     1      47.217   8.189  18.839  0.00  0.00    +0.000 N 
ATOM     28  C   UNL     1      47.878   8.764  17.780  0.00  0.00    +0.000 A 
ATOM     29  O   UNL     1      47.705   9.933  17.457  0.00  0.00    +0.000 OA
ATOM     30  C   UNL     1      48.791   7.858  17.114  0.00  0.00    +0.000 A 
ATOM     31  H   UNL     1      46.571   8.786  19.337  0.00  0.00    +0.000 HD
ENDBRANCH  18  21
ENDBRANCH   1  19
TORSDOF 7
ENDMDL
