MODEL 1
REMARK VINA RESULT:    -7.724      0.000      0.000
REMARK INTER + INTRA:         -11.446
REMARK INTER:                 -10.433
REMARK INTRA:                  -1.012
REMARK UNBOUND:                -1.012
REMARK  Name = 
REMARK  7 active torsions:
REMARK  status: ('A' for Active; 'I' for Inactive)
REMARK    1  A    between atoms: C_1  and  C_2
REMARK    2  A    between atoms: C_2  and  N_3
REMARK    3  A    between atoms: C_2  and  C_16
REMARK    4  A    between atoms: C_4  and  C_6
REMARK    5  A    between atoms: C_19  and  C_20
REMARK    6  A    between atoms: C_20  and  N_21
REMARK    7  A    between atoms: C_22  and  C_24
REMARK                            x       y       z     vdW  Elec       q    Type
REMARK                         _______ _______ _______ _____ _____    ______ ____
ROOT
ATOM      1  C   UNL     1      47.016   9.303  13.201  0.00  0.00    +0.000 C 
ATOM      2  C   UNL     1      47.592   7.891  13.362  0.00  0.00    +0.000 C 
ENDROOT
BRANCH   2   3
ATOM      3  C   UNL     1      46.653   6.863  12.739  0.00  0.00    +0.000 A 
ATOM      4  C   UNL     1      45.729   7.233  11.754  0.00  0.00    +0.000 A 
ATOM      5  C   UNL     1      44.902   6.273  11.153  0.00  0.00    +0.000 A 
ATOM      6  C   UNL     1      44.978   4.925  11.528  0.00  0.00    +0.000 A 
ATOM      7  C   UNL     1      45.903   4.552  12.511  0.00  0.00    +0.000 A 
ATOM      8  C   UNL     1      46.724   5.510  13.112  0.00  0.00    +0.000 A 
BRANCH   6   9
ATOM      9  C   UNL     1      44.120   3.882  10.860  0.00  0.00    +0.000 C 
BRANCH   9  10
ATOM     10  N   UNL     1      44.907   3.009  10.023  0.00  0.00    +0.000 N 
ATOM     11  C   UNL     1      45.251   3.363   8.743  0.00  0.00    +0.000 C 
ATOM     12  O   UNL     1      44.907   4.430   8.239  0.00  0.00    +0.000 OA
ATOM     13  H   UNL     1      45.248   2.146  10.417  0.00  0.00    +0.000 HD
BRANCH  11  14
ATOM     14  C   UNL     1      46.047   2.391   8.018  0.00  0.00    +0.000 A 
ATOM     15  C   UNL     1      46.962   2.519   6.985  0.00  0.00    +0.000 A 
ATOM     16  C   UNL     1      47.450   1.228   6.664  0.00  0.00    +0.000 A 
ATOM     17  C   UNL     1      46.826   0.335   7.502  0.00  0.00    +0.000 A 
ATOM     18  N   UNL     1      45.979   1.043   8.312  0.00  0.00    +0.000 N 
ATOM     19  H   UNL     1      45.385   0.656   9.034  0.00  0.00    +0.000 HD
ENDBRANCH  11  14
ENDBRANCH   9  10
ENDBRANCH   6   9
ENDBRANCH   2   3
BRANCH   2  20
ATOM     20  N   UNL     1      47.824   7.529  14.754  0.00  0.00    +0.000 N 
ATOM     21  C   UNL     1      49.069   7.346  15.300  0.00  0.00    +0.000 C 
ATOM     22  O   UNL     1      50.105   7.524  14.669  0.00  0.00    +0.000 OA
ATOM     23  H   UNL     1      47.040   7.084  15.222  0.00  0.00    +0.000 HD
BRANCH  21  24
ATOM     24  C   UNL     1      49.103   6.986  16.724  0.00  0.00    +0.000 A 
ATOM     25  C   UNL     1      49.486   7.933  17.663  0.00  0.00    +0.000 A 
ATOM     26  S   UNL     1      49.465   7.356  19.268  0.00  0.00    +0.000 S 
ATOM     27  C   UNL     1      48.983   5.805  18.759  0.00  0.00    +0.000 A 
ATOM     28  N   UNL     1      48.820   4.794  19.655  0.00  0.00    +0.000 NA
ATOM     29  C   UNL     1      48.485   3.664  19.128  0.00  0.00    +0.000 A 
ATOM     30  N   UNL     1      48.285   3.456  17.788  0.00  0.00    +0.000 N 
ATOM     31  C   UNL     1      48.395   4.457  16.853  0.00  0.00    +0.000 A 
ATOM     32  O   UNL     1      48.137   4.258  15.670  0.00  0.00    +0.000 OA
ATOM     33  C   UNL     1      48.806   5.740  17.388  0.00  0.00    +0.000 A 
ATOM     34  H   UNL     1      48.002   2.551  17.443  0.00  0.00    +0.000 HD
ENDBRANCH  21  24
ENDBRANCH   2  20
TORSDOF 6
ENDMDL
MODEL 2
REMARK VINA RESULT:    -7.445      2.384      4.260
REMARK INTER + INTRA:         -11.069
REMARK INTER:                  -9.861
REMARK INTRA:                  -1.208
REMARK UNBOUND:                -1.012
REMARK  Name = 
REMARK  7 active torsions:
REMARK  status: ('A' for Active; 'I' for Inactive)
REMARK    1  A    between atoms: C_1  and  C_2
REMARK    2  A    between atoms: C_2  and  N_3
REMARK    3  A    between atoms: C_2  and  C_16
REMARK    4  A    between atoms: C_4  and  C_6
REMARK    5  A    between atoms: C_19  and  C_20
REMARK    6  A    between atoms: C_20  and  N_21
REMARK    7  A    between atoms: C_22  and  C_24
REMARK                            x       y       z     vdW  Elec       q    Type
REMARK                         _______ _______ _______ _____ _____    ______ ____
ROOT
ATOM      1  C   UNL     1      47.499   4.064  15.626  0.00  0.00    +0.000 C 
ATOM      2  C   UNL     1      47.122   5.364  14.905  0.00  0.00    +0.000 C 
ENDROOT
BRANCH   2   3
ATOM      3  C   UNL     1      46.234   5.063  13.702  0.00  0.00    +0.000 A 
ATOM      4  C   UNL     1      45.622   6.095  12.979  0.00  0.00    +0.000 A 
ATOM      5  C   UNL     1      44.846   5.811  11.847  0.00  0.00    +0.000 A 
ATOM      6  C   UNL     1      44.658   4.490  11.418  0.00  0.00    +0.000 A 
ATOM      7  C   UNL     1      45.269   3.457  12.138  0.00  0.00    +0.000 A 
ATOM      8  C   UNL     1      46.041   3.740  13.268  0.00  0.00    +0.000 A 
BRANCH   6   9
ATOM      9  C   UNL     1      43.856   4.181  10.180  0.00  0.00    +0.000 C 
BRANCH   9  10
ATOM     10  N   UNL     1      44.621   3.400   9.239  0.00  0.00    +0.000 N 
ATOM     11  C   UNL     1      45.560   3.980   8.424  0.00  0.00    +0.000 C 
ATOM     12  O   UNL     1      45.797   5.186   8.445  0.00  0.00    +0.000 OA
ATOM     13  H   UNL     1      44.488   2.401   9.225  0.00  0.00    +0.000 HD
BRANCH  11  14
ATOM     14  C   UNL     1      46.254   3.075   7.529  0.00  0.00    +0.000 A 
ATOM     15  C   UNL     1      46.727   3.223   6.234  0.00  0.00    +0.000 A 
ATOM     16  C   UNL     1      47.340   2.007   5.844  0.00  0.00    +0.000 A 
ATOM     17  C   UNL     1      47.230   1.136   6.902  0.00  0.00    +0.000 A 
ATOM     18  N   UNL     1      46.572   1.786   7.912  0.00  0.00    +0.000 N 
ATOM     19  H   UNL     1      46.346   1.400   8.820  0.00  0.00    +0.000 HD
ENDBRANCH  11  14
ENDBRANCH   9  10
ENDBRANCH   6   9
ENDBRANCH   2   3
BRANCH   2  20
ATOM     20  N   UNL     1      48.283   6.118  14.452  0.00  0.00    +0.000 N 
ATOM     21  C   UNL     1      48.948   7.037  15.222  0.00  0.00    +0.000 C 
ATOM     22  O   UNL     1      48.649   7.268  16.390  0.00  0.00    +0.000 OA
ATOM     23  H   UNL     1      48.380   6.198  13.444  0.00  0.00    +0.000 HD
BRANCH  21  24
ATOM     24  C   UNL     1      50.100   7.696  14.593  0.00  0.00    +0.000 A 
ATOM     25  C   UNL     1      51.348   7.622  15.195  0.00  0.00    +0.000 A 
ATOM     26  S   UNL     1      52.575   8.433  14.333  0.00  0.00    +0.000 S 
ATOM     27  C   UNL     1      51.472   8.948  13.144  0.00  0.00    +0.000 A 
ATOM     28  N   UNL     1      51.875   9.738  12.112  0.00  0.00    +0.000 NA
ATOM     29  C   UNL     1      50.929  10.081  11.303  0.00  0.00    +0.000 A 
ATOM     30  N   UNL     1      49.619   9.695  11.425  0.00  0.00    +0.000 N 
ATOM     31  C   UNL     1      49.177   8.863  12.425  0.00  0.00    +0.000 A 
ATOM     32  O   UNL     1      48.013   8.474  12.465  0.00  0.00    +0.000 OA
ATOM     33  C   UNL     1      50.194   8.477  13.383  0.00  0.00    +0.000 A 
ATOM     34  H   UNL     1      48.931   9.981  10.744  0.00  0.00    +0.000 HD
ENDBRANCH  21  24
ENDBRANCH   2  20
TORSDOF 6
ENDMDL
MODEL 3
REMARK VINA RESULT:    -7.427      3.668      8.334
REMARK INTER + INTRA:         -11.045
REMARK INTER:                 -10.080
REMARK INTRA:                  -0.965
REMARK UNBOUND:                -1.012
REMARK  Name = 
REMARK  7 active torsions:
REMARK  status: ('A' for Active; 'I' for Inactive)
REMARK    1  A    between atoms: C_1  and  C_2
REMARK    2  A    between atoms: C_2  and  N_3
REMARK    3  A    between atoms: C_2  and  C_16
REMARK    4  A    between atoms: C_4  and  C_6
REMARK    5  A    between atoms: C_19  and  C_20
REMARK    6  A    between atoms: C_20  and  N_21
REMARK    7  A    between atoms: C_22  and  C_24
REMARK                            x       y       z     vdW  Elec       q    Type
REMARK                         _______ _______ _______ _____ _____    ______ ____
ROOT
ATOM      1  C   UNL     1      49.330   7.468  13.109  0.00  0.00    +0.000 C 
ATOM      2  C   UNL     1      48.014   6.916  13.670  0.00  0.00    +0.000 C 
ENDROOT
BRANCH   2   3
ATOM      3  C   UNL     1      48.273   6.131  14.951  0.00  0.00    +0.000 A 
ATOM      4  C   UNL     1      47.497   5.013  15.282  0.00  0.00    +0.000 A 
ATOM      5  C   UNL     1      47.772   4.270  16.439  0.00  0.00    +0.000 A 
ATOM      6  C   UNL     1      48.824   4.632  17.292  0.00  0.00    +0.000 A 
ATOM      7  C   UNL     1      49.601   5.748  16.962  0.00  0.00    +0.000 A 
ATOM      8  C   UNL     1      49.325   6.491  15.811  0.00  0.00    +0.000 A 
BRANCH   6   9
ATOM      9  C   UNL     1      49.149   3.816  18.516  0.00  0.00    +0.000 C 
BRANCH   9  10
ATOM     10  N   UNL     1      50.468   3.238  18.429  0.00  0.00    +0.000 N 
ATOM     11  C   UNL     1      50.745   2.214  17.560  0.00  0.00    +0.000 C 
ATOM     12  O   UNL     1      49.893   1.730  16.817  0.00  0.00    +0.000 OA
ATOM     13  H   UNL     1      51.205   3.640  18.988  0.00  0.00    +0.000 HD
BRANCH  11  14
ATOM     14  C   UNL     1      52.113   1.733  17.576  0.00  0.00    +0.000 A 
ATOM     15  C   UNL     1      53.325   2.374  17.780  0.00  0.00    +0.000 A 
ATOM     16  C   UNL     1      54.357   1.408  17.695  0.00  0.00    +0.000 A 
ATOM     17  C   UNL     1      53.763   0.196  17.438  0.00  0.00    +0.000 A 
ATOM     18  N   UNL     1      52.411   0.401  17.364  0.00  0.00    +0.000 N 
ATOM     19  H   UNL     1      51.710  -0.309  17.187  0.00  0.00    +0.000 HD
ENDBRANCH  11  14
ENDBRANCH   9  10
ENDBRANCH   6   9
ENDBRANCH   2   3
BRANCH   2  20
ATOM     20  N   UNL     1      47.313   6.054  12.726  0.00  0.00    +0.000 N 
ATOM     21  C   UNL     1      46.366   6.499  11.840  0.00  0.00    +0.000 C 
ATOM     22  O   UNL     1      46.062   7.682  11.730  0.00  0.00    +0.000 OA
ATOM     23  H   UNL     1      47.295   5.069  12.973  0.00  0.00    +0.000 HD
BRANCH  21  24
ATOM     24  C   UNL     1      45.771   5.480  10.965  0.00  0.00    +0.000 A 
ATOM     25  C   UNL     1      45.906   5.593   9.588  0.00  0.00    +0.000 A 
ATOM     26  S   UNL     1      45.164   4.327   8.721  0.00  0.00    +0.000 S 
ATOM     27  C   UNL     1      44.599   3.604  10.154  0.00  0.00    +0.000 A 
ATOM     28  N   UNL     1      43.837   2.478  10.117  0.00  0.00    +0.000 NA
ATOM     29  C   UNL     1      43.449   2.057  11.275  0.00  0.00    +0.000 A 
ATOM     30  N   UNL     1      43.768   2.653  12.468  0.00  0.00    +0.000 N 
ATOM     31  C   UNL     1      44.570   3.765  12.556  0.00  0.00    +0.000 A 
ATOM     32  O   UNL     1      44.898   4.232  13.643  0.00  0.00    +0.000 OA
ATOM     33  C   UNL     1      45.002   4.300  11.280  0.00  0.00    +0.000 A 
ATOM     34  H   UNL     1      43.450   2.261  13.341  0.00  0.00    +0.000 HD
ENDBRANCH  21  24
ENDBRANCH   2  20
TORSDOF 6
ENDMDL
MODEL 4
REMARK VINA RESULT:    -7.109      2.483      3.516
REMARK INTER + INTRA:         -10.615
REMARK INTER:                  -9.831
REMARK INTRA:                  -0.784
REMARK UNBOUND:                -1.012
REMARK  Name = 
REMARK  7 active torsions:
REMARK  status: ('A' for Active; 'I' for Inactive)
REMARK    1  A    between atoms: C_1  and  C_2
REMARK    2  A    between atoms: C_2  and  N_3
REMARK    3  A    between atoms: C_2  and  C_16
REMARK    4  A    between atoms: C_4  and  C_6
REMARK    5  A    between atoms: C_19  and  C_20
REMARK    6  A    between atoms: C_20  and  N_21
REMARK    7  A    between atoms: C_22  and  C_24
REMARK                            x       y       z     vdW  Elec       q    Type
REMARK                         _______ _______ _______ _____ _____    ______ ____
ROOT
ATOM      1  C   UNL     1      47.554   3.485  15.604  0.00  0.00    +0.000 C 
ATOM      2  C   UNL     1      46.999   4.844  15.157  0.00  0.00    +0.000 C 
ENDROOT
BRANCH   2   3
ATOM      3  C   UNL     1      46.256   4.701  13.833  0.00  0.00    +0.000 A 
ATOM      4  C   UNL     1      46.054   3.444  13.250  0.00  0.00    +0.000 A 
ATOM      5  C   UNL     1      45.330   3.318  12.056  0.00  0.00    +0.000 A 
ATOM      6  C   UNL     1      44.798   4.447  11.417  0.00  0.00    +0.000 A 
ATOM      7  C   UNL     1      44.998   5.704  11.998  0.00  0.00    +0.000 A 
ATOM      8  C   UNL     1      45.723   5.830  13.187  0.00  0.00    +0.000 A 
BRANCH   6   9
ATOM      9  C   UNL     1      43.987   4.315  10.154  0.00  0.00    +0.000 C 
BRANCH   9  10
ATOM     10  N   UNL     1      44.693   3.556   9.151  0.00  0.00    +0.000 N 
ATOM     11  C   UNL     1      45.689   4.121   8.395  0.00  0.00    +0.000 C 
ATOM     12  O   UNL     1      46.029   5.295   8.523  0.00  0.00    +0.000 OA
ATOM     13  H   UNL     1      44.475   2.577   9.049  0.00  0.00    +0.000 HD
BRANCH  11  14
ATOM     14  C   UNL     1      46.314   3.240   7.427  0.00  0.00    +0.000 A 
ATOM     15  C   UNL     1      46.707   3.429   6.111  0.00  0.00    +0.000 A 
ATOM     16  C   UNL     1      47.277   2.220   5.642  0.00  0.00    +0.000 A 
ATOM     17  C   UNL     1      47.222   1.314   6.673  0.00  0.00    +0.000 A 
ATOM     18  N   UNL     1      46.637   1.935   7.744  0.00  0.00    +0.000 N 
ATOM     19  H   UNL     1      46.462   1.519   8.651  0.00  0.00    +0.000 HD
ENDBRANCH  11  14
ENDBRANCH   9  10
ENDBRANCH   6   9
ENDBRANCH   2   3
BRANCH   2  20
ATOM     20  N   UNL     1      48.034   5.857  15.007  0.00  0.00    +0.000 N 
ATOM     21  C   UNL     1      48.667   6.468  16.060  0.00  0.00    +0.000 C 
ATOM     22  O   UNL     1      48.449   6.170  17.230  0.00  0.00    +0.000 OA
ATOM     23  H   UNL     1      48.035   6.346  14.116  0.00  0.00    +0.000 HD
BRANCH  21  24
ATOM     24  C   UNL     1      49.688   7.465  15.710  0.00  0.00    +0.000 A 
ATOM     25  C   UNL     1      49.304   8.673  15.147  0.00  0.00    +0.000 A 
ATOM     26  S   UNL     1      50.609   9.717  14.809  0.00  0.00    +0.000 S 
ATOM     27  C   UNL     1      51.738   8.573  15.365  0.00  0.00    +0.000 A 
ATOM     28  N   UNL     1      53.074   8.825  15.313  0.00  0.00    +0.000 NA
ATOM     29  C   UNL     1      53.817   7.857  15.737  0.00  0.00    +0.000 A 
ATOM     30  N   UNL     1      53.343   6.665  16.221  0.00  0.00    +0.000 N 
ATOM     31  C   UNL     1      52.003   6.384  16.333  0.00  0.00    +0.000 A 
ATOM     32  O   UNL     1      51.609   5.338  16.840  0.00  0.00    +0.000 OA
ATOM     33  C   UNL     1      51.125   7.425  15.836  0.00  0.00    +0.000 A 
ATOM     34  H   UNL     1      53.978   5.956  16.558  0.00  0.00    +0.000 HD
ENDBRANCH  21  24
ENDBRANCH   2  20
TORSDOF 6
ENDMDL
MODEL 5
REMARK VINA RESULT:    -7.055      1.775      2.079
REMARK INTER + INTRA:         -10.541
REMARK INTER:                  -9.637
REMARK INTRA:                  -0.904
REMARK UNBOUND:                -1.012
REMARK  Name = 
REMARK  7 active torsions:
REMARK  status: ('A' for Active; 'I' for Inactive)
REMARK    1  A    between atoms: C_1  and  C_2
REMARK    2  A    between atoms: C_2  and  N_3
REMARK    3  A    between atoms: C_2  and  C_16
REMARK    4  A    between atoms: C_4  and  C_6
REMARK    5  A    between atoms: C_19  and  C_20
REMARK    6  A    between atoms: C_20  and  N_21
REMARK    7  A    between atoms: C_22  and  C_24
REMARK                            x       y       z     vdW  Elec       q    Type
REMARK                         _______ _______ _______ _____ _____    ______ ____
ROOT
ATOM      1  C   UNL     1      47.811  10.366  13.116  0.00  0.00    +0.000 C 
ATOM      2  C   UNL     1      47.931   8.932  13.647  0.00  0.00    +0.000 C 
ENDROOT
BRANCH   2   3
ATOM      3  C   UNL     1      46.956   8.015  12.917  0.00  0.00    +0.000 A 
ATOM      4  C   UNL     1      45.800   8.525  12.313  0.00  0.00    +0.000 A 
ATOM      5  C   UNL     1      44.933   7.681  11.603  0.00  0.00    +0.000 A 
ATOM      6  C   UNL     1      45.200   6.310  11.488  0.00  0.00    +0.000 A 
ATOM      7  C   UNL     1      46.356   5.799  12.089  0.00  0.00    +0.000 A 
ATOM      8  C   UNL     1      47.219   6.639  12.799  0.00  0.00    +0.000 A 
BRANCH   6   9
ATOM      9  C   UNL     1      44.293   5.405  10.696  0.00  0.00    +0.000 C 
BRANCH   9  10
ATOM     10  N   UNL     1      45.018   4.707   9.662  0.00  0.00    +0.000 N 
ATOM     11  C   UNL     1      44.797   3.378   9.404  0.00  0.00    +0.000 C 
ATOM     12  O   UNL     1      43.982   2.710  10.037  0.00  0.00    +0.000 OA
ATOM     13  H   UNL     1      45.662   5.232   9.090  0.00  0.00    +0.000 HD
BRANCH  11  14
ATOM     14  C   UNL     1      45.594   2.808   8.336  0.00  0.00    +0.000 A 
ATOM     15  C   UNL     1      46.193   1.567   8.179  0.00  0.00    +0.000 A 
ATOM     16  C   UNL     1      46.849   1.548   6.923  0.00  0.00    +0.000 A 
ATOM     17  C   UNL     1      46.644   2.773   6.335  0.00  0.00    +0.000 A 
ATOM     18  N   UNL     1      45.890   3.527   7.195  0.00  0.00    +0.000 N 
ATOM     19  H   UNL     1      45.577   4.477   7.035  0.00  0.00    +0.000 HD
ENDBRANCH  11  14
ENDBRANCH   9  10
ENDBRANCH   6   9
ENDBRANCH   2   3
BRANCH   2  20
ATOM     20  N   UNL     1      47.682   8.835  15.079  0.00  0.00    +0.000 N 
ATOM     21  C   UNL     1      48.573   9.239  16.040  0.00  0.00    +0.000 C 
ATOM     22  O   UNL     1      49.645   9.772  15.772  0.00  0.00    +0.000 OA
ATOM     23  H   UNL     1      46.983   8.150  15.350  0.00  0.00    +0.000 HD
BRANCH  21  24
ATOM     24  C   UNL     1      48.143   9.065  17.434  0.00  0.00    +0.000 A 
ATOM     25  C   UNL     1      47.785  10.174  18.187  0.00  0.00    +0.000 A 
ATOM     26  S   UNL     1      47.306   9.796  19.779  0.00  0.00    +0.000 S 
ATOM     27  C   UNL     1      47.599   8.138  19.531  0.00  0.00    +0.000 A 
ATOM     28  N   UNL     1      47.424   7.238  20.536  0.00  0.00    +0.000 NA
ATOM     29  C   UNL     1      47.715   6.021  20.219  0.00  0.00    +0.000 A 
ATOM     30  N   UNL     1      48.152   5.620  18.982  0.00  0.00    +0.000 N 
ATOM     31  C   UNL     1      48.302   6.487  17.926  0.00  0.00    +0.000 A 
ATOM     32  O   UNL     1      48.623   6.086  16.812  0.00  0.00    +0.000 OA
ATOM     33  C   UNL     1      48.023   7.874  18.240  0.00  0.00    +0.000 A 
ATOM     34  H   UNL     1      48.343   4.647  18.793  0.00  0.00    +0.000 HD
ENDBRANCH  21  24
ENDBRANCH   2  20
TORSDOF 6
ENDMDL
MODEL 6
REMARK VINA RESULT:    -7.006      2.112      3.094
REMARK INTER + INTRA:         -10.475
REMARK INTER:                  -9.327
REMARK INTRA:                  -1.147
REMARK UNBOUND:                -1.012
REMARK  Name = 
REMARK  7 active torsions:
REMARK  status: ('A' for Active; 'I' for Inactive)
REMARK    1  A    between atoms: C_1  and  C_2
REMARK    2  A    between atoms: C_2  and  N_3
REMARK    3  A    between atoms: C_2  and  C_16
REMARK    4  A    between atoms: C_4  and  C_6
REMARK    5  A    between atoms: C_19  and  C_20
REMARK    6  A    between atoms: C_20  and  N_21
REMARK    7  A    between atoms: C_22  and  C_24
REMARK                            x       y       z     vdW  Elec       q    Type
REMARK                         _______ _______ _______ _____ _____    ______ ____
ROOT
ATOM      1  C   UNL     1      47.871   3.061  15.525  0.00  0.00    +0.000 C 
ATOM      2  C   UNL     1      47.135   4.402  15.645  0.00  0.00    +0.000 C 
ENDROOT
BRANCH   2   3
ATOM      3  C   UNL     1      46.613   4.842  14.282  0.00  0.00    +0.000 A 
ATOM      4  C   UNL     1      47.351   5.716  13.474  0.00  0.00    +0.000 A 
ATOM      5  C   UNL     1      46.885   6.078  12.202  0.00  0.00    +0.000 A 
ATOM      6  C   UNL     1      45.669   5.580  11.714  0.00  0.00    +0.000 A 
ATOM      7  C   UNL     1      44.931   4.705  12.520  0.00  0.00    +0.000 A 
ATOM      8  C   UNL     1      45.394   4.346  13.789  0.00  0.00    +0.000 A 
BRANCH   6   9
ATOM      9  C   UNL     1      45.180   5.935  10.334  0.00  0.00    +0.000 C 
BRANCH   9  10
ATOM     10  N   UNL     1      45.804   5.112   9.326  0.00  0.00    +0.000 N 
ATOM     11  C   UNL     1      45.249   3.922   8.929  0.00  0.00    +0.000 C 
ATOM     12  O   UNL     1      44.202   3.490   9.408  0.00  0.00    +0.000 OA
ATOM     13  H   UNL     1      46.639   5.454   8.877  0.00  0.00    +0.000 HD
BRANCH  11  14
ATOM     14  C   UNL     1      45.982   3.200   7.907  0.00  0.00    +0.000 A 
ATOM     15  C   UNL     1      46.479   3.582   6.671  0.00  0.00    +0.000 A 
ATOM     16  C   UNL     1      47.126   2.465   6.089  0.00  0.00    +0.000 A 
ATOM     17  C   UNL     1      47.012   1.419   6.974  0.00  0.00    +0.000 A 
ATOM     18  N   UNL     1      46.318   1.870   8.065  0.00  0.00    +0.000 N 
ATOM     19  H   UNL     1      46.079   1.326   8.885  0.00  0.00    +0.000 HD
ENDBRANCH  11  14
ENDBRANCH   9  10
ENDBRANCH   6   9
ENDBRANCH   2   3
BRANCH   2  20
ATOM     20  N   UNL     1      47.974   5.462  16.190  0.00  0.00    +0.000 N 
ATOM     21  C   UNL     1      47.941   5.868  17.499  0.00  0.00    +0.000 C 
ATOM     22  O   UNL     1      47.233   5.332  18.345  0.00  0.00    +0.000 OA
ATOM     23  H   UNL     1      48.336   6.121  15.506  0.00  0.00    +0.000 HD
BRANCH  21  24
ATOM     24  C   UNL     1      48.865   6.951  17.863  0.00  0.00    +0.000 A 
ATOM     25  C   UNL     1      48.367   8.120  18.421  0.00  0.00    +0.000 A 
ATOM     26  S   UNL     1      49.571   9.270  18.790  0.00  0.00    +0.000 S 
ATOM     27  C   UNL     1      50.797   8.261  18.178  0.00  0.00    +0.000 A 
ATOM     28  N   UNL     1      52.094   8.672  18.155  0.00  0.00    +0.000 NA
ATOM     29  C   UNL     1      52.914   7.820  17.634  0.00  0.00    +0.000 A 
ATOM     30  N   UNL     1      52.555   6.590  17.146  0.00  0.00    +0.000 N 
ATOM     31  C   UNL     1      51.266   6.117  17.189  0.00  0.00    +0.000 A 
ATOM     32  O   UNL     1      50.989   4.982  16.813  0.00  0.00    +0.000 OA
ATOM     33  C   UNL     1      50.299   7.050  17.732  0.00  0.00    +0.000 A 
ATOM     34  H   UNL     1      53.250   5.962  16.770  0.00  0.00    +0.000 HD
ENDBRANCH  21  24
ENDBRANCH   2  20
TORSDOF 6
ENDMDL
MODEL 7
REMARK VINA RESULT:    -6.747      3.880      8.178
REMARK INTER + INTRA:         -10.126
REMARK INTER:                  -9.541
REMARK INTRA:                  -0.585
REMARK UNBOUND:                -1.012
REMARK  Name = 
REMARK  7 active torsions:
REMARK  status: ('A' for Active; 'I' for Inactive)
REMARK    1  A    between atoms: C_1  and  C_2
REMARK    2  A    between atoms: C_2  and  N_3
REMARK    3  A    between atoms: C_2  and  C_16
REMARK    4  A    between atoms: C_4  and  C_6
REMARK    5  A    between atoms: C_19  and  C_20
REMARK    6  A    between atoms: C_20  and  N_21
REMARK    7  A    between atoms: C_22  and  C_24
REMARK                            x       y       z     vdW  Elec       q    Type
REMARK                         _______ _______ _______ _____ _____    ______ ____
ROOT
ATOM      1  C   UNL     1      50.205   8.367  14.461  0.00  0.00    +0.000 C 
ATOM      2  C   UNL     1      49.058   7.848  15.338  0.00  0.00    +0.000 C 
ENDROOT
BRANCH   2   3
ATOM      3  C   UNL     1      49.531   6.668  16.181  0.00  0.00    +0.000 A 
ATOM      4  C   UNL     1      50.893   6.462  16.435  0.00  0.00    +0.000 A 
ATOM      5  C   UNL     1      51.315   5.402  17.250  0.00  0.00    +0.000 A 
ATOM      6  C   UNL     1      50.386   4.522  17.822  0.00  0.00    +0.000 A 
ATOM      7  C   UNL     1      49.024   4.728  17.571  0.00  0.00    +0.000 A 
ATOM      8  C   UNL     1      48.604   5.782  16.757  0.00  0.00    +0.000 A 
BRANCH   6   9
ATOM      9  C   UNL     1      50.830   3.404  18.729  0.00  0.00    +0.000 C 
BRANCH   9  10
ATOM     10  N   UNL     1      52.082   2.836  18.291  0.00  0.00    +0.000 N 
ATOM     11  C   UNL     1      52.133   1.625  17.650  0.00  0.00    +0.000 C 
ATOM     12  O   UNL     1      51.126   0.958  17.419  0.00  0.00    +0.000 OA
ATOM     13  H   UNL     1      52.924   3.375  18.420  0.00  0.00    +0.000 HD
BRANCH  11  14
ATOM     14  C   UNL     1      53.457   1.178  17.263  0.00  0.00    +0.000 A 
ATOM     15  C   UNL     1      54.687   1.816  17.240  0.00  0.00    +0.000 A 
ATOM     16  C   UNL     1      55.656   0.893  16.777  0.00  0.00    +0.000 A 
ATOM     17  C   UNL     1      55.006  -0.291  16.523  0.00  0.00    +0.000 A 
ATOM     18  N   UNL     1      53.681  -0.110  16.815  0.00  0.00    +0.000 N 
ATOM     19  H   UNL     1      52.952  -0.807  16.729  0.00  0.00    +0.000 HD
ENDBRANCH  11  14
ENDBRANCH   9  10
ENDBRANCH   6   9
ENDBRANCH   2   3
BRANCH   2  20
ATOM     20  N   UNL     1      47.895   7.434  14.564  0.00  0.00    +0.000 N 
ATOM     21  C   UNL     1      47.965   6.678  13.422  0.00  0.00    +0.000 C 
ATOM     22  O   UNL     1      49.020   6.238  12.978  0.00  0.00    +0.000 OA
ATOM     23  H   UNL     1      47.063   8.001  14.698  0.00  0.00    +0.000 HD
BRANCH  21  24
ATOM     24  C   UNL     1      46.683   6.357  12.780  0.00  0.00    +0.000 A 
ATOM     25  C   UNL     1      45.934   7.369  12.195  0.00  0.00    +0.000 A 
ATOM     26  S   UNL     1      44.480   6.826  11.491  0.00  0.00    +0.000 S 
ATOM     27  C   UNL     1      44.780   5.224  11.979  0.00  0.00    +0.000 A 
ATOM     28  N   UNL     1      43.881   4.234  11.722  0.00  0.00    +0.000 NA
ATOM     29  C   UNL     1      44.221   3.074  12.178  0.00  0.00    +0.000 A 
ATOM     30  N   UNL     1      45.384   2.812  12.855  0.00  0.00    +0.000 N 
ATOM     31  C   UNL     1      46.339   3.770  13.097  0.00  0.00    +0.000 A 
ATOM     32  O   UNL     1      47.403   3.488  13.640  0.00  0.00    +0.000 OA
ATOM     33  C   UNL     1      45.990   5.099  12.638  0.00  0.00    +0.000 A 
ATOM     34  H   UNL     1      45.599   1.876  13.166  0.00  0.00    +0.000 HD
ENDBRANCH  21  24
ENDBRANCH   2  20
TORSDOF 6
ENDMDL
MODEL 8
REMARK VINA RESULT:    -6.686      1.797      2.630
REMARK INTER + INTRA:         -10.044
REMARK INTER:                  -8.847
REMARK INTRA:                  -1.197
REMARK UNBOUND:                -1.012
REMARK  Name = 
REMARK  7 active torsions:
REMARK  status: ('A' for Active; 'I' for Inactive)
REMARK    1  A    between atoms: C_1  and  C_2
REMARK    2  A    between atoms: C_2  and  N_3
REMARK    3  A    between atoms: C_2  and  C_16
REMARK    4  A    between atoms: C_4  and  C_6
REMARK    5  A    between atoms: C_19  and  C_20
REMARK    6  A    between atoms: C_20  and  N_21
REMARK    7  A    between atoms: C_22  and  C_24
REMARK                            x       y       z     vdW  Elec       q    Type
REMARK                         _______ _______ _______ _____ _____    ______ ____
ROOT
ATOM      1  C   UNL     1      50.546   9.888  13.967  0.00  0.00    +0.000 C 
ATOM      2  C   UNL     1      50.225   8.388  14.002  0.00  0.00    +0.000 C 
ENDROOT
BRANCH   2   3
ATOM      3  C   UNL     1      48.875   8.122  13.346  0.00  0.00    +0.000 A 
ATOM      4  C   UNL     1      48.777   7.335  12.190  0.00  0.00    +0.000 A 
ATOM      5  C   UNL     1      47.527   7.057  11.620  0.00  0.00    +0.000 A 
ATOM      6  C   UNL     1      46.350   7.563  12.188  0.00  0.00    +0.000 A 
ATOM      7  C   UNL     1      46.445   8.347  13.344  0.00  0.00    +0.000 A 
ATOM      8  C   UNL     1      47.692   8.628  13.910  0.00  0.00    +0.000 A 
BRANCH   6   9
ATOM      9  C   UNL     1      45.000   7.236  11.603  0.00  0.00    +0.000 C 
BRANCH   9  10
ATOM     10  N   UNL     1      45.091   6.172  10.633  0.00  0.00    +0.000 N 
ATOM     11  C   UNL     1      44.723   4.887  10.942  0.00  0.00    +0.000 C 
ATOM     12  O   UNL     1      44.305   4.571  12.054  0.00  0.00    +0.000 OA
ATOM     13  H   UNL     1      45.384   6.401   9.695  0.00  0.00    +0.000 HD
BRANCH  11  14
ATOM     14  C   UNL     1      44.864   3.922   9.870  0.00  0.00    +0.000 A 
ATOM     15  C   UNL     1      45.136   4.062   8.518  0.00  0.00    +0.000 A 
ATOM     16  C   UNL     1      45.168   2.771   7.937  0.00  0.00    +0.000 A 
ATOM     17  C   UNL     1      44.912   1.864   8.938  0.00  0.00    +0.000 A 
ATOM     18  N   UNL     1      44.726   2.567  10.099  0.00  0.00    +0.000 N 
ATOM     19  H   UNL     1      44.523   2.169  11.008  0.00  0.00    +0.000 HD
ENDBRANCH  11  14
ENDBRANCH   9  10
ENDBRANCH   6   9
ENDBRANCH   2   3
BRANCH   2  20
ATOM     20  N   UNL     1      50.204   7.845  15.354  0.00  0.00    +0.000 N 
ATOM     21  C   UNL     1      51.288   7.268  15.964  0.00  0.00    +0.000 C 
ATOM     22  O   UNL     1      52.395   7.208  15.438  0.00  0.00    +0.000 OA
ATOM     23  H   UNL     1      49.284   7.594  15.705  0.00  0.00    +0.000 HD
BRANCH  21  24
ATOM     24  C   UNL     1      51.075   6.779  17.333  0.00  0.00    +0.000 A 
ATOM     25  C   UNL     1      51.903   7.217  18.357  0.00  0.00    +0.000 A 
ATOM     26  S   UNL     1      51.516   6.559  19.881  0.00  0.00    +0.000 S 
ATOM     27  C   UNL     1      50.252   5.632  19.219  0.00  0.00    +0.000 A 
ATOM     28  N   UNL     1      49.519   4.790  19.997  0.00  0.00    +0.000 NA
ATOM     29  C   UNL     1      48.615   4.124  19.359  0.00  0.00    +0.000 A 
ATOM     30  N   UNL     1      48.368   4.235  18.015  0.00  0.00    +0.000 N 
ATOM     31  C   UNL     1      49.052   5.104  17.199  0.00  0.00    +0.000 A 
ATOM     32  O   UNL     1      48.758   5.235  16.015  0.00  0.00    +0.000 OA
ATOM     33  C   UNL     1      50.105   5.850  17.860  0.00  0.00    +0.000 A 
ATOM     34  H   UNL     1      47.631   3.701  17.580  0.00  0.00    +0.000 HD
ENDBRANCH  21  24
ENDBRANCH   2  20
TORSDOF 6
ENDMDL
MODEL 9
REMARK VINA RESULT:    -6.663      4.561      7.534
REMARK INTER + INTRA:         -10.012
REMARK INTER:                  -9.026
REMARK INTRA:                  -0.986
REMARK UNBOUND:                -1.012
REMARK  Name = 
REMARK  7 active torsions:
REMARK  status: ('A' for Active; 'I' for Inactive)
REMARK    1  A    between atoms: C_1  and  C_2
REMARK    2  A    between atoms: C_2  and  N_3
REMARK    3  A    between atoms: C_2  and  C_16
REMARK    4  A    between atoms: C_4  and  C_6
REMARK    5  A    between atoms: C_19  and  C_20
REMARK    6  A    between atoms: C_20  and  N_21
REMARK    7  A    between atoms: C_22  and  C_24
REMARK                            x       y       z     vdW  Elec       q    Type
REMARK                         _______ _______ _______ _____ _____    ______ ____
ROOT
ATOM      1  C   UNL     1      45.254   9.499  12.393  0.00  0.00    +0.000 C 
ATOM      2  C   UNL     1      46.061   8.240  12.731  0.00  0.00    +0.000 C 
ENDROOT
BRANCH   2   3
ATOM      3  C   UNL     1      47.503   8.393  12.258  0.00  0.00    +0.000 A 
ATOM      4  C   UNL     1      48.004   9.639  11.861  0.00  0.00    +0.000 A 
ATOM      5  C   UNL     1      49.343   9.780  11.472  0.00  0.00    +0.000 A 
ATOM      6  C   UNL     1      50.208   8.677  11.465  0.00  0.00    +0.000 A 
ATOM      7  C   UNL     1      49.710   7.431  11.863  0.00  0.00    +0.000 A 
ATOM      8  C   UNL     1      48.374   7.290  12.248  0.00  0.00    +0.000 A 
BRANCH   6   9
ATOM      9  C   UNL     1      51.658   8.828  11.085  0.00  0.00    +0.000 C 
BRANCH   9  10
ATOM     10  N   UNL     1      52.009   7.958   9.989  0.00  0.00    +0.000 N 
ATOM     11  C   UNL     1      53.064   7.086  10.076  0.00  0.00    +0.000 C 
ATOM     12  O   UNL     1      53.769   7.001  11.080  0.00  0.00    +0.000 OA
ATOM     13  H   UNL     1      51.426   7.964   9.166  0.00  0.00    +0.000 HD
BRANCH  11  14
ATOM     14  C   UNL     1      53.299   6.270   8.900  0.00  0.00    +0.000 A 
ATOM     15  C   UNL     1      52.771   6.306   7.619  0.00  0.00    +0.000 A 
ATOM     16  C   UNL     1      53.370   5.268   6.864  0.00  0.00    +0.000 A 
ATOM     17  C   UNL     1      54.250   4.614   7.693  0.00  0.00    +0.000 A 
ATOM     18  N   UNL     1      54.198   5.222   8.919  0.00  0.00    +0.000 N 
ATOM     19  H   UNL     1      54.738   4.961   9.735  0.00  0.00    +0.000 HD
ENDBRANCH  11  14
ENDBRANCH   9  10
ENDBRANCH   6   9
ENDBRANCH   2   3
BRANCH   2  20
ATOM     20  N   UNL     1      45.501   7.031  12.141  0.00  0.00    +0.000 N 
ATOM     21  C   UNL     1      45.497   5.807  12.760  0.00  0.00    +0.000 C 
ATOM     22  O   UNL     1      45.923   5.635  13.897  0.00  0.00    +0.000 OA
ATOM     23  H   UNL     1      45.421   7.042  11.128  0.00  0.00    +0.000 HD
BRANCH  21  24
ATOM     24  C   UNL     1      44.883   4.705  12.008  0.00  0.00    +0.000 A 
ATOM     25  C   UNL     1      44.065   3.796  12.664  0.00  0.00    +0.000 A 
ATOM     26  S   UNL     1      43.429   2.585  11.646  0.00  0.00    +0.000 S 
ATOM     27  C   UNL     1      44.259   3.209  10.298  0.00  0.00    +0.000 A 
ATOM     28  N   UNL     1      44.179   2.600   9.084  0.00  0.00    +0.000 NA
ATOM     29  C   UNL     1      44.885   3.160   8.158  0.00  0.00    +0.000 A 
ATOM     30  N   UNL     1      45.653   4.283   8.334  0.00  0.00    +0.000 N 
ATOM     31  C   UNL     1      45.728   4.956   9.530  0.00  0.00    +0.000 A 
ATOM     32  O   UNL     1      46.364   6.000   9.637  0.00  0.00    +0.000 OA
ATOM     33  C   UNL     1      44.982   4.346  10.613  0.00  0.00    +0.000 A 
ATOM     34  H   UNL     1      46.165   4.683   7.563  0.00  0.00    +0.000 HD
ENDBRANCH  21  24
ENDBRANCH   2  20
TORSDOF 6
ENDMDL
