MODEL 1
REMARK VINA RESULT:    -8.648      0.000      0.000
REMARK INTER + INTRA:         -11.301
REMARK INTER:                 -11.176
REMARK INTRA:                  -0.125
REMARK UNBOUND:                -0.125
REMARK  Name = 
REMARK  5 active torsions:
REMARK  status: ('A' for Active; 'I' for Inactive)
REMARK    1  A    between atoms: C_8  and  C_9
REMARK    2  A    between atoms: N_11  and  C_12
REMARK    3  A    between atoms: C_12  and  C_13
REMARK    4  A    between atoms: C_16  and  O_17
REMARK    5  A    between atoms: O_17  and  C_18
REMARK                            x       y       z     vdW  Elec       q    Type
REMARK                         _______ _______ _______ _____ _____    ______ ____
ROOT
ATOM      1  C   UNL     1      46.454   4.440  13.953  0.00  0.00    +0.000 C 
ATOM      2  O   UNL     1      46.624   3.238  13.733  0.00  0.00    +0.000 OA
ATOM      3  N   UNL     1      45.385   5.113  13.416  0.00  0.00    +0.000 N 
ATOM      4  H   UNL     1      45.289   6.117  13.554  0.00  0.00    +0.000 HD
ENDROOT
BRANCH   1  12
ATOM      5  N   UNL     1      50.183   6.943  18.333  0.00  0.00    +0.000 N 
ATOM      6  C   UNL     1      49.293   5.995  17.911  0.00  0.00    +0.000 A 
ATOM      7  N   UNL     1      48.960   5.065  18.771  0.00  0.00    +0.000 NA
ATOM      8  N   UNL     1      48.040   4.112  18.392  0.00  0.00    +0.000 N 
ATOM      9  C   UNL     1      47.366   4.046  17.187  0.00  0.00    +0.000 A 
ATOM     10  O   UNL     1      46.487   3.211  16.996  0.00  0.00    +0.000 OA
ATOM     11  C   UNL     1      47.776   5.022  16.190  0.00  0.00    +0.000 A 
ATOM     12  C   UNL     1      47.384   5.199  14.805  0.00  0.00    +0.000 A 
ATOM     13  C   UNL     1      48.067   6.286  14.266  0.00  0.00    +0.000 A 
ATOM     14  S   UNL     1      49.135   7.047  15.360  0.00  0.00    +0.000 S 
ATOM     15  C   UNL     1      48.714   5.957  16.583  0.00  0.00    +0.000 A 
ATOM     16  H   UNL     1      50.711   6.669  19.153  0.00  0.00    +0.000 HD
ATOM     17  H   UNL     1      50.717   7.418  17.617  0.00  0.00    +0.000 HD
ATOM     18  H   UNL     1      47.774   3.439  19.104  0.00  0.00    +0.000 HD
ENDBRANCH   1  12
BRANCH   3  19
ATOM     19  C   UNL     1      44.413   4.454  12.579  0.00  0.00    +0.000 C 
BRANCH  19  20
ATOM     20  C   UNL     1      44.816   4.431  11.130  0.00  0.00    +0.000 A 
ATOM     21  C   UNL     1      44.466   3.368  10.294  0.00  0.00    +0.000 A 
ATOM     22  C   UNL     1      44.898   3.353   8.967  0.00  0.00    +0.000 A 
ATOM     23  C   UNL     1      45.658   4.414   8.502  0.00  0.00    +0.000 A 
ATOM     24  N   UNL     1      45.993   5.474   9.271  0.00  0.00    +0.000 NA
ATOM     25  C   UNL     1      45.559   5.459  10.559  0.00  0.00    +0.000 A 
BRANCH  23  26
ATOM     26  O   UNL     1      46.086   4.345   7.182  0.00  0.00    +0.000 OA
BRANCH  26  27
ATOM     27  C   UNL     1      46.081   3.013   6.646  0.00  0.00    +0.000 C 
ATOM     28  C   UNL     1      47.022   2.119   7.447  0.00  0.00    +0.000 C 
ATOM     29  C   UNL     1      48.366   2.269   6.761  0.00  0.00    +0.000 C 
ATOM     30  N   UNL     1      48.083   2.484   5.342  0.00  0.00    +0.000 NA
ATOM     31  C   UNL     1      46.691   2.970   5.241  0.00  0.00    +0.000 C 
ATOM     32  H   UNL     1      48.163   1.604   4.835  0.00  0.00    +0.000 HD
ENDBRANCH  26  27
ENDBRANCH  23  26
ENDBRANCH  19  20
ENDBRANCH   3  19
TORSDOF 5
ENDMDL
MODEL 2
REMARK VINA RESULT:    -8.353      1.588      2.351
REMARK INTER + INTRA:         -10.920
REMARK INTER:                 -10.680
REMARK INTRA:                  -0.240
REMARK UNBOUND:                -0.125
REMARK  Name = 
REMARK  5 active torsions:
REMARK  status: ('A' for Active; 'I' for Inactive)
REMARK    1  A    between atoms: C_8  and  C_9
REMARK    2  A    between atoms: N_11  and  C_12
REMARK    3  A    between atoms: C_12  and  C_13
REMARK    4  A    between atoms: C_16  and  O_17
REMARK    5  A    between atoms: O_17  and  C_18
REMARK                            x       y       z     vdW  Elec       q    Type
REMARK                         _______ _______ _______ _____ _____    ______ ____
ROOT
ATOM      1  C   UNL     1      46.107   4.298  13.651  0.00  0.00    +0.000 C 
ATOM      2  O   UNL     1      46.203   3.138  13.246  0.00  0.00    +0.000 OA
ATOM      3  N   UNL     1      45.100   5.121  13.210  0.00  0.00    +0.000 N 
ATOM      4  H   UNL     1      45.068   6.095  13.504  0.00  0.00    +0.000 HD
ENDROOT
BRANCH   1  12
ATOM      5  N   UNL     1      50.397   7.360  17.053  0.00  0.00    +0.000 N 
ATOM      6  C   UNL     1      49.673   7.185  15.907  0.00  0.00    +0.000 A 
ATOM      7  N   UNL     1      49.893   8.030  14.930  0.00  0.00    +0.000 NA
ATOM      8  N   UNL     1      49.206   7.864  13.746  0.00  0.00    +0.000 N 
ATOM      9  C   UNL     1      48.319   6.850  13.439  0.00  0.00    +0.000 A 
ATOM     10  O   UNL     1      47.844   6.741  12.314  0.00  0.00    +0.000 OA
ATOM     11  C   UNL     1      48.003   5.946  14.535  0.00  0.00    +0.000 A 
ATOM     12  C   UNL     1      47.061   4.847  14.628  0.00  0.00    +0.000 A 
ATOM     13  C   UNL     1      47.128   4.288  15.901  0.00  0.00    +0.000 A 
ATOM     14  S   UNL     1      48.253   5.050  16.936  0.00  0.00    +0.000 S 
ATOM     15  C   UNL     1      48.687   6.140  15.719  0.00  0.00    +0.000 A 
ATOM     16  H   UNL     1      50.807   8.282  17.140  0.00  0.00    +0.000 HD
ATOM     17  H   UNL     1      49.999   6.985  17.906  0.00  0.00    +0.000 HD
ATOM     18  H   UNL     1      49.441   8.510  13.000  0.00  0.00    +0.000 HD
ENDBRANCH   1  12
BRANCH   3  19
ATOM     19  C   UNL     1      44.110   4.670  12.263  0.00  0.00    +0.000 C 
BRANCH  19  20
ATOM     20  C   UNL     1      44.649   4.574  10.862  0.00  0.00    +0.000 A 
ATOM     21  C   UNL     1      44.286   3.525  10.013  0.00  0.00    +0.000 A 
ATOM     22  C   UNL     1      44.844   3.436   8.737  0.00  0.00    +0.000 A 
ATOM     23  C   UNL     1      45.741   4.412   8.333  0.00  0.00    +0.000 A 
ATOM     24  N   UNL     1      46.095   5.457   9.113  0.00  0.00    +0.000 NA
ATOM     25  C   UNL     1      45.537   5.515  10.351  0.00  0.00    +0.000 A 
BRANCH  23  26
ATOM     26  O   UNL     1      46.289   4.270   7.064  0.00  0.00    +0.000 OA
BRANCH  26  27
ATOM     27  C   UNL     1      46.214   2.930   6.553  0.00  0.00    +0.000 C 
ATOM     28  C   UNL     1      47.011   1.981   7.443  0.00  0.00    +0.000 C 
ATOM     29  C   UNL     1      48.412   2.004   6.864  0.00  0.00    +0.000 C 
ATOM     30  N   UNL     1      48.260   2.206   5.424  0.00  0.00    +0.000 NA
ATOM     31  C   UNL     1      46.927   2.802   5.202  0.00  0.00    +0.000 C 
ATOM     32  H   UNL     1      48.306   1.310   4.940  0.00  0.00    +0.000 HD
ENDBRANCH  26  27
ENDBRANCH  23  26
ENDBRANCH  19  20
ENDBRANCH   3  19
TORSDOF 5
ENDMDL
MODEL 3
REMARK VINA RESULT:    -8.182      3.952      8.853
REMARK INTER + INTRA:         -10.699
REMARK INTER:                  -9.847
REMARK INTRA:                  -0.851
REMARK UNBOUND:                -0.125
REMARK  Name = 
REMARK  5 active torsions:
REMARK  status: ('A' for Active; 'I' for Inactive)
REMARK    1  A    between atoms: C_8  and  C_9
REMARK    2  A    between atoms: N_11  and  C_12
REMARK    3  A    between atoms: C_12  and  C_13
REMARK    4  A    between atoms: C_16  and  O_17
REMARK    5  A    between atoms: O_17  and  C_18
REMARK                            x       y       z     vdW  Elec       q    Type
REMARK                         _______ _______ _______ _____ _____    ______ ____
ROOT
ATOM      1  C   UNL     1      48.261   6.315  14.697  0.00  0.00    +0.000 C 
ATOM      2  O   UNL     1      49.400   6.743  14.498  0.00  0.00    +0.000 OA
ATOM      3  N   UNL     1      47.869   5.902  15.947  0.00  0.00    +0.000 N 
ATOM      4  H   UNL     1      46.947   5.495  16.085  0.00  0.00    +0.000 HD
ENDROOT
BRANCH   1  12
ATOM      5  N   UNL     1      43.994   4.944  10.308  0.00  0.00    +0.000 N 
ATOM      6  C   UNL     1      44.816   4.584  11.339  0.00  0.00    +0.000 A 
ATOM      7  N   UNL     1      44.802   3.325  11.700  0.00  0.00    +0.000 NA
ATOM      8  N   UNL     1      45.642   2.919  12.714  0.00  0.00    +0.000 N 
ATOM      9  C   UNL     1      46.565   3.698  13.386  0.00  0.00    +0.000 A 
ATOM     10  O   UNL     1      47.338   3.205  14.202  0.00  0.00    +0.000 OA
ATOM     11  C   UNL     1      46.544   5.114  13.055  0.00  0.00    +0.000 A 
ATOM     12  C   UNL     1      47.273   6.238  13.609  0.00  0.00    +0.000 A 
ATOM     13  C   UNL     1      46.896   7.405  12.948  0.00  0.00    +0.000 A 
ATOM     14  S   UNL     1      45.718   7.166  11.736  0.00  0.00    +0.000 S 
ATOM     15  C   UNL     1      45.680   5.505  12.049  0.00  0.00    +0.000 A 
ATOM     16  H   UNL     1      43.254   4.276  10.125  0.00  0.00    +0.000 HD
ATOM     17  H   UNL     1      43.716   5.917  10.264  0.00  0.00    +0.000 HD
ATOM     18  H   UNL     1      45.635   1.927  12.930  0.00  0.00    +0.000 HD
ENDBRANCH   1  12
BRANCH   3  19
ATOM     19  C   UNL     1      48.761   5.952  17.079  0.00  0.00    +0.000 C 
BRANCH  19  20
ATOM     20  C   UNL     1      49.599   4.710  17.210  0.00  0.00    +0.000 A 
ATOM     21  C   UNL     1      49.029   3.436  17.144  0.00  0.00    +0.000 A 
ATOM     22  C   UNL     1      49.827   2.305  17.320  0.00  0.00    +0.000 A 
ATOM     23  C   UNL     1      51.184   2.475  17.542  0.00  0.00    +0.000 A 
ATOM     24  N   UNL     1      51.778   3.689  17.585  0.00  0.00    +0.000 NA
ATOM     25  C   UNL     1      50.975   4.771  17.412  0.00  0.00    +0.000 A 
BRANCH  23  26
ATOM     26  O   UNL     1      51.935   1.322  17.736  0.00  0.00    +0.000 OA
BRANCH  26  27
ATOM     27  C   UNL     1      53.349   1.528  17.592  0.00  0.00    +0.000 C 
ATOM     28  C   UNL     1      54.004   0.285  16.996  0.00  0.00    +0.000 C 
ATOM     29  C   UNL     1      54.364  -0.568  18.196  0.00  0.00    +0.000 C 
ATOM     30  N   UNL     1      54.676   0.359  19.284  0.00  0.00    +0.000 NA
ATOM     31  C   UNL     1      54.041   1.652  18.954  0.00  0.00    +0.000 C 
ATOM     32  H   UNL     1      55.684   0.494  19.347  0.00  0.00    +0.000 HD
ENDBRANCH  26  27
ENDBRANCH  23  26
ENDBRANCH  19  20
ENDBRANCH   3  19
TORSDOF 5
ENDMDL
MODEL 4
REMARK VINA RESULT:    -7.829      4.158      9.181
REMARK INTER + INTRA:         -10.243
REMARK INTER:                  -9.530
REMARK INTRA:                  -0.713
REMARK UNBOUND:                -0.125
REMARK  Name = 
REMARK  5 active torsions:
REMARK  status: ('A' for Active; 'I' for Inactive)
REMARK    1  A    between atoms: C_8  and  C_9
REMARK    2  A    between atoms: N_11  and  C_12
REMARK    3  A    between atoms: C_12  and  C_13
REMARK    4  A    between atoms: C_16  and  O_17
REMARK    5  A    between atoms: O_17  and  C_18
REMARK                            x       y       z     vdW  Elec       q    Type
REMARK                         _______ _______ _______ _____ _____    ______ ____
ROOT
ATOM      1  C   UNL     1      46.837   4.127  14.561  0.00  0.00    +0.000 C 
ATOM      2  O   UNL     1      47.318   3.103  14.071  0.00  0.00    +0.000 OA
ATOM      3  N   UNL     1      46.771   4.298  15.922  0.00  0.00    +0.000 N 
ATOM      4  H   UNL     1      46.317   5.120  16.313  0.00  0.00    +0.000 HD
ENDROOT
BRANCH   1  12
ATOM      5  N   UNL     1      43.762   8.145  10.852  0.00  0.00    +0.000 N 
ATOM      6  C   UNL     1      43.841   6.971  11.548  0.00  0.00    +0.000 A 
ATOM      7  N   UNL     1      42.799   6.178  11.499  0.00  0.00    +0.000 NA
ATOM      8  N   UNL     1      42.856   4.971  12.160  0.00  0.00    +0.000 N 
ATOM      9  C   UNL     1      43.935   4.456  12.852  0.00  0.00    +0.000 A 
ATOM     10  O   UNL     1      43.910   3.321  13.315  0.00  0.00    +0.000 OA
ATOM     11  C   UNL     1      45.075   5.351  12.984  0.00  0.00    +0.000 A 
ATOM     12  C   UNL     1      46.323   5.212  13.709  0.00  0.00    +0.000 A 
ATOM     13  C   UNL     1      47.095   6.356  13.523  0.00  0.00    +0.000 A 
ATOM     14  S   UNL     1      46.355   7.541  12.541  0.00  0.00    +0.000 S 
ATOM     15  C   UNL     1      44.991   6.565  12.330  0.00  0.00    +0.000 A 
ATOM     16  H   UNL     1      42.814   8.415  10.616  0.00  0.00    +0.000 HD
ATOM     17  H   UNL     1      44.359   8.901  11.163  0.00  0.00    +0.000 HD
ATOM     18  H   UNL     1      42.046   4.367  12.058  0.00  0.00    +0.000 HD
ENDBRANCH   1  12
BRANCH   3  19
ATOM     19  C   UNL     1      47.261   3.298  16.838  0.00  0.00    +0.000 C 
BRANCH  19  20
ATOM     20  C   UNL     1      48.742   3.407  17.078  0.00  0.00    +0.000 A 
ATOM     21  C   UNL     1      49.565   2.278  17.072  0.00  0.00    +0.000 A 
ATOM     22  C   UNL     1      50.927   2.408  17.349  0.00  0.00    +0.000 A 
ATOM     23  C   UNL     1      51.437   3.670  17.609  0.00  0.00    +0.000 A 
ATOM     24  N   UNL     1      50.679   4.788  17.596  0.00  0.00    +0.000 NA
ATOM     25  C   UNL     1      49.357   4.631  17.325  0.00  0.00    +0.000 A 
BRANCH  23  26
ATOM     26  O   UNL     1      52.793   3.748  17.903  0.00  0.00    +0.000 OA
BRANCH  26  27
ATOM     27  C   UNL     1      53.174   2.985  19.058  0.00  0.00    +0.000 C 
ATOM     28  C   UNL     1      53.737   3.906  20.136  0.00  0.00    +0.000 C 
ATOM     29  C   UNL     1      55.221   3.982  19.835  0.00  0.00    +0.000 C 
ATOM     30  N   UNL     1      55.594   2.687  19.268  0.00  0.00    +0.000 NA
ATOM     31  C   UNL     1      54.359   2.060  18.755  0.00  0.00    +0.000 C 
ATOM     32  H   UNL     1      55.990   2.090  19.993  0.00  0.00    +0.000 HD
ENDBRANCH  26  27
ENDBRANCH  23  26
ENDBRANCH  19  20
ENDBRANCH   3  19
TORSDOF 5
ENDMDL
MODEL 5
REMARK VINA RESULT:    -7.577      3.683      5.996
REMARK INTER + INTRA:          -9.917
REMARK INTER:                  -8.868
REMARK INTRA:                  -1.049
REMARK UNBOUND:                -0.125
REMARK  Name = 
REMARK  5 active torsions:
REMARK  status: ('A' for Active; 'I' for Inactive)
REMARK    1  A    between atoms: C_8  and  C_9
REMARK    2  A    between atoms: N_11  and  C_12
REMARK    3  A    between atoms: C_12  and  C_13
REMARK    4  A    between atoms: C_16  and  O_17
REMARK    5  A    between atoms: O_17  and  C_18
REMARK                            x       y       z     vdW  Elec       q    Type
REMARK                         _______ _______ _______ _____ _____    ______ ____
ROOT
ATOM      1  C   UNL     1      51.269   5.582  17.046  0.00  0.00    +0.000 C 
ATOM      2  O   UNL     1      51.654   6.448  16.257  0.00  0.00    +0.000 OA
ATOM      3  N   UNL     1      49.953   5.513  17.433  0.00  0.00    +0.000 N 
ATOM      4  H   UNL     1      49.660   4.833  18.131  0.00  0.00    +0.000 HD
ENDROOT
BRANCH   1  12
ATOM      5  N   UNL     1      54.495   0.608  19.096  0.00  0.00    +0.000 N 
ATOM      6  C   UNL     1      53.398   1.168  18.502  0.00  0.00    +0.000 A 
ATOM      7  N   UNL     1      52.453   0.351  18.106  0.00  0.00    +0.000 NA
ATOM      8  N   UNL     1      51.318   0.882  17.534  0.00  0.00    +0.000 N 
ATOM      9  C   UNL     1      51.026   2.223  17.365  0.00  0.00    +0.000 A 
ATOM     10  O   UNL     1      49.935   2.586  16.937  0.00  0.00    +0.000 OA
ATOM     11  C   UNL     1      52.093   3.143  17.726  0.00  0.00    +0.000 A 
ATOM     12  C   UNL     1      52.199   4.584  17.598  0.00  0.00    +0.000 A 
ATOM     13  C   UNL     1      53.433   5.002  18.090  0.00  0.00    +0.000 A 
ATOM     14  S   UNL     1      54.418   3.731  18.664  0.00  0.00    +0.000 S 
ATOM     15  C   UNL     1      53.231   2.590  18.281  0.00  0.00    +0.000 A 
ATOM     16  H   UNL     1      54.598  -0.382  18.908  0.00  0.00    +0.000 HD
ATOM     17  H   UNL     1      55.353   1.143  19.066  0.00  0.00    +0.000 HD
ATOM     18  H   UNL     1      50.591   0.219  17.285  0.00  0.00    +0.000 HD
ENDBRANCH   1  12
BRANCH   3  19
ATOM     19  C   UNL     1      48.965   6.438  16.937  0.00  0.00    +0.000 C 
BRANCH  19  20
ATOM     20  C   UNL     1      48.214   5.903  15.749  0.00  0.00    +0.000 A 
ATOM     21  C   UNL     1      48.259   6.547  14.510  0.00  0.00    +0.000 A 
ATOM     22  C   UNL     1      47.511   6.053  13.439  0.00  0.00    +0.000 A 
ATOM     23  C   UNL     1      46.748   4.913  13.631  0.00  0.00    +0.000 A 
ATOM     24  N   UNL     1      46.700   4.246  14.805  0.00  0.00    +0.000 NA
ATOM     25  C   UNL     1      47.437   4.751  15.829  0.00  0.00    +0.000 A 
BRANCH  23  26
ATOM     26  O   UNL     1      46.001   4.471  12.545  0.00  0.00    +0.000 OA
BRANCH  26  27
ATOM     27  C   UNL     1      45.412   5.536  11.783  0.00  0.00    +0.000 C 
ATOM     28  C   UNL     1      43.965   5.755  12.213  0.00  0.00    +0.000 C 
ATOM     29  C   UNL     1      43.160   4.825  11.327  0.00  0.00    +0.000 C 
ATOM     30  N   UNL     1      43.872   4.752  10.051  0.00  0.00    +0.000 NA
ATOM     31  C   UNL     1      45.269   5.157  10.304  0.00  0.00    +0.000 C 
ATOM     32  H   UNL     1      43.456   5.401   9.384  0.00  0.00    +0.000 HD
ENDBRANCH  26  27
ENDBRANCH  23  26
ENDBRANCH  19  20
ENDBRANCH   3  19
TORSDOF 5
ENDMDL
MODEL 6
REMARK VINA RESULT:    -7.314      3.781      5.494
REMARK INTER + INTRA:          -9.577
REMARK INTER:                  -8.986
REMARK INTRA:                  -0.591
REMARK UNBOUND:                -0.125
REMARK  Name = 
REMARK  5 active torsions:
REMARK  status: ('A' for Active; 'I' for Inactive)
REMARK    1  A    between atoms: C_8  and  C_9
REMARK    2  A    between atoms: N_11  and  C_12
REMARK    3  A    between atoms: C_12  and  C_13
REMARK    4  A    between atoms: C_16  and  O_17
REMARK    5  A    between atoms: O_17  and  C_18
REMARK                            x       y       z     vdW  Elec       q    Type
REMARK                         _______ _______ _______ _____ _____    ______ ____
ROOT
ATOM      1  C   UNL     1      49.533   6.471  16.962  0.00  0.00    +0.000 C 
ATOM      2  O   UNL     1      48.558   6.783  17.650  0.00  0.00    +0.000 OA
ATOM      3  N   UNL     1      49.773   7.082  15.756  0.00  0.00    +0.000 N 
ATOM      4  H   UNL     1      50.546   6.773  15.171  0.00  0.00    +0.000 HD
ENDROOT
BRANCH   1  12
ATOM      5  N   UNL     1      52.897   1.378  18.412  0.00  0.00    +0.000 N 
ATOM      6  C   UNL     1      51.806   1.977  17.847  0.00  0.00    +0.000 A 
ATOM      7  N   UNL     1      50.925   1.193  17.276  0.00  0.00    +0.000 NA
ATOM      8  N   UNL     1      49.796   1.759  16.725  0.00  0.00    +0.000 N 
ATOM      9  C   UNL     1      49.445   3.096  16.747  0.00  0.00    +0.000 A 
ATOM     10  O   UNL     1      48.361   3.475  16.316  0.00  0.00    +0.000 OA
ATOM     11  C   UNL     1      50.444   3.993  17.308  0.00  0.00    +0.000 A 
ATOM     12  C   UNL     1      50.483   5.439  17.408  0.00  0.00    +0.000 A 
ATOM     13  C   UNL     1      51.666   5.827  18.031  0.00  0.00    +0.000 A 
ATOM     14  S   UNL     1      52.684   4.524  18.461  0.00  0.00    +0.000 S 
ATOM     15  C   UNL     1      51.578   3.408  17.837  0.00  0.00    +0.000 A 
ATOM     16  H   UNL     1      53.061   0.435  18.081  0.00  0.00    +0.000 HD
ATOM     17  H   UNL     1      53.728   1.948  18.515  0.00  0.00    +0.000 HD
ATOM     18  H   UNL     1      49.117   1.113  16.336  0.00  0.00    +0.000 HD
ENDBRANCH   1  12
BRANCH   3  19
ATOM     19  C   UNL     1      48.907   8.114  15.241  0.00  0.00    +0.000 C 
BRANCH  19  20
ATOM     20  C   UNL     1      47.974   7.607  14.176  0.00  0.00    +0.000 A 
ATOM     21  C   UNL     1      47.031   8.446  13.576  0.00  0.00    +0.000 A 
ATOM     22  C   UNL     1      46.145   7.933  12.627  0.00  0.00    +0.000 A 
ATOM     23  C   UNL     1      46.236   6.593  12.287  0.00  0.00    +0.000 A 
ATOM     24  N   UNL     1      47.152   5.757  12.823  0.00  0.00    +0.000 NA
ATOM     25  C   UNL     1      47.999   6.284  13.746  0.00  0.00    +0.000 A 
BRANCH  23  26
ATOM     26  O   UNL     1      45.318   6.121  11.356  0.00  0.00    +0.000 OA
BRANCH  26  27
ATOM     27  C   UNL     1      44.639   4.927  11.774  0.00  0.00    +0.000 C 
ATOM     28  C   UNL     1      43.349   4.749  10.980  0.00  0.00    +0.000 C 
ATOM     29  C   UNL     1      42.301   5.492  11.785  0.00  0.00    +0.000 C 
ATOM     30  N   UNL     1      42.691   5.365  13.189  0.00  0.00    +0.000 NA
ATOM     31  C   UNL     1      44.133   5.044  13.217  0.00  0.00    +0.000 C 
ATOM     32  H   UNL     1      42.175   4.601  13.625  0.00  0.00    +0.000 HD
ENDBRANCH  26  27
ENDBRANCH  23  26
ENDBRANCH  19  20
ENDBRANCH   3  19
TORSDOF 5
ENDMDL
MODEL 7
REMARK VINA RESULT:    -7.264      2.980      4.185
REMARK INTER + INTRA:          -9.513
REMARK INTER:                  -8.874
REMARK INTRA:                  -0.638
REMARK UNBOUND:                -0.125
REMARK  Name = 
REMARK  5 active torsions:
REMARK  status: ('A' for Active; 'I' for Inactive)
REMARK    1  A    between atoms: C_8  and  C_9
REMARK    2  A    between atoms: N_11  and  C_12
REMARK    3  A    between atoms: C_12  and  C_13
REMARK    4  A    between atoms: C_16  and  O_17
REMARK    5  A    between atoms: O_17  and  C_18
REMARK                            x       y       z     vdW  Elec       q    Type
REMARK                         _______ _______ _______ _____ _____    ______ ____
ROOT
ATOM      1  C   UNL     1      48.895   7.366  15.287  0.00  0.00    +0.000 C 
ATOM      2  O   UNL     1      49.671   7.005  14.399  0.00  0.00    +0.000 OA
ATOM      3  N   UNL     1      47.879   8.251  15.023  0.00  0.00    +0.000 N 
ATOM      4  H   UNL     1      47.284   8.588  15.777  0.00  0.00    +0.000 HD
ENDROOT
BRANCH   1  12
ATOM      5  N   UNL     1      49.076   4.278  20.745  0.00  0.00    +0.000 N 
ATOM      6  C   UNL     1      48.823   4.333  19.403  0.00  0.00    +0.000 A 
ATOM      7  N   UNL     1      48.384   3.237  18.834  0.00  0.00    +0.000 NA
ATOM      8  N   UNL     1      48.085   3.265  17.489  0.00  0.00    +0.000 N 
ATOM      9  C   UNL     1      48.149   4.360  16.649  0.00  0.00    +0.000 A 
ATOM     10  O   UNL     1      47.758   4.295  15.489  0.00  0.00    +0.000 OA
ATOM     11  C   UNL     1      48.706   5.567  17.241  0.00  0.00    +0.000 A 
ATOM     12  C   UNL     1      49.021   6.859  16.663  0.00  0.00    +0.000 A 
ATOM     13  C   UNL     1      49.544   7.692  17.650  0.00  0.00    +0.000 A 
ATOM     14  S   UNL     1      49.662   6.957  19.187  0.00  0.00    +0.000 S 
ATOM     15  C   UNL     1      49.018   5.514  18.586  0.00  0.00    +0.000 A 
ATOM     16  H   UNL     1      49.180   3.335  21.101  0.00  0.00    +0.000 HD
ATOM     17  H   UNL     1      49.737   4.951  21.112  0.00  0.00    +0.000 HD
ATOM     18  H   UNL     1      47.704   2.409  17.099  0.00  0.00    +0.000 HD
ENDBRANCH   1  12
BRANCH   3  19
ATOM     19  C   UNL     1      47.666   8.793  13.704  0.00  0.00    +0.000 C 
BRANCH  19  20
ATOM     20  C   UNL     1      46.859   7.878  12.824  0.00  0.00    +0.000 A 
ATOM     21  C   UNL     1      45.479   7.735  12.996  0.00  0.00    +0.000 A 
ATOM     22  C   UNL     1      44.767   6.839  12.196  0.00  0.00    +0.000 A 
ATOM     23  C   UNL     1      45.451   6.119  11.230  0.00  0.00    +0.000 A 
ATOM     24  N   UNL     1      46.779   6.251  11.014  0.00  0.00    +0.000 NA
ATOM     25  C   UNL     1      47.446   7.129  11.809  0.00  0.00    +0.000 A 
BRANCH  23  26
ATOM     26  O   UNL     1      44.706   5.223  10.474  0.00  0.00    +0.000 OA
BRANCH  26  27
ATOM     27  C   UNL     1      45.130   3.859  10.620  0.00  0.00    +0.000 C 
ATOM     28  C   UNL     1      43.984   2.911  10.277  0.00  0.00    +0.000 C 
ATOM     29  C   UNL     1      43.252   2.708  11.588  0.00  0.00    +0.000 C 
ATOM     30  N   UNL     1      44.263   2.786  12.642  0.00  0.00    +0.000 NA
ATOM     31  C   UNL     1      45.422   3.515  12.085  0.00  0.00    +0.000 C 
ATOM     32  H   UNL     1      44.561   1.849  12.909  0.00  0.00    +0.000 HD
ENDBRANCH  26  27
ENDBRANCH  23  26
ENDBRANCH  19  20
ENDBRANCH   3  19
TORSDOF 5
ENDMDL
MODEL 8
REMARK VINA RESULT:    -7.170      4.056      8.886
REMARK INTER + INTRA:          -9.391
REMARK INTER:                  -8.400
REMARK INTRA:                  -0.991
REMARK UNBOUND:                -0.125
REMARK  Name = 
REMARK  5 active torsions:
REMARK  status: ('A' for Active; 'I' for Inactive)
REMARK    1  A    between atoms: C_8  and  C_9
REMARK    2  A    between atoms: N_11  and  C_12
REMARK    3  A    between atoms: C_12  and  C_13
REMARK    4  A    between atoms: C_16  and  O_17
REMARK    5  A    between atoms: O_17  and  C_18
REMARK                            x       y       z     vdW  Elec       q    Type
REMARK                         _______ _______ _______ _____ _____    ______ ____
ROOT
ATOM      1  C   UNL     1      47.312   7.797  13.052  0.00  0.00    +0.000 C 
ATOM      2  O   UNL     1      47.936   8.554  12.305  0.00  0.00    +0.000 OA
ATOM      3  N   UNL     1      47.669   7.649  14.369  0.00  0.00    +0.000 N 
ATOM      4  H   UNL     1      47.184   6.976  14.959  0.00  0.00    +0.000 HD
ENDROOT
BRANCH   1  12
ATOM      5  N   UNL     1      42.852   3.685  11.453  0.00  0.00    +0.000 N 
ATOM      6  C   UNL     1      44.035   3.999  12.061  0.00  0.00    +0.000 A 
ATOM      7  N   UNL     1      44.674   3.024  12.660  0.00  0.00    +0.000 NA
ATOM      8  N   UNL     1      45.887   3.296  13.255  0.00  0.00    +0.000 N 
ATOM      9  C   UNL     1      46.557   4.505  13.253  0.00  0.00    +0.000 A 
ATOM     10  O   UNL     1      47.684   4.607  13.725  0.00  0.00    +0.000 OA
ATOM     11  C   UNL     1      45.832   5.618  12.660  0.00  0.00    +0.000 A 
ATOM     12  C   UNL     1      46.154   7.029  12.566  0.00  0.00    +0.000 A 
ATOM     13  C   UNL     1      45.126   7.694  11.902  0.00  0.00    +0.000 A 
ATOM     14  S   UNL     1      43.836   6.681  11.428  0.00  0.00    +0.000 S 
ATOM     15  C   UNL     1      44.609   5.329  12.087  0.00  0.00    +0.000 A 
ATOM     16  H   UNL     1      42.449   2.812  11.773  0.00  0.00    +0.000 HD
ATOM     17  H   UNL     1      42.191   4.441  11.323  0.00  0.00    +0.000 HD
ATOM     18  H   UNL     1      46.370   2.504  13.666  0.00  0.00    +0.000 HD
ENDBRANCH   1  12
BRANCH   3  19
ATOM     19  C   UNL     1      48.780   8.368  14.941  0.00  0.00    +0.000 C 
BRANCH  19  20
ATOM     20  C   UNL     1      49.762   7.463  15.634  0.00  0.00    +0.000 A 
ATOM     21  C   UNL     1      51.134   7.724  15.610  0.00  0.00    +0.000 A 
ATOM     22  C   UNL     1      52.023   6.837  16.220  0.00  0.00    +0.000 A 
ATOM     23  C   UNL     1      51.515   5.715  16.854  0.00  0.00    +0.000 A 
ATOM     24  N   UNL     1      50.193   5.443  16.923  0.00  0.00    +0.000 NA
ATOM     25  C   UNL     1      49.353   6.324  16.319  0.00  0.00    +0.000 A 
BRANCH  23  26
ATOM     26  O   UNL     1      52.438   4.848  17.426  0.00  0.00    +0.000 OA
BRANCH  26  27
ATOM     27  C   UNL     1      51.848   3.889  18.316  0.00  0.00    +0.000 C 
ATOM     28  C   UNL     1      52.238   4.199  19.759  0.00  0.00    +0.000 C 
ATOM     29  C   UNL     1      53.532   3.439  19.975  0.00  0.00    +0.000 C 
ATOM     30  N   UNL     1      53.445   2.233  19.152  0.00  0.00    +0.000 NA
ATOM     31  C   UNL     1      52.436   2.489  18.103  0.00  0.00    +0.000 C 
ATOM     32  H   UNL     1      53.137   1.445  19.720  0.00  0.00    +0.000 HD
ENDBRANCH  26  27
ENDBRANCH  23  26
ENDBRANCH  19  20
ENDBRANCH   3  19
TORSDOF 5
ENDMDL
MODEL 9
REMARK VINA RESULT:    -7.169      3.483      4.125
REMARK INTER + INTRA:          -9.390
REMARK INTER:                  -8.414
REMARK INTRA:                  -0.975
REMARK UNBOUND:                -0.125
REMARK  Name = 
REMARK  5 active torsions:
REMARK  status: ('A' for Active; 'I' for Inactive)
REMARK    1  A    between atoms: C_8  and  C_9
REMARK    2  A    between atoms: N_11  and  C_12
REMARK    3  A    between atoms: C_12  and  C_13
REMARK    4  A    between atoms: C_16  and  O_17
REMARK    5  A    between atoms: O_17  and  C_18
REMARK                            x       y       z     vdW  Elec       q    Type
REMARK                         _______ _______ _______ _____ _____    ______ ____
ROOT
ATOM      1  C   UNL     1      45.340   7.953  12.013  0.00  0.00    +0.000 C 
ATOM      2  O   UNL     1      44.503   8.255  11.159  0.00  0.00    +0.000 OA
ATOM      3  N   UNL     1      45.197   6.818  12.773  0.00  0.00    +0.000 N 
ATOM      4  H   UNL     1      45.862   6.612  13.516  0.00  0.00    +0.000 HD
ENDROOT
BRANCH   1  12
ATOM      5  N   UNL     1      50.931  10.584  13.096  0.00  0.00    +0.000 N 
ATOM      6  C   UNL     1      50.130   9.489  12.930  0.00  0.00    +0.000 A 
ATOM      7  N   UNL     1      50.702   8.313  13.019  0.00  0.00    +0.000 NA
ATOM      8  N   UNL     1      49.919   7.186  12.891  0.00  0.00    +0.000 N 
ATOM      9  C   UNL     1      48.548   7.146  12.723  0.00  0.00    +0.000 A 
ATOM     10  O   UNL     1      47.939   6.081  12.726  0.00  0.00    +0.000 OA
ATOM     11  C   UNL     1      47.904   8.438  12.545  0.00  0.00    +0.000 A 
ATOM     12  C   UNL     1      46.528   8.789  12.248  0.00  0.00    +0.000 A 
ATOM     13  C   UNL     1      46.411  10.174  12.172  0.00  0.00    +0.000 A 
ATOM     14  S   UNL     1      47.878  11.010  12.431  0.00  0.00    +0.000 S 
ATOM     15  C   UNL     1      48.708   9.555  12.657  0.00  0.00    +0.000 A 
ATOM     16  H   UNL     1      51.918  10.387  12.978  0.00  0.00    +0.000 HD
ATOM     17  H   UNL     1      50.613  11.450  12.678  0.00  0.00    +0.000 HD
ATOM     18  H   UNL     1      50.393   6.297  13.014  0.00  0.00    +0.000 HD
ENDBRANCH   1  12
BRANCH   3  19
ATOM     19  C   UNL     1      44.074   5.929  12.609  0.00  0.00    +0.000 C 
BRANCH  19  20
ATOM     20  C   UNL     1      44.311   4.885  11.553  0.00  0.00    +0.000 A 
ATOM     21  C   UNL     1      45.014   3.711  11.835  0.00  0.00    +0.000 A 
ATOM     22  C   UNL     1      45.261   2.785  10.820  0.00  0.00    +0.000 A 
ATOM     23  C   UNL     1      44.782   3.049   9.547  0.00  0.00    +0.000 A 
ATOM     24  N   UNL     1      44.074   4.158   9.241  0.00  0.00    +0.000 NA
ATOM     25  C   UNL     1      43.851   5.042  10.249  0.00  0.00    +0.000 A 
BRANCH  23  26
ATOM     26  O   UNL     1      45.072   2.111   8.563  0.00  0.00    +0.000 OA
BRANCH  26  27
ATOM     27  C   UNL     1      46.478   1.955   8.317  0.00  0.00    +0.000 C 
ATOM     28  C   UNL     1      46.972   3.049   7.375  0.00  0.00    +0.000 C 
ATOM     29  C   UNL     1      46.778   2.472   5.986  0.00  0.00    +0.000 C 
ATOM     30  N   UNL     1      46.978   1.028   6.108  0.00  0.00    +0.000 NA
ATOM     31  C   UNL     1      46.772   0.674   7.527  0.00  0.00    +0.000 C 
ATOM     32  H   UNL     1      47.931   0.786   5.842  0.00  0.00    +0.000 HD
ENDBRANCH  26  27
ENDBRANCH  23  26
ENDBRANCH  19  20
ENDBRANCH   3  19
TORSDOF 5
ENDMDL
