MODEL 1
REMARK VINA RESULT:    -7.231      0.000      0.000
REMARK INTER + INTRA:          -9.380
REMARK INTER:                  -9.133
REMARK INTRA:                  -0.247
REMARK UNBOUND:                -0.247
REMARK  Name = 
REMARK  5 active torsions:
REMARK  status: ('A' for Active; 'I' for Inactive)
REMARK    1  A    between atoms: N_1  and  C_2
REMARK    2  A    between atoms: C_2  and  C_3
REMARK    3  A    between atoms: C_6  and  C_7
REMARK    4  A    between atoms: C_7  and  O_8
REMARK    5  A    between atoms: O_8  and  C_9
REMARK                            x       y       z     vdW  Elec       q    Type
REMARK                         _______ _______ _______ _____ _____    ______ ____
ROOT
ATOM      1  C   UNL     1      46.286   4.468  13.812  0.00  0.00    +0.000 A 
ATOM      2  N   UNL     1      45.958   5.670  13.297  0.00  0.00    +0.000 NA
ATOM      3  C   UNL     1      45.209   5.660  12.178  0.00  0.00    +0.000 A 
ATOM      4  C   UNL     1      44.773   4.511  11.555  0.00  0.00    +0.000 A 
ATOM      5  C   UNL     1      45.173   3.336  12.156  0.00  0.00    +0.000 A 
ATOM      6  N   UNL     1      45.917   3.281  13.278  0.00  0.00    +0.000 NA
ENDROOT
BRANCH   1   7
ATOM      7  C   UNL     1      47.177   4.433  15.042  0.00  0.00    +0.000 C 
BRANCH   7   8
ATOM      8  N   UNL     1      47.763   3.112  15.323  0.00  0.00    +0.000 NA
ATOM      9  H   UNL     1      47.165   2.398  14.912  0.00  0.00    +0.000 HD
ATOM     10  H   UNL     1      47.726   2.974  16.333  0.00  0.00    +0.000 HD
ENDBRANCH   7   8
ENDBRANCH   1   7
BRANCH   4  11
ATOM     11  C   UNL     1      43.953   4.537  10.309  0.00  0.00    +0.000 C 
BRANCH  11  12
ATOM     12  O   UNL     1      43.900   3.218   9.761  0.00  0.00    +0.000 OA
BRANCH  12  13
ATOM     13  C   UNL     1      44.877   2.894   8.865  0.00  0.00    +0.000 A 
ATOM     14  C   UNL     1      45.532   1.666   8.769  0.00  0.00    +0.000 A 
ATOM     15  C   UNL     1      46.511   1.483   7.795  0.00  0.00    +0.000 A 
ATOM     16  C   UNL     1      46.801   2.539   6.950  0.00  0.00    +0.000 A 
ATOM     17 CL   UNL     1      47.992   2.383   5.725  0.00  0.00    +0.000 Cl
ATOM     18  N   UNL     1      46.199   3.742   7.007  0.00  0.00    +0.000 NA
ATOM     19  C   UNL     1      45.251   3.890   7.964  0.00  0.00    +0.000 A 
ENDBRANCH  12  13
ENDBRANCH  11  12
ENDBRANCH   4  11
TORSDOF 5
ENDMDL
MODEL 2
REMARK VINA RESULT:    -7.188      0.720      1.644
REMARK INTER + INTRA:          -9.325
REMARK INTER:                  -9.059
REMARK INTRA:                  -0.266
REMARK UNBOUND:                -0.247
REMARK  Name = 
REMARK  5 active torsions:
REMARK  status: ('A' for Active; 'I' for Inactive)
REMARK    1  A    between atoms: N_1  and  C_2
REMARK    2  A    between atoms: C_2  and  C_3
REMARK    3  A    between atoms: C_6  and  C_7
REMARK    4  A    between atoms: C_7  and  O_8
REMARK    5  A    between atoms: O_8  and  C_9
REMARK                            x       y       z     vdW  Elec       q    Type
REMARK                         _______ _______ _______ _____ _____    ______ ____
ROOT
ATOM      1  C   UNL     1      46.289   4.573  13.770  0.00  0.00    +0.000 A 
ATOM      2  N   UNL     1      45.954   3.366  13.273  0.00  0.00    +0.000 NA
ATOM      3  C   UNL     1      45.134   3.363  12.204  0.00  0.00    +0.000 A 
ATOM      4  C   UNL     1      44.640   4.506  11.612  0.00  0.00    +0.000 A 
ATOM      5  C   UNL     1      45.036   5.686  12.204  0.00  0.00    +0.000 A 
ATOM      6  N   UNL     1      45.857   5.754  13.271  0.00  0.00    +0.000 NA
ENDROOT
BRANCH   1   7
ATOM      7  C   UNL     1      47.167   4.620  15.010  0.00  0.00    +0.000 C 
BRANCH   7   8
ATOM      8  N   UNL     1      47.699   3.310  15.421  0.00  0.00    +0.000 NA
ATOM      9  H   UNL     1      47.116   2.582  15.014  0.00  0.00    +0.000 HD
ATOM     10  H   UNL     1      47.585   3.241  16.432  0.00  0.00    +0.000 HD
ENDBRANCH   7   8
ENDBRANCH   1   7
BRANCH   4  11
ATOM     11  C   UNL     1      43.725   4.466  10.434  0.00  0.00    +0.000 C 
BRANCH  11  12
ATOM     12  O   UNL     1      43.808   3.176   9.826  0.00  0.00    +0.000 OA
BRANCH  12  13
ATOM     13  C   UNL     1      44.795   3.003   8.900  0.00  0.00    +0.000 A 
ATOM     14  C   UNL     1      45.293   3.977   8.035  0.00  0.00    +0.000 A 
ATOM     15  C   UNL     1      46.311   3.649   7.142  0.00  0.00    +0.000 A 
ATOM     16  C   UNL     1      46.795   2.353   7.147  0.00  0.00    +0.000 A 
ATOM     17 CL   UNL     1      48.050   1.880   6.078  0.00  0.00    +0.000 Cl
ATOM     18  N   UNL     1      46.344   1.379   7.959  0.00  0.00    +0.000 NA
ATOM     19  C   UNL     1      45.354   1.728   8.816  0.00  0.00    +0.000 A 
ENDBRANCH  12  13
ENDBRANCH  11  12
ENDBRANCH   4  11
TORSDOF 5
ENDMDL
MODEL 3
REMARK VINA RESULT:    -7.053      2.703      6.188
REMARK INTER + INTRA:          -9.156
REMARK INTER:                  -8.851
REMARK INTRA:                  -0.304
REMARK UNBOUND:                -0.247
REMARK  Name = 
REMARK  5 active torsions:
REMARK  status: ('A' for Active; 'I' for Inactive)
REMARK    1  A    between atoms: N_1  and  C_2
REMARK    2  A    between atoms: C_2  and  C_3
REMARK    3  A    between atoms: C_6  and  C_7
REMARK    4  A    between atoms: C_7  and  O_8
REMARK    5  A    between atoms: O_8  and  C_9
REMARK                            x       y       z     vdW  Elec       q    Type
REMARK                         _______ _______ _______ _____ _____    ______ ____
ROOT
ATOM      1  C   UNL     1      46.588   2.820   6.954  0.00  0.00    +0.000 A 
ATOM      2  N   UNL     1      46.003   3.997   7.253  0.00  0.00    +0.000 NA
ATOM      3  C   UNL     1      45.209   4.013   8.341  0.00  0.00    +0.000 A 
ATOM      4  C   UNL     1      44.978   2.914   9.140  0.00  0.00    +0.000 A 
ATOM      5  C   UNL     1      45.616   1.759   8.741  0.00  0.00    +0.000 A 
ATOM      6  N   UNL     1      46.425   1.681   7.666  0.00  0.00    +0.000 NA
ENDROOT
BRANCH   1   7
ATOM      7  C   UNL     1      47.447   2.743   5.702  0.00  0.00    +0.000 C 
BRANCH   7   8
ATOM      8  N   UNL     1      48.494   1.710   5.753  0.00  0.00    +0.000 NA
ATOM      9  H   UNL     1      49.254   1.989   5.137  0.00  0.00    +0.000 HD
ATOM     10  H   UNL     1      48.098   0.858   5.356  0.00  0.00    +0.000 HD
ENDBRANCH   7   8
ENDBRANCH   1   7
BRANCH   4  11
ATOM     11  C   UNL     1      44.083   2.965  10.334  0.00  0.00    +0.000 C 
BRANCH  11  12
ATOM     12  O   UNL     1      43.981   4.319  10.779  0.00  0.00    +0.000 OA
BRANCH  12  13
ATOM     13  C   UNL     1      44.928   4.740  11.666  0.00  0.00    +0.000 A 
ATOM     14  C   UNL     1      45.746   5.862  11.530  0.00  0.00    +0.000 A 
ATOM     15  C   UNL     1      46.669   6.166  12.528  0.00  0.00    +0.000 A 
ATOM     16  C   UNL     1      46.743   5.332  13.629  0.00  0.00    +0.000 A 
ATOM     17 CL   UNL     1      47.853   5.649  14.897  0.00  0.00    +0.000 Cl
ATOM     18  N   UNL     1      45.979   4.238  13.803  0.00  0.00    +0.000 NA
ATOM     19  C   UNL     1      45.090   3.968  12.816  0.00  0.00    +0.000 A 
ENDBRANCH  12  13
ENDBRANCH  11  12
ENDBRANCH   4  11
TORSDOF 5
ENDMDL
MODEL 4
REMARK VINA RESULT:    -6.803      1.769      2.953
REMARK INTER + INTRA:          -8.840
REMARK INTER:                  -8.444
REMARK INTRA:                  -0.396
REMARK UNBOUND:                -0.247
REMARK  Name = 
REMARK  5 active torsions:
REMARK  status: ('A' for Active; 'I' for Inactive)
REMARK    1  A    between atoms: N_1  and  C_2
REMARK    2  A    between atoms: C_2  and  C_3
REMARK    3  A    between atoms: C_6  and  C_7
REMARK    4  A    between atoms: C_7  and  O_8
REMARK    5  A    between atoms: O_8  and  C_9
REMARK                            x       y       z     vdW  Elec       q    Type
REMARK                         _______ _______ _______ _____ _____    ______ ____
ROOT
ATOM      1  C   UNL     1      45.397   7.171  12.465  0.00  0.00    +0.000 A 
ATOM      2  N   UNL     1      46.039   6.085  12.942  0.00  0.00    +0.000 NA
ATOM      3  C   UNL     1      45.536   4.887  12.589  0.00  0.00    +0.000 A 
ATOM      4  C   UNL     1      44.429   4.725  11.784  0.00  0.00    +0.000 A 
ATOM      5  C   UNL     1      43.842   5.898  11.359  0.00  0.00    +0.000 A 
ATOM      6  N   UNL     1      44.301   7.125  11.674  0.00  0.00    +0.000 NA
ENDROOT
BRANCH   1   7
ATOM      7  C   UNL     1      45.898   8.542  12.886  0.00  0.00    +0.000 C 
BRANCH   7   8
ATOM      8  N   UNL     1      44.868   9.594  12.859  0.00  0.00    +0.000 NA
ATOM      9  H   UNL     1      45.197  10.384  13.409  0.00  0.00    +0.000 HD
ATOM     10  H   UNL     1      44.048   9.226  13.342  0.00  0.00    +0.000 HD
ENDBRANCH   7   8
ENDBRANCH   1   7
BRANCH   4  11
ATOM     11  C   UNL     1      43.892   3.381  11.421  0.00  0.00    +0.000 C 
BRANCH  11  12
ATOM     12  O   UNL     1      43.568   3.371  10.029  0.00  0.00    +0.000 OA
BRANCH  12  13
ATOM     13  C   UNL     1      44.598   3.123   9.168  0.00  0.00    +0.000 A 
ATOM     14  C   UNL     1      45.217   4.055   8.334  0.00  0.00    +0.000 A 
ATOM     15  C   UNL     1      46.264   3.650   7.508  0.00  0.00    +0.000 A 
ATOM     16  C   UNL     1      46.653   2.322   7.546  0.00  0.00    +0.000 A 
ATOM     17 CL   UNL     1      47.936   1.755   6.560  0.00  0.00    +0.000 Cl
ATOM     18  N   UNL     1      46.083   1.388   8.330  0.00  0.00    +0.000 NA
ATOM     19  C   UNL     1      45.069   1.812   9.122  0.00  0.00    +0.000 A 
ENDBRANCH  12  13
ENDBRANCH  11  12
ENDBRANCH   4  11
TORSDOF 5
ENDMDL
MODEL 5
REMARK VINA RESULT:    -6.655      1.405      1.951
REMARK INTER + INTRA:          -8.652
REMARK INTER:                  -8.269
REMARK INTRA:                  -0.383
REMARK UNBOUND:                -0.247
REMARK  Name = 
REMARK  5 active torsions:
REMARK  status: ('A' for Active; 'I' for Inactive)
REMARK    1  A    between atoms: N_1  and  C_2
REMARK    2  A    between atoms: C_2  and  C_3
REMARK    3  A    between atoms: C_6  and  C_7
REMARK    4  A    between atoms: C_7  and  O_8
REMARK    5  A    between atoms: O_8  and  C_9
REMARK                            x       y       z     vdW  Elec       q    Type
REMARK                         _______ _______ _______ _____ _____    ______ ____
ROOT
ATOM      1  C   UNL     1      47.149   4.737  14.915  0.00  0.00    +0.000 A 
ATOM      2  N   UNL     1      45.979   4.226  14.481  0.00  0.00    +0.000 NA
ATOM      3  C   UNL     1      45.536   4.669  13.289  0.00  0.00    +0.000 A 
ATOM      4  C   UNL     1      46.206   5.591  12.514  0.00  0.00    +0.000 A 
ATOM      5  C   UNL     1      47.385   6.057  13.054  0.00  0.00    +0.000 A 
ATOM      6  N   UNL     1      47.883   5.650  14.238  0.00  0.00    +0.000 NA
ENDROOT
BRANCH   1   7
ATOM      7  C   UNL     1      47.657   4.307  16.280  0.00  0.00    +0.000 C 
BRANCH   7   8
ATOM      8  N   UNL     1      46.767   3.371  16.987  0.00  0.00    +0.000 NA
ATOM      9  H   UNL     1      47.162   3.180  17.906  0.00  0.00    +0.000 HD
ATOM     10  H   UNL     1      46.789   2.489  16.475  0.00  0.00    +0.000 HD
ENDBRANCH   7   8
ENDBRANCH   1   7
BRANCH   4  11
ATOM     11  C   UNL     1      45.679   6.067  11.201  0.00  0.00    +0.000 C 
BRANCH  11  12
ATOM     12  O   UNL     1      44.759   5.100  10.692  0.00  0.00    +0.000 OA
BRANCH  12  13
ATOM     13  C   UNL     1      45.202   4.326   9.659  0.00  0.00    +0.000 A 
ATOM     14  C   UNL     1      45.013   2.951   9.519  0.00  0.00    +0.000 A 
ATOM     15  C   UNL     1      45.525   2.297   8.400  0.00  0.00    +0.000 A 
ATOM     16  C   UNL     1      46.211   3.044   7.460  0.00  0.00    +0.000 A 
ATOM     17 CL   UNL     1      46.864   2.305   6.057  0.00  0.00    +0.000 Cl
ATOM     18  N   UNL     1      46.422   4.370   7.553  0.00  0.00    +0.000 NA
ATOM     19  C   UNL     1      45.912   4.979   8.651  0.00  0.00    +0.000 A 
ENDBRANCH  12  13
ENDBRANCH  11  12
ENDBRANCH   4  11
TORSDOF 5
ENDMDL
MODEL 6
REMARK VINA RESULT:    -5.610      3.754      5.929
REMARK INTER + INTRA:          -7.333
REMARK INTER:                  -6.987
REMARK INTRA:                  -0.346
REMARK UNBOUND:                -0.247
REMARK  Name = 
REMARK  5 active torsions:
REMARK  status: ('A' for Active; 'I' for Inactive)
REMARK    1  A    between atoms: N_1  and  C_2
REMARK    2  A    between atoms: C_2  and  C_3
REMARK    3  A    between atoms: C_6  and  C_7
REMARK    4  A    between atoms: C_7  and  O_8
REMARK    5  A    between atoms: O_8  and  C_9
REMARK                            x       y       z     vdW  Elec       q    Type
REMARK                         _______ _______ _______ _____ _____    ______ ____
ROOT
ATOM      1  C   UNL     1      50.640   2.326  17.292  0.00  0.00    +0.000 A 
ATOM      2  N   UNL     1      50.452   3.579  17.754  0.00  0.00    +0.000 NA
ATOM      3  C   UNL     1      49.324   4.201  17.361  0.00  0.00    +0.000 A 
ATOM      4  C   UNL     1      48.380   3.630  16.534  0.00  0.00    +0.000 A 
ATOM      5  C   UNL     1      48.674   2.352  16.111  0.00  0.00    +0.000 A 
ATOM      6  N   UNL     1      49.782   1.676  16.473  0.00  0.00    +0.000 NA
ENDROOT
BRANCH   1   7
ATOM      7  C   UNL     1      51.926   1.609  17.666  0.00  0.00    +0.000 C 
BRANCH   7   8
ATOM      8  N   UNL     1      51.736   0.210  18.085  0.00  0.00    +0.000 NA
ATOM      9  H   UNL     1      50.765   0.085  18.363  0.00  0.00    +0.000 HD
ATOM     10  H   UNL     1      52.298   0.067  18.924  0.00  0.00    +0.000 HD
ENDBRANCH   7   8
ENDBRANCH   1   7
BRANCH   4  11
ATOM     11  C   UNL     1      47.146   4.354  16.110  0.00  0.00    +0.000 C 
BRANCH  11  12
ATOM     12  O   UNL     1      47.405   5.030  14.878  0.00  0.00    +0.000 OA
BRANCH  12  13
ATOM     13  C   UNL     1      46.558   4.753  13.844  0.00  0.00    +0.000 A 
ATOM     14  C   UNL     1      46.278   3.490  13.322  0.00  0.00    +0.000 A 
ATOM     15  C   UNL     1      45.384   3.366  12.262  0.00  0.00    +0.000 A 
ATOM     16  C   UNL     1      44.800   4.515  11.759  0.00  0.00    +0.000 A 
ATOM     17 CL   UNL     1      43.686   4.437  10.457  0.00  0.00    +0.000 Cl
ATOM     18  N   UNL     1      45.041   5.754  12.226  0.00  0.00    +0.000 NA
ATOM     19  C   UNL     1      45.915   5.843  13.258  0.00  0.00    +0.000 A 
ENDBRANCH  12  13
ENDBRANCH  11  12
ENDBRANCH   4  11
TORSDOF 5
ENDMDL
MODEL 7
REMARK VINA RESULT:    -5.000      4.845      7.938
REMARK INTER + INTRA:          -6.562
REMARK INTER:                  -6.236
REMARK INTRA:                  -0.326
REMARK UNBOUND:                -0.247
REMARK  Name = 
REMARK  5 active torsions:
REMARK  status: ('A' for Active; 'I' for Inactive)
REMARK    1  A    between atoms: N_1  and  C_2
REMARK    2  A    between atoms: C_2  and  C_3
REMARK    3  A    between atoms: C_6  and  C_7
REMARK    4  A    between atoms: C_7  and  O_8
REMARK    5  A    between atoms: O_8  and  C_9
REMARK                            x       y       z     vdW  Elec       q    Type
REMARK                         _______ _______ _______ _____ _____    ______ ____
ROOT
ATOM      1  C   UNL     1      44.855   4.069  11.759  0.00  0.00    +0.000 A 
ATOM      2  N   UNL     1      45.308   5.113  11.037  0.00  0.00    +0.000 NA
ATOM      3  C   UNL     1      46.173   5.941  11.654  0.00  0.00    +0.000 A 
ATOM      4  C   UNL     1      46.606   5.771  12.951  0.00  0.00    +0.000 A 
ATOM      5  C   UNL     1      46.076   4.679  13.604  0.00  0.00    +0.000 A 
ATOM      6  N   UNL     1      45.211   3.813  13.040  0.00  0.00    +0.000 NA
ENDROOT
BRANCH   1   7
ATOM      7  C   UNL     1      43.835   3.143  11.121  0.00  0.00    +0.000 C 
BRANCH   7   8
ATOM      8  N   UNL     1      43.338   2.085  12.016  0.00  0.00    +0.000 NA
ATOM      9  H   UNL     1      43.833   1.221  11.802  0.00  0.00    +0.000 HD
ATOM     10  H   UNL     1      42.359   1.922  11.778  0.00  0.00    +0.000 HD
ENDBRANCH   7   8
ENDBRANCH   1   7
BRANCH   4  11
ATOM     11  C   UNL     1      47.558   6.715  13.607  0.00  0.00    +0.000 C 
BRANCH  11  12
ATOM     12  O   UNL     1      48.475   5.966  14.408  0.00  0.00    +0.000 OA
BRANCH  12  13
ATOM     13  C   UNL     1      48.517   6.278  15.735  0.00  0.00    +0.000 A 
ATOM     14  C   UNL     1      48.839   7.521  16.281  0.00  0.00    +0.000 A 
ATOM     15  C   UNL     1      48.835   7.687  17.664  0.00  0.00    +0.000 A 
ATOM     16  C   UNL     1      48.509   6.599  18.455  0.00  0.00    +0.000 A 
ATOM     17 CL   UNL     1      48.480   6.733  20.164  0.00  0.00    +0.000 Cl
ATOM     18  N   UNL     1      48.196   5.381  17.975  0.00  0.00    +0.000 NA
ATOM     19  C   UNL     1      48.208   5.250  16.626  0.00  0.00    +0.000 A 
ENDBRANCH  12  13
ENDBRANCH  11  12
ENDBRANCH   4  11
TORSDOF 5
ENDMDL
MODEL 8
REMARK VINA RESULT:    -4.614      4.558      6.398
REMARK INTER + INTRA:          -6.075
REMARK INTER:                  -5.736
REMARK INTRA:                  -0.340
REMARK UNBOUND:                -0.247
REMARK  Name = 
REMARK  5 active torsions:
REMARK  status: ('A' for Active; 'I' for Inactive)
REMARK    1  A    between atoms: N_1  and  C_2
REMARK    2  A    between atoms: C_2  and  C_3
REMARK    3  A    between atoms: C_6  and  C_7
REMARK    4  A    between atoms: C_7  and  O_8
REMARK    5  A    between atoms: O_8  and  C_9
REMARK                            x       y       z     vdW  Elec       q    Type
REMARK                         _______ _______ _______ _____ _____    ______ ____
ROOT
ATOM      1  C   UNL     1      44.380   4.147  12.505  0.00  0.00    +0.000 A 
ATOM      2  N   UNL     1      44.012   5.229  11.789  0.00  0.00    +0.000 NA
ATOM      3  C   UNL     1      44.733   6.350  11.981  0.00  0.00    +0.000 A 
ATOM      4  C   UNL     1      45.802   6.437  12.847  0.00  0.00    +0.000 A 
ATOM      5  C   UNL     1      46.088   5.278  13.537  0.00  0.00    +0.000 A 
ATOM      6  N   UNL     1      45.407   4.126  13.385  0.00  0.00    +0.000 NA
ENDROOT
BRANCH   1   7
ATOM      7  C   UNL     1      43.558   2.878  12.361  0.00  0.00    +0.000 C 
BRANCH   7   8
ATOM      8  N   UNL     1      43.549   2.317  11.000  0.00  0.00    +0.000 NA
ATOM      9  H   UNL     1      43.488   3.084  10.334  0.00  0.00    +0.000 HD
ATOM     10  H   UNL     1      42.688   1.779  10.901  0.00  0.00    +0.000 HD
ENDBRANCH   7   8
ENDBRANCH   1   7
BRANCH   4  11
ATOM     11  C   UNL     1      46.573   7.700  13.043  0.00  0.00    +0.000 C 
BRANCH  11  12
ATOM     12  O   UNL     1      47.768   7.406  13.770  0.00  0.00    +0.000 OA
BRANCH  12  13
ATOM     13  C   UNL     1      48.945   7.704  13.148  0.00  0.00    +0.000 A 
ATOM     14  C   UNL     1      49.179   7.686  11.773  0.00  0.00    +0.000 A 
ATOM     15  C   UNL     1      50.441   8.020  11.285  0.00  0.00    +0.000 A 
ATOM     16  C   UNL     1      51.427   8.359  12.195  0.00  0.00    +0.000 A 
ATOM     17 CL   UNL     1      53.001   8.785  11.665  0.00  0.00    +0.000 Cl
ATOM     18  N   UNL     1      51.250   8.387  13.528  0.00  0.00    +0.000 NA
ATOM     19  C   UNL     1      50.013   8.058  13.973  0.00  0.00    +0.000 A 
ENDBRANCH  12  13
ENDBRANCH  11  12
ENDBRANCH   4  11
TORSDOF 5
ENDMDL
MODEL 9
REMARK VINA RESULT:    -4.485      4.683      6.462
REMARK INTER + INTRA:          -5.912
REMARK INTER:                  -5.594
REMARK INTRA:                  -0.317
REMARK UNBOUND:                -0.247
REMARK  Name = 
REMARK  5 active torsions:
REMARK  status: ('A' for Active; 'I' for Inactive)
REMARK    1  A    between atoms: N_1  and  C_2
REMARK    2  A    between atoms: C_2  and  C_3
REMARK    3  A    between atoms: C_6  and  C_7
REMARK    4  A    between atoms: C_7  and  O_8
REMARK    5  A    between atoms: O_8  and  C_9
REMARK                            x       y       z     vdW  Elec       q    Type
REMARK                         _______ _______ _______ _____ _____    ______ ____
ROOT
ATOM      1  C   UNL     1      50.892   4.020  17.941  0.00  0.00    +0.000 A 
ATOM      2  N   UNL     1      50.239   5.174  17.693  0.00  0.00    +0.000 NA
ATOM      3  C   UNL     1      49.028   5.066  17.113  0.00  0.00    +0.000 A 
ATOM      4  C   UNL     1      48.443   3.864  16.775  0.00  0.00    +0.000 A 
ATOM      5  C   UNL     1      49.198   2.748  17.062  0.00  0.00    +0.000 A 
ATOM      6  N   UNL     1      50.412   2.791  17.645  0.00  0.00    +0.000 NA
ENDROOT
BRANCH   1   7
ATOM      7  C   UNL     1      52.284   4.099  18.543  0.00  0.00    +0.000 C 
BRANCH   7   8
ATOM      8  N   UNL     1      52.308   4.060  20.014  0.00  0.00    +0.000 NA
ATOM      9  H   UNL     1      51.392   3.761  20.345  0.00  0.00    +0.000 HD
ATOM     10  H   UNL     1      52.434   5.018  20.341  0.00  0.00    +0.000 HD
ENDBRANCH   7   8
ENDBRANCH   1   7
BRANCH   4  11
ATOM     11  C   UNL     1      47.103   3.782  16.123  0.00  0.00    +0.000 C 
BRANCH  11  12
ATOM     12  O   UNL     1      47.280   3.698  14.707  0.00  0.00    +0.000 OA
BRANCH  12  13
ATOM     13  C   UNL     1      46.613   4.621  13.956  0.00  0.00    +0.000 A 
ATOM     14  C   UNL     1      45.249   4.614  13.660  0.00  0.00    +0.000 A 
ATOM     15  C   UNL     1      44.709   5.633  12.879  0.00  0.00    +0.000 A 
ATOM     16  C   UNL     1      45.556   6.625  12.418  0.00  0.00    +0.000 A 
ATOM     17 CL   UNL     1      44.959   7.912  11.455  0.00  0.00    +0.000 Cl
ATOM     18  N   UNL     1      46.877   6.673  12.674  0.00  0.00    +0.000 NA
ATOM     19  C   UNL     1      47.373   5.669  13.437  0.00  0.00    +0.000 A 
ENDBRANCH  12  13
ENDBRANCH  11  12
ENDBRANCH   4  11
TORSDOF 5
ENDMDL
