MODEL 1
REMARK VINA RESULT:    -8.095      0.000      0.000
REMARK INTER + INTRA:         -11.777
REMARK INTER:                 -11.408
REMARK INTRA:                  -0.369
REMARK UNBOUND:                -0.369
REMARK  Name = 
REMARK  9 active torsions:
REMARK  status: ('A' for Active; 'I' for Inactive)
REMARK    1  A    between atoms: C_1  and  C_2
REMARK    2  A    between atoms: C_2  and  C_3
REMARK    3  A    between atoms: C_2  and  C_4
REMARK    4  A    between atoms: C_4  and  N_5
REMARK    5  A    between atoms: C_6  and  C_8
REMARK    6  A    between atoms: C_11  and  O_12
REMARK    7  A    between atoms: O_12  and  C_13
REMARK    8  A    between atoms: C_13  and  C_14
REMARK    9  A    between atoms: C_14  and  C_17
REMARK                            x       y       z     vdW  Elec       q    Type
REMARK                         _______ _______ _______ _____ _____    ______ ____
ROOT
ATOM      1  C   UNL     1      46.700   5.448  13.220  0.00  0.00    +0.000 A 
ATOM      2  C   UNL     1      46.736   6.182  12.029  0.00  0.00    +0.000 A 
ATOM      3  C   UNL     1      45.836   5.891  10.995  0.00  0.00    +0.000 A 
ATOM      4  C   UNL     1      44.898   4.868  11.142  0.00  0.00    +0.000 A 
ATOM      5  C   UNL     1      44.870   4.131  12.328  0.00  0.00    +0.000 A 
ATOM      6  C   UNL     1      45.765   4.417  13.363  0.00  0.00    +0.000 A 
ENDROOT
BRANCH   1   8
ATOM      7  N   UNL     1      47.390   5.114  15.541  0.00  0.00    +0.000 N 
ATOM      8  C   UNL     1      47.671   5.691  14.321  0.00  0.00    +0.000 C 
ATOM      9  O   UNL     1      48.675   6.367  14.110  0.00  0.00    +0.000 OA
ATOM     10  H   UNL     1      46.612   4.478  15.633  0.00  0.00    +0.000 HD
BRANCH   7  11
ATOM     11  C   UNL     1      48.258   5.302  16.689  0.00  0.00    +0.000 C 
BRANCH  11  13
ATOM     12  C   UNL     1      49.209   4.222  18.775  0.00  0.00    +0.000 C 
ATOM     13  C   UNL     1      48.625   3.978  17.382  0.00  0.00    +0.000 C 
ATOM     14  C   UNL     1      47.397   3.071  17.495  0.00  0.00    +0.000 C 
ENDBRANCH  11  13
ENDBRANCH   7  11
ENDBRANCH   1   8
BRANCH   4  15
ATOM     15  O   UNL     1      43.971   4.497  10.208  0.00  0.00    +0.000 OA
BRANCH  15  16
ATOM     16  C   UNL     1      44.470   4.135   8.913  0.00  0.00    +0.000 C 
BRANCH  16  17
ATOM     17  C   UNL     1      44.992   2.689   8.897  0.00  0.00    +0.000 C 
ATOM     18  F   UNL     1      45.525   2.402  10.123  0.00  0.00    +0.000 F 
ATOM     19  F   UNL     1      43.901   1.868   8.791  0.00  0.00    +0.000 F 
BRANCH  17  20
ATOM     20  C   UNL     1      45.967   2.473   7.774  0.00  0.00    +0.000 A 
ATOM     21  C   UNL     1      46.138   3.403   6.742  0.00  0.00    +0.000 A 
ATOM     22  C   UNL     1      47.124   3.191   5.784  0.00  0.00    +0.000 A 
ATOM     23  C   UNL     1      47.906   2.053   5.889  0.00  0.00    +0.000 A 
ATOM     24  N   UNL     1      47.756   1.125   6.856  0.00  0.00    +0.000 NA
ATOM     25  C   UNL     1      46.788   1.352   7.773  0.00  0.00    +0.000 A 
ENDBRANCH  17  20
ENDBRANCH  16  17
ENDBRANCH  15  16
ENDBRANCH   4  15
TORSDOF 7
ENDMDL
MODEL 2
REMARK VINA RESULT:    -7.922      1.223      1.814
REMARK INTER + INTRA:         -11.533
REMARK INTER:                 -10.684
REMARK INTRA:                  -0.849
REMARK UNBOUND:                -0.369
REMARK  Name = 
REMARK  9 active torsions:
REMARK  status: ('A' for Active; 'I' for Inactive)
REMARK    1  A    between atoms: C_1  and  C_2
REMARK    2  A    between atoms: C_2  and  C_3
REMARK    3  A    between atoms: C_2  and  C_4
REMARK    4  A    between atoms: C_4  and  N_5
REMARK    5  A    between atoms: C_6  and  C_8
REMARK    6  A    between atoms: C_11  and  O_12
REMARK    7  A    between atoms: O_12  and  C_13
REMARK    8  A    between atoms: C_13  and  C_14
REMARK    9  A    between atoms: C_14  and  C_17
REMARK                            x       y       z     vdW  Elec       q    Type
REMARK                         _______ _______ _______ _____ _____    ______ ____
ROOT
ATOM      1  C   UNL     1      47.452   5.784  13.998  0.00  0.00    +0.000 A 
ATOM      2  C   UNL     1      46.410   4.857  13.893  0.00  0.00    +0.000 A 
ATOM      3  C   UNL     1      45.601   4.833  12.750  0.00  0.00    +0.000 A 
ATOM      4  C   UNL     1      45.825   5.732  11.707  0.00  0.00    +0.000 A 
ATOM      5  C   UNL     1      46.860   6.664  11.818  0.00  0.00    +0.000 A 
ATOM      6  C   UNL     1      47.671   6.692  12.956  0.00  0.00    +0.000 A 
ENDROOT
BRANCH   1   8
ATOM      7  N   UNL     1      47.809   5.297  16.367  0.00  0.00    +0.000 N 
ATOM      8  C   UNL     1      48.300   5.877  15.217  0.00  0.00    +0.000 C 
ATOM      9  O   UNL     1      49.391   6.440  15.159  0.00  0.00    +0.000 OA
ATOM     10  H   UNL     1      46.960   4.752  16.336  0.00  0.00    +0.000 HD
BRANCH   7  11
ATOM     11  C   UNL     1      48.544   5.345  17.618  0.00  0.00    +0.000 C 
BRANCH  11  13
ATOM     12  C   UNL     1      48.340   2.836  17.333  0.00  0.00    +0.000 C 
ATOM     13  C   UNL     1      49.080   3.969  18.048  0.00  0.00    +0.000 C 
ATOM     14  C   UNL     1      50.579   3.861  17.760  0.00  0.00    +0.000 C 
ENDBRANCH  11  13
ENDBRANCH   7  11
ENDBRANCH   1   8
BRANCH   4  15
ATOM     15  O   UNL     1      45.107   5.801  10.546  0.00  0.00    +0.000 OA
BRANCH  15  16
ATOM     16  C   UNL     1      45.690   5.185   9.389  0.00  0.00    +0.000 C 
BRANCH  16  17
ATOM     17  C   UNL     1      44.890   3.946   8.952  0.00  0.00    +0.000 C 
ATOM     18  F   UNL     1      44.315   3.383  10.057  0.00  0.00    +0.000 F 
ATOM     19  F   UNL     1      43.836   4.391   8.200  0.00  0.00    +0.000 F 
BRANCH  17  20
ATOM     20  C   UNL     1      45.754   2.980   8.190  0.00  0.00    +0.000 A 
ATOM     21  C   UNL     1      46.617   3.394   7.169  0.00  0.00    +0.000 A 
ATOM     22  C   UNL     1      47.460   2.466   6.566  0.00  0.00    +0.000 A 
ATOM     23  C   UNL     1      47.411   1.153   7.005  0.00  0.00    +0.000 A 
ATOM     24  N   UNL     1      46.577   0.714   7.969  0.00  0.00    +0.000 NA
ATOM     25  C   UNL     1      45.765   1.635   8.537  0.00  0.00    +0.000 A 
ENDBRANCH  17  20
ENDBRANCH  16  17
ENDBRANCH  15  16
ENDBRANCH   4  15
TORSDOF 7
ENDMDL
MODEL 3
REMARK VINA RESULT:    -7.835      1.343      1.845
REMARK INTER + INTRA:         -11.411
REMARK INTER:                 -10.691
REMARK INTRA:                  -0.721
REMARK UNBOUND:                -0.369
REMARK  Name = 
REMARK  9 active torsions:
REMARK  status: ('A' for Active; 'I' for Inactive)
REMARK    1  A    between atoms: C_1  and  C_2
REMARK    2  A    between atoms: C_2  and  C_3
REMARK    3  A    between atoms: C_2  and  C_4
REMARK    4  A    between atoms: C_4  and  N_5
REMARK    5  A    between atoms: C_6  and  C_8
REMARK    6  A    between atoms: C_11  and  O_12
REMARK    7  A    between atoms: O_12  and  C_13
REMARK    8  A    between atoms: C_13  and  C_14
REMARK    9  A    between atoms: C_14  and  C_17
REMARK                            x       y       z     vdW  Elec       q    Type
REMARK                         _______ _______ _______ _____ _____    ______ ____
ROOT
ATOM      1  C   UNL     1      47.254   5.571  13.884  0.00  0.00    +0.000 A 
ATOM      2  C   UNL     1      46.696   4.288  13.891  0.00  0.00    +0.000 A 
ATOM      3  C   UNL     1      45.732   3.934  12.939  0.00  0.00    +0.000 A 
ATOM      4  C   UNL     1      45.317   4.856  11.977  0.00  0.00    +0.000 A 
ATOM      5  C   UNL     1      45.868   6.139  11.978  0.00  0.00    +0.000 A 
ATOM      6  C   UNL     1      46.831   6.498  12.924  0.00  0.00    +0.000 A 
ENDROOT
BRANCH   1   8
ATOM      7  N   UNL     1      47.994   5.631  16.213  0.00  0.00    +0.000 N 
ATOM      8  C   UNL     1      48.243   6.002  14.909  0.00  0.00    +0.000 C 
ATOM      9  O   UNL     1      49.232   6.646  14.568  0.00  0.00    +0.000 OA
ATOM     10  H   UNL     1      47.227   5.010  16.425  0.00  0.00    +0.000 HD
BRANCH   7  11
ATOM     11  C   UNL     1      48.881   6.016  17.296  0.00  0.00    +0.000 C 
BRANCH  11  13
ATOM     12  C   UNL     1      47.241   5.942  19.226  0.00  0.00    +0.000 C 
ATOM     13  C   UNL     1      48.518   5.344  18.631  0.00  0.00    +0.000 C 
ATOM     14  C   UNL     1      48.334   3.836  18.442  0.00  0.00    +0.000 C 
ENDBRANCH  11  13
ENDBRANCH   7  11
ENDBRANCH   1   8
BRANCH   4  15
ATOM     15  O   UNL     1      44.389   4.625  10.999  0.00  0.00    +0.000 OA
BRANCH  15  16
ATOM     16  C   UNL     1      44.633   3.512  10.128  0.00  0.00    +0.000 C 
BRANCH  16  17
ATOM     17  C   UNL     1      45.043   3.980   8.722  0.00  0.00    +0.000 C 
ATOM     18  F   UNL     1      43.917   4.322   8.028  0.00  0.00    +0.000 F 
ATOM     19  F   UNL     1      45.729   5.156   8.874  0.00  0.00    +0.000 F 
BRANCH  17  20
ATOM     20  C   UNL     1      45.867   2.938   8.019  0.00  0.00    +0.000 A 
ATOM     21  C   UNL     1      46.733   3.255   6.966  0.00  0.00    +0.000 A 
ATOM     22  C   UNL     1      47.540   2.262   6.419  0.00  0.00    +0.000 A 
ATOM     23  C   UNL     1      47.452   0.984   6.943  0.00  0.00    +0.000 A 
ATOM     24  N   UNL     1      46.613   0.637   7.941  0.00  0.00    +0.000 NA
ATOM     25  C   UNL     1      45.838   1.619   8.453  0.00  0.00    +0.000 A 
ENDBRANCH  17  20
ENDBRANCH  16  17
ENDBRANCH  15  16
ENDBRANCH   4  15
TORSDOF 7
ENDMDL
MODEL 4
REMARK VINA RESULT:    -7.652      1.805      2.510
REMARK INTER + INTRA:         -11.153
REMARK INTER:                 -10.441
REMARK INTRA:                  -0.711
REMARK UNBOUND:                -0.369
REMARK  Name = 
REMARK  9 active torsions:
REMARK  status: ('A' for Active; 'I' for Inactive)
REMARK    1  A    between atoms: C_1  and  C_2
REMARK    2  A    between atoms: C_2  and  C_3
REMARK    3  A    between atoms: C_2  and  C_4
REMARK    4  A    between atoms: C_4  and  N_5
REMARK    5  A    between atoms: C_6  and  C_8
REMARK    6  A    between atoms: C_11  and  O_12
REMARK    7  A    between atoms: O_12  and  C_13
REMARK    8  A    between atoms: C_13  and  C_14
REMARK    9  A    between atoms: C_14  and  C_17
REMARK                            x       y       z     vdW  Elec       q    Type
REMARK                         _______ _______ _______ _____ _____    ______ ____
ROOT
ATOM      1  C   UNL     1      46.936   6.257  12.933  0.00  0.00    +0.000 A 
ATOM      2  C   UNL     1      46.207   5.171  13.427  0.00  0.00    +0.000 A 
ATOM      3  C   UNL     1      45.248   4.542  12.623  0.00  0.00    +0.000 A 
ATOM      4  C   UNL     1      45.010   4.993  11.324  0.00  0.00    +0.000 A 
ATOM      5  C   UNL     1      45.732   6.085  10.836  0.00  0.00    +0.000 A 
ATOM      6  C   UNL     1      46.691   6.716  11.634  0.00  0.00    +0.000 A 
ENDROOT
BRANCH   1   8
ATOM      7  N   UNL     1      47.540   8.210  14.275  0.00  0.00    +0.000 N 
ATOM      8  C   UNL     1      47.926   6.985  13.773  0.00  0.00    +0.000 C 
ATOM      9  O   UNL     1      49.022   6.478  14.001  0.00  0.00    +0.000 OA
ATOM     10  H   UNL     1      46.591   8.532  14.152  0.00  0.00    +0.000 HD
BRANCH   7  11
ATOM     11  C   UNL     1      48.433   9.014  15.089  0.00  0.00    +0.000 C 
BRANCH  11  13
ATOM     12  C   UNL     1      48.906   7.963  17.345  0.00  0.00    +0.000 C 
ATOM     13  C   UNL     1      48.064   8.988  16.582  0.00  0.00    +0.000 C 
ATOM     14  C   UNL     1      48.254  10.372  17.208  0.00  0.00    +0.000 C 
ENDBRANCH  11  13
ENDBRANCH   7  11
ENDBRANCH   1   8
BRANCH   4  15
ATOM     15  O   UNL     1      44.106   4.460  10.448  0.00  0.00    +0.000 OA
BRANCH  15  16
ATOM     16  C   UNL     1      44.588   4.148   9.133  0.00  0.00    +0.000 C 
BRANCH  16  17
ATOM     17  C   UNL     1      45.052   2.685   9.039  0.00  0.00    +0.000 C 
ATOM     18  F   UNL     1      45.612   2.325  10.232  0.00  0.00    +0.000 F 
ATOM     19  F   UNL     1      43.926   1.911   8.936  0.00  0.00    +0.000 F 
BRANCH  17  20
ATOM     20  C   UNL     1      45.981   2.481   7.875  0.00  0.00    +0.000 A 
ATOM     21  C   UNL     1      46.123   3.431   6.857  0.00  0.00    +0.000 A 
ATOM     22  C   UNL     1      47.069   3.227   5.857  0.00  0.00    +0.000 A 
ATOM     23  C   UNL     1      47.840   2.078   5.908  0.00  0.00    +0.000 A 
ATOM     24  N   UNL     1      47.714   1.131   6.860  0.00  0.00    +0.000 NA
ATOM     25  C   UNL     1      46.786   1.351   7.819  0.00  0.00    +0.000 A 
ENDBRANCH  17  20
ENDBRANCH  16  17
ENDBRANCH  15  16
ENDBRANCH   4  15
TORSDOF 7
ENDMDL
MODEL 5
REMARK VINA RESULT:    -7.096      2.568      3.597
REMARK INTER + INTRA:         -10.370
REMARK INTER:                  -9.706
REMARK INTRA:                  -0.664
REMARK UNBOUND:                -0.369
REMARK  Name = 
REMARK  9 active torsions:
REMARK  status: ('A' for Active; 'I' for Inactive)
REMARK    1  A    between atoms: C_1  and  C_2
REMARK    2  A    between atoms: C_2  and  C_3
REMARK    3  A    between atoms: C_2  and  C_4
REMARK    4  A    between atoms: C_4  and  N_5
REMARK    5  A    between atoms: C_6  and  C_8
REMARK    6  A    between atoms: C_11  and  O_12
REMARK    7  A    between atoms: O_12  and  C_13
REMARK    8  A    between atoms: C_13  and  C_14
REMARK    9  A    between atoms: C_14  and  C_17
REMARK                            x       y       z     vdW  Elec       q    Type
REMARK                         _______ _______ _______ _____ _____    ______ ____
ROOT
ATOM      1  C   UNL     1      47.565   6.536  13.425  0.00  0.00    +0.000 A 
ATOM      2  C   UNL     1      47.151   5.236  13.735  0.00  0.00    +0.000 A 
ATOM      3  C   UNL     1      46.115   4.635  13.010  0.00  0.00    +0.000 A 
ATOM      4  C   UNL     1      45.485   5.325  11.973  0.00  0.00    +0.000 A 
ATOM      5  C   UNL     1      45.893   6.626  11.671  0.00  0.00    +0.000 A 
ATOM      6  C   UNL     1      46.927   7.231  12.391  0.00  0.00    +0.000 A 
ENDROOT
BRANCH   1   8
ATOM      7  N   UNL     1      49.884   7.278  13.643  0.00  0.00    +0.000 N 
ATOM      8  C   UNL     1      48.625   7.229  14.204  0.00  0.00    +0.000 C 
ATOM      9  O   UNL     1      48.350   7.738  15.289  0.00  0.00    +0.000 OA
ATOM     10  H   UNL     1      50.032   6.943  12.703  0.00  0.00    +0.000 HD
BRANCH   7  11
ATOM     11  C   UNL     1      50.997   7.911  14.326  0.00  0.00    +0.000 C 
BRANCH  11  13
ATOM     12  C   UNL     1      51.578   9.053  12.140  0.00  0.00    +0.000 C 
ATOM     13  C   UNL     1      51.439   9.223  13.655  0.00  0.00    +0.000 C 
ATOM     14  C   UNL     1      50.439  10.343  13.953  0.00  0.00    +0.000 C 
ENDBRANCH  11  13
ENDBRANCH   7  11
ENDBRANCH   1   8
BRANCH   4  15
ATOM     15  O   UNL     1      44.469   4.842  11.195  0.00  0.00    +0.000 OA
BRANCH  15  16
ATOM     16  C   UNL     1      44.768   3.701  10.379  0.00  0.00    +0.000 C 
BRANCH  16  17
ATOM     17  C   UNL     1      45.035   4.109   8.921  0.00  0.00    +0.000 C 
ATOM     18  F   UNL     1      43.846   4.430   8.330  0.00  0.00    +0.000 F 
ATOM     19  F   UNL     1      45.735   5.287   8.955  0.00  0.00    +0.000 F 
BRANCH  17  20
ATOM     20  C   UNL     1      45.782   3.035   8.181  0.00  0.00    +0.000 A 
ATOM     21  C   UNL     1      46.623   3.319   7.100  0.00  0.00    +0.000 A 
ATOM     22  C   UNL     1      47.361   2.293   6.517  0.00  0.00    +0.000 A 
ATOM     23  C   UNL     1      47.232   1.016   7.037  0.00  0.00    +0.000 A 
ATOM     24  N   UNL     1      46.414   0.702   8.063  0.00  0.00    +0.000 NA
ATOM     25  C   UNL     1      45.705   1.716   8.609  0.00  0.00    +0.000 A 
ENDBRANCH  17  20
ENDBRANCH  16  17
ENDBRANCH  15  16
ENDBRANCH   4  15
TORSDOF 7
ENDMDL
MODEL 6
REMARK VINA RESULT:    -7.082      1.527      2.104
REMARK INTER + INTRA:         -10.350
REMARK INTER:                  -9.781
REMARK INTRA:                  -0.569
REMARK UNBOUND:                -0.369
REMARK  Name = 
REMARK  9 active torsions:
REMARK  status: ('A' for Active; 'I' for Inactive)
REMARK    1  A    between atoms: C_1  and  C_2
REMARK    2  A    between atoms: C_2  and  C_3
REMARK    3  A    between atoms: C_2  and  C_4
REMARK    4  A    between atoms: C_4  and  N_5
REMARK    5  A    between atoms: C_6  and  C_8
REMARK    6  A    between atoms: C_11  and  O_12
REMARK    7  A    between atoms: O_12  and  C_13
REMARK    8  A    between atoms: C_13  and  C_14
REMARK    9  A    between atoms: C_14  and  C_17
REMARK                            x       y       z     vdW  Elec       q    Type
REMARK                         _______ _______ _______ _____ _____    ______ ____
ROOT
ATOM      1  C   UNL     1      46.966   6.115  13.145  0.00  0.00    +0.000 A 
ATOM      2  C   UNL     1      46.140   5.123  13.684  0.00  0.00    +0.000 A 
ATOM      3  C   UNL     1      45.115   4.563  12.911  0.00  0.00    +0.000 A 
ATOM      4  C   UNL     1      44.906   4.990  11.600  0.00  0.00    +0.000 A 
ATOM      5  C   UNL     1      45.724   5.989  11.066  0.00  0.00    +0.000 A 
ATOM      6  C   UNL     1      46.749   6.550  11.832  0.00  0.00    +0.000 A 
ENDROOT
BRANCH   1   8
ATOM      7  N   UNL     1      48.150   6.384  15.267  0.00  0.00    +0.000 N 
ATOM      8  C   UNL     1      48.032   6.772  13.949  0.00  0.00    +0.000 C 
ATOM      9  O   UNL     1      48.765   7.606  13.424  0.00  0.00    +0.000 OA
ATOM     10  H   UNL     1      47.598   5.617  15.620  0.00  0.00    +0.000 HD
BRANCH   7  11
ATOM     11  C   UNL     1      49.142   6.973  16.148  0.00  0.00    +0.000 C 
BRANCH  11  13
ATOM     12  C   UNL     1      49.744   6.694  18.593  0.00  0.00    +0.000 C 
ATOM     13  C   UNL     1      48.651   7.098  17.600  0.00  0.00    +0.000 C 
ATOM     14  C   UNL     1      48.198   8.530  17.894  0.00  0.00    +0.000 C 
ENDBRANCH  11  13
ENDBRANCH   7  11
ENDBRANCH   1   8
BRANCH   4  15
ATOM     15  O   UNL     1      43.943   4.517  10.751  0.00  0.00    +0.000 OA
BRANCH  15  16
ATOM     16  C   UNL     1      44.364   4.176   9.423  0.00  0.00    +0.000 C 
BRANCH  16  17
ATOM     17  C   UNL     1      44.934   2.749   9.366  0.00  0.00    +0.000 C 
ATOM     18  F   UNL     1      45.511   2.458  10.569  0.00  0.00    +0.000 F 
ATOM     19  F   UNL     1      43.868   1.893   9.275  0.00  0.00    +0.000 F 
BRANCH  17  20
ATOM     20  C   UNL     1      45.882   2.586   8.211  0.00  0.00    +0.000 A 
ATOM     21  C   UNL     1      46.530   1.376   7.941  0.00  0.00    +0.000 A 
ATOM     22  C   UNL     1      47.322   1.261   6.802  0.00  0.00    +0.000 A 
ATOM     23  C   UNL     1      47.439   2.362   5.972  0.00  0.00    +0.000 A 
ATOM     24  N   UNL     1      46.847   3.551   6.212  0.00  0.00    +0.000 NA
ATOM     25  C   UNL     1      46.087   3.637   7.327  0.00  0.00    +0.000 A 
ENDBRANCH  17  20
ENDBRANCH  16  17
ENDBRANCH  15  16
ENDBRANCH   4  15
TORSDOF 7
ENDMDL
MODEL 7
REMARK VINA RESULT:    -6.981      3.250      4.710
REMARK INTER + INTRA:         -10.207
REMARK INTER:                  -9.185
REMARK INTRA:                  -1.022
REMARK UNBOUND:                -0.369
REMARK  Name = 
REMARK  9 active torsions:
REMARK  status: ('A' for Active; 'I' for Inactive)
REMARK    1  A    between atoms: C_1  and  C_2
REMARK    2  A    between atoms: C_2  and  C_3
REMARK    3  A    between atoms: C_2  and  C_4
REMARK    4  A    between atoms: C_4  and  N_5
REMARK    5  A    between atoms: C_6  and  C_8
REMARK    6  A    between atoms: C_11  and  O_12
REMARK    7  A    between atoms: O_12  and  C_13
REMARK    8  A    between atoms: C_13  and  C_14
REMARK    9  A    between atoms: C_14  and  C_17
REMARK                            x       y       z     vdW  Elec       q    Type
REMARK                         _______ _______ _______ _____ _____    ______ ____
ROOT
ATOM      1  C   UNL     1      48.051   7.432  12.643  0.00  0.00    +0.000 A 
ATOM      2  C   UNL     1      48.137   6.169  13.238  0.00  0.00    +0.000 A 
ATOM      3  C   UNL     1      47.005   5.348  13.313  0.00  0.00    +0.000 A 
ATOM      4  C   UNL     1      45.782   5.781  12.798  0.00  0.00    +0.000 A 
ATOM      5  C   UNL     1      45.696   7.047  12.214  0.00  0.00    +0.000 A 
ATOM      6  C   UNL     1      46.823   7.870  12.135  0.00  0.00    +0.000 A 
ENDROOT
BRANCH   1   8
ATOM      7  N   UNL     1      50.468   7.780  12.517  0.00  0.00    +0.000 N 
ATOM      8  C   UNL     1      49.217   8.355  12.590  0.00  0.00    +0.000 C 
ATOM      9  O   UNL     1      49.033   9.570  12.596  0.00  0.00    +0.000 OA
ATOM     10  H   UNL     1      50.560   6.781  12.404  0.00  0.00    +0.000 HD
BRANCH   7  11
ATOM     11  C   UNL     1      51.675   8.585  12.481  0.00  0.00    +0.000 C 
BRANCH  11  13
ATOM     12  C   UNL     1      51.963   7.375  10.274  0.00  0.00    +0.000 C 
ATOM     13  C   UNL     1      52.327   8.619  11.088  0.00  0.00    +0.000 C 
ATOM     14  C   UNL     1      51.898   9.873  10.323  0.00  0.00    +0.000 C 
ENDBRANCH  11  13
ENDBRANCH   7  11
ENDBRANCH   1   8
BRANCH   4  15
ATOM     15  O   UNL     1      44.615   5.069  12.811  0.00  0.00    +0.000 OA
BRANCH  15  16
ATOM     16  C   UNL     1      44.698   3.688  12.437  0.00  0.00    +0.000 C 
BRANCH  16  17
ATOM     17  C   UNL     1      43.850   3.394  11.188  0.00  0.00    +0.000 C 
ATOM     18  F   UNL     1      43.175   2.222  11.381  0.00  0.00    +0.000 F 
ATOM     19  F   UNL     1      42.873   4.353  11.129  0.00  0.00    +0.000 F 
BRANCH  17  20
ATOM     20  C   UNL     1      44.696   3.380   9.945  0.00  0.00    +0.000 A 
ATOM     21  C   UNL     1      45.111   2.190   9.337  0.00  0.00    +0.000 A 
ATOM     22  C   UNL     1      45.811   2.242   8.135  0.00  0.00    +0.000 A 
ATOM     23  C   UNL     1      46.074   3.484   7.583  0.00  0.00    +0.000 A 
ATOM     24  N   UNL     1      45.710   4.652   8.152  0.00  0.00    +0.000 NA
ATOM     25  C   UNL     1      45.034   4.574   9.321  0.00  0.00    +0.000 A 
ENDBRANCH  17  20
ENDBRANCH  16  17
ENDBRANCH  15  16
ENDBRANCH   4  15
TORSDOF 7
ENDMDL
MODEL 8
REMARK VINA RESULT:    -6.729      3.218      8.454
REMARK INTER + INTRA:          -9.852
REMARK INTER:                  -9.031
REMARK INTRA:                  -0.820
REMARK UNBOUND:                -0.369
REMARK  Name = 
REMARK  9 active torsions:
REMARK  status: ('A' for Active; 'I' for Inactive)
REMARK    1  A    between atoms: C_1  and  C_2
REMARK    2  A    between atoms: C_2  and  C_3
REMARK    3  A    between atoms: C_2  and  C_4
REMARK    4  A    between atoms: C_4  and  N_5
REMARK    5  A    between atoms: C_6  and  C_8
REMARK    6  A    between atoms: C_11  and  O_12
REMARK    7  A    between atoms: O_12  and  C_13
REMARK    8  A    between atoms: C_13  and  C_14
REMARK    9  A    between atoms: C_14  and  C_17
REMARK                            x       y       z     vdW  Elec       q    Type
REMARK                         _______ _______ _______ _____ _____    ______ ____
ROOT
ATOM      1  C   UNL     1      45.968   5.350  12.438  0.00  0.00    +0.000 A 
ATOM      2  C   UNL     1      46.711   6.525  12.597  0.00  0.00    +0.000 A 
ATOM      3  C   UNL     1      47.632   6.640  13.646  0.00  0.00    +0.000 A 
ATOM      4  C   UNL     1      47.818   5.586  14.542  0.00  0.00    +0.000 A 
ATOM      5  C   UNL     1      47.069   4.417  14.387  0.00  0.00    +0.000 A 
ATOM      6  C   UNL     1      46.148   4.297  13.342  0.00  0.00    +0.000 A 
ENDROOT
BRANCH   1   8
ATOM      7  N   UNL     1      45.288   4.454  10.267  0.00  0.00    +0.000 N 
ATOM      8  C   UNL     1      44.943   5.208  11.369  0.00  0.00    +0.000 C 
ATOM      9  O   UNL     1      43.843   5.739  11.506  0.00  0.00    +0.000 OA
ATOM     10  H   UNL     1      46.161   3.948  10.253  0.00  0.00    +0.000 HD
BRANCH   7  11
ATOM     11  C   UNL     1      44.372   4.267   9.157  0.00  0.00    +0.000 C 
BRANCH  11  13
ATOM     12  C   UNL     1      46.140   3.673   7.442  0.00  0.00    +0.000 C 
ATOM     13  C   UNL     1      44.864   3.212   8.151  0.00  0.00    +0.000 C 
ATOM     14  C   UNL     1      45.125   1.878   8.853  0.00  0.00    +0.000 C 
ENDBRANCH  11  13
ENDBRANCH   7  11
ENDBRANCH   1   8
BRANCH   4  15
ATOM     15  O   UNL     1      48.687   5.581  15.597  0.00  0.00    +0.000 OA
BRANCH  15  16
ATOM     16  C   UNL     1      48.180   6.051  16.853  0.00  0.00    +0.000 C 
BRANCH  16  17
ATOM     17  C   UNL     1      48.022   4.899  17.860  0.00  0.00    +0.000 C 
ATOM     18  F   UNL     1      47.899   5.427  19.114  0.00  0.00    +0.000 F 
ATOM     19  F   UNL     1      46.811   4.309  17.610  0.00  0.00    +0.000 F 
BRANCH  17  20
ATOM     20  C   UNL     1      49.156   3.919  17.750  0.00  0.00    +0.000 A 
ATOM     21  C   UNL     1      49.015   2.681  17.111  0.00  0.00    +0.000 A 
ATOM     22  C   UNL     1      50.127   1.859  16.957  0.00  0.00    +0.000 A 
ATOM     23  C   UNL     1      51.343   2.301  17.450  0.00  0.00    +0.000 A 
ATOM     24  N   UNL     1      51.511   3.476  18.091  0.00  0.00    +0.000 NA
ATOM     25  C   UNL     1      50.415   4.256  18.230  0.00  0.00    +0.000 A 
ENDBRANCH  17  20
ENDBRANCH  16  17
ENDBRANCH  15  16
ENDBRANCH   4  15
TORSDOF 7
ENDMDL
MODEL 9
REMARK VINA RESULT:    -6.419      3.803      7.804
REMARK INTER + INTRA:          -9.415
REMARK INTER:                  -8.552
REMARK INTRA:                  -0.863
REMARK UNBOUND:                -0.369
REMARK  Name = 
REMARK  9 active torsions:
REMARK  status: ('A' for Active; 'I' for Inactive)
REMARK    1  A    between atoms: C_1  and  C_2
REMARK    2  A    between atoms: C_2  and  C_3
REMARK    3  A    between atoms: C_2  and  C_4
REMARK    4  A    between atoms: C_4  and  N_5
REMARK    5  A    between atoms: C_6  and  C_8
REMARK    6  A    between atoms: C_11  and  O_12
REMARK    7  A    between atoms: O_12  and  C_13
REMARK    8  A    between atoms: C_13  and  C_14
REMARK    9  A    between atoms: C_14  and  C_17
REMARK                            x       y       z     vdW  Elec       q    Type
REMARK                         _______ _______ _______ _____ _____    ______ ____
ROOT
ATOM      1  C   UNL     1      45.046   4.757  10.467  0.00  0.00    +0.000 A 
ATOM      2  C   UNL     1      44.361   4.619  11.679  0.00  0.00    +0.000 A 
ATOM      3  C   UNL     1      44.456   5.615  12.659  0.00  0.00    +0.000 A 
ATOM      4  C   UNL     1      45.235   6.752  12.438  0.00  0.00    +0.000 A 
ATOM      5  C   UNL     1      45.926   6.883  11.231  0.00  0.00    +0.000 A 
ATOM      6  C   UNL     1      45.834   5.893  10.249  0.00  0.00    +0.000 A 
ENDROOT
BRANCH   1   8
ATOM      7  N   UNL     1      45.765   3.916   8.287  0.00  0.00    +0.000 N 
ATOM      8  C   UNL     1      45.013   3.698   9.422  0.00  0.00    +0.000 C 
ATOM      9  O   UNL     1      44.347   2.682   9.605  0.00  0.00    +0.000 OA
ATOM     10  H   UNL     1      46.381   4.714   8.233  0.00  0.00    +0.000 HD
BRANCH   7  11
ATOM     11  C   UNL     1      45.790   2.959   7.196  0.00  0.00    +0.000 C 
BRANCH  11  13
ATOM     12  C   UNL     1      46.936   0.716   7.473  0.00  0.00    +0.000 C 
ATOM     13  C   UNL     1      47.120   2.191   7.107  0.00  0.00    +0.000 C 
ATOM     14  C   UNL     1      47.710   2.298   5.699  0.00  0.00    +0.000 C 
ENDBRANCH  11  13
ENDBRANCH   7  11
ENDBRANCH   1   8
BRANCH   4  15
ATOM     15  O   UNL     1      45.400   7.788  13.315  0.00  0.00    +0.000 OA
BRANCH  15  16
ATOM     16  C   UNL     1      46.464   8.708  13.034  0.00  0.00    +0.000 C 
BRANCH  16  17
ATOM     17  C   UNL     1      47.740   8.341  13.809  0.00  0.00    +0.000 C 
ATOM     18  F   UNL     1      47.791   9.091  14.950  0.00  0.00    +0.000 F 
ATOM     19  F   UNL     1      47.590   7.052  14.246  0.00  0.00    +0.000 F 
BRANCH  17  20
ATOM     20  C   UNL     1      48.965   8.502  12.951  0.00  0.00    +0.000 A 
ATOM     21  C   UNL     1      49.415   7.491  12.094  0.00  0.00    +0.000 A 
ATOM     22  C   UNL     1      50.498   7.736  11.256  0.00  0.00    +0.000 A 
ATOM     23  C   UNL     1      51.096   8.985  11.304  0.00  0.00    +0.000 A 
ATOM     24  N   UNL     1      50.703   9.974  12.133  0.00  0.00    +0.000 NA
ATOM     25  C   UNL     1      49.651   9.710  12.940  0.00  0.00    +0.000 A 
ENDBRANCH  17  20
ENDBRANCH  16  17
ENDBRANCH  15  16
ENDBRANCH   4  15
TORSDOF 7
ENDMDL
