MODEL 1
REMARK VINA RESULT:    -8.136      0.000      0.000
REMARK INTER + INTRA:         -10.909
REMARK INTER:                 -10.276
REMARK INTRA:                  -0.633
REMARK UNBOUND:                -0.633
REMARK  Name = 
REMARK  6 active torsions:
REMARK  status: ('A' for Active; 'I' for Inactive)
REMARK    1  A    between atoms: C_1  and  S_2
REMARK    2  A    between atoms: S_2  and  C_5
REMARK    3  A    between atoms: N_11  and  C_12
REMARK    4  A    between atoms: C_12  and  C_13
REMARK    5  A    between atoms: C_16  and  C_17
REMARK    6  A    between atoms: C_17  and  N_18
REMARK                            x       y       z     vdW  Elec       q    Type
REMARK                         _______ _______ _______ _____ _____    ______ ____
ROOT
ATOM      1  C   UNL     1      46.866   6.012  12.790  0.00  0.00    +0.000 A 
ATOM      2  C   UNL     1      46.653   5.353  13.986  0.00  0.00    +0.000 A 
ATOM      3  N   UNL     1      45.694   4.429  14.191  0.00  0.00    +0.000 NA
ATOM      4  C   UNL     1      44.915   4.160  13.113  0.00  0.00    +0.000 A 
ATOM      5  C   UNL     1      43.846   3.241  13.009  0.00  0.00    +0.000 A 
ATOM      6  C   UNL     1      43.373   3.302  11.719  0.00  0.00    +0.000 A 
ATOM      7  N   UNL     1      44.134   4.217  11.024  0.00  0.00    +0.000 N 
ATOM      8  C   UNL     1      45.062   4.790  11.875  0.00  0.00    +0.000 A 
ATOM      9  C   UNL     1      46.036   5.777  11.692  0.00  0.00    +0.000 A 
ENDROOT
BRANCH   1  11
ATOM     10  C   UNL     1      47.594   8.603  13.415  0.00  0.00    +0.000 C 
ATOM     11  S   UNL     1      48.220   7.129  12.651  0.00  0.00    +0.000 S 
ATOM     12  O   UNL     1      48.430   7.403  11.242  0.00  0.00    +0.000 OA
ATOM     13  O   UNL     1      49.296   6.613  13.477  0.00  0.00    +0.000 OA
ENDBRANCH   1  11
BRANCH   7  14
ATOM     14  C   UNL     1      43.974   4.496   9.598  0.00  0.00    +0.000 C 
BRANCH  14  15
ATOM     15  C   UNL     1      44.945   3.686   8.771  0.00  0.00    +0.000 A 
ATOM     16  C   UNL     1      45.036   2.295   8.925  0.00  0.00    +0.000 A 
ATOM     17  C   UNL     1      46.006   1.560   8.232  0.00  0.00    +0.000 A 
ATOM     18  C   UNL     1      46.909   2.200   7.374  0.00  0.00    +0.000 A 
ATOM     19  C   UNL     1      46.787   3.584   7.187  0.00  0.00    +0.000 A 
ATOM     20  C   UNL     1      45.815   4.317   7.872  0.00  0.00    +0.000 A 
BRANCH  18  21
ATOM     21  C   UNL     1      48.041   1.442   6.728  0.00  0.00    +0.000 C 
BRANCH  21  22
ATOM     22  N   UNL     1      48.445   2.025   5.455  0.00  0.00    +0.000 NA
ATOM     23  H   UNL     1      47.639   2.039   4.833  0.00  0.00    +0.000 HD
ATOM     24  H   UNL     1      49.134   1.416   5.017  0.00  0.00    +0.000 HD
ENDBRANCH  21  22
ENDBRANCH  18  21
ENDBRANCH  14  15
ENDBRANCH   7  14
TORSDOF 5
ENDMDL
MODEL 2
REMARK VINA RESULT:    -7.967      2.633      3.098
REMARK INTER + INTRA:         -10.696
REMARK INTER:                 -10.084
REMARK INTRA:                  -0.612
REMARK UNBOUND:                -0.633
REMARK  Name = 
REMARK  6 active torsions:
REMARK  status: ('A' for Active; 'I' for Inactive)
REMARK    1  A    between atoms: C_1  and  S_2
REMARK    2  A    between atoms: S_2  and  C_5
REMARK    3  A    between atoms: N_11  and  C_12
REMARK    4  A    between atoms: C_12  and  C_13
REMARK    5  A    between atoms: C_16  and  C_17
REMARK    6  A    between atoms: C_17  and  N_18
REMARK                            x       y       z     vdW  Elec       q    Type
REMARK                         _______ _______ _______ _____ _____    ______ ____
ROOT
ATOM      1  C   UNL     1      44.890   8.804  11.796  0.00  0.00    +0.000 A 
ATOM      2  C   UNL     1      45.840   8.779  12.800  0.00  0.00    +0.000 A 
ATOM      3  N   UNL     1      46.365   7.655  13.328  0.00  0.00    +0.000 NA
ATOM      4  C   UNL     1      45.899   6.497  12.797  0.00  0.00    +0.000 A 
ATOM      5  C   UNL     1      46.261   5.171  13.126  0.00  0.00    +0.000 A 
ATOM      6  C   UNL     1      45.539   4.332  12.310  0.00  0.00    +0.000 A 
ATOM      7  N   UNL     1      44.761   5.105  11.477  0.00  0.00    +0.000 N 
ATOM      8  C   UNL     1      44.933   6.441  11.789  0.00  0.00    +0.000 A 
ATOM      9  C   UNL     1      44.368   7.616  11.282  0.00  0.00    +0.000 A 
ENDROOT
BRANCH   1  11
ATOM     10  C   UNL     1      45.871  11.292  11.101  0.00  0.00    +0.000 C 
ATOM     11  S   UNL     1      44.366  10.354  11.146  0.00  0.00    +0.000 S 
ATOM     12  O   UNL     1      43.478  10.967  12.115  0.00  0.00    +0.000 OA
ATOM     13  O   UNL     1      43.933  10.127   9.779  0.00  0.00    +0.000 OA
ENDBRANCH   1  11
BRANCH   7  14
ATOM     14  C   UNL     1      43.912   4.563  10.417  0.00  0.00    +0.000 C 
BRANCH  14  15
ATOM     15  C   UNL     1      44.729   3.799   9.401  0.00  0.00    +0.000 A 
ATOM     16  C   UNL     1      44.769   2.397   9.417  0.00  0.00    +0.000 A 
ATOM     17  C   UNL     1      45.605   1.695   8.540  0.00  0.00    +0.000 A 
ATOM     18  C   UNL     1      46.422   2.379   7.632  0.00  0.00    +0.000 A 
ATOM     19  C   UNL     1      46.347   3.777   7.587  0.00  0.00    +0.000 A 
ATOM     20  C   UNL     1      45.509   4.479   8.456  0.00  0.00    +0.000 A 
BRANCH  18  21
ATOM     21  C   UNL     1      47.424   1.642   6.778  0.00  0.00    +0.000 C 
BRANCH  21  22
ATOM     22  N   UNL     1      48.567   2.473   6.422  0.00  0.00    +0.000 NA
ATOM     23  H   UNL     1      49.398   1.885   6.382  0.00  0.00    +0.000 HD
ATOM     24  H   UNL     1      48.731   3.148   7.167  0.00  0.00    +0.000 HD
ENDBRANCH  21  22
ENDBRANCH  18  21
ENDBRANCH  14  15
ENDBRANCH   7  14
TORSDOF 5
ENDMDL
MODEL 3
REMARK VINA RESULT:    -7.524      2.398      3.169
REMARK INTER + INTRA:         -10.136
REMARK INTER:                  -9.941
REMARK INTRA:                  -0.195
REMARK UNBOUND:                -0.633
REMARK  Name = 
REMARK  6 active torsions:
REMARK  status: ('A' for Active; 'I' for Inactive)
REMARK    1  A    between atoms: C_1  and  S_2
REMARK    2  A    between atoms: S_2  and  C_5
REMARK    3  A    between atoms: N_11  and  C_12
REMARK    4  A    between atoms: C_12  and  C_13
REMARK    5  A    between atoms: C_16  and  C_17
REMARK    6  A    between atoms: C_17  and  N_18
REMARK                            x       y       z     vdW  Elec       q    Type
REMARK                         _______ _______ _______ _____ _____    ______ ____
ROOT
ATOM      1  C   UNL     1      47.288   4.824  14.735  0.00  0.00    +0.000 A 
ATOM      2  C   UNL     1      47.856   6.083  14.772  0.00  0.00    +0.000 A 
ATOM      3  N   UNL     1      47.622   7.055  13.867  0.00  0.00    +0.000 NA
ATOM      4  C   UNL     1      46.758   6.722  12.876  0.00  0.00    +0.000 A 
ATOM      5  C   UNL     1      46.306   7.519  11.800  0.00  0.00    +0.000 A 
ATOM      6  C   UNL     1      45.423   6.761  11.067  0.00  0.00    +0.000 A 
ATOM      7  N   UNL     1      45.305   5.530  11.674  0.00  0.00    +0.000 N 
ATOM      8  C   UNL     1      46.152   5.468  12.766  0.00  0.00    +0.000 A 
ATOM      9  C   UNL     1      46.438   4.458  13.690  0.00  0.00    +0.000 A 
ENDROOT
BRANCH   1  11
ATOM     10  C   UNL     1      48.820   4.558  17.020  0.00  0.00    +0.000 C 
ATOM     11  S   UNL     1      47.621   3.690  16.041  0.00  0.00    +0.000 S 
ATOM     12  O   UNL     1      48.263   2.524  15.466  0.00  0.00    +0.000 OA
ATOM     13  O   UNL     1      46.405   3.560  16.824  0.00  0.00    +0.000 OA
ENDBRANCH   1  11
BRANCH   7  14
ATOM     14  C   UNL     1      44.394   4.481  11.220  0.00  0.00    +0.000 C 
BRANCH  14  15
ATOM     15  C   UNL     1      44.910   3.812   9.968  0.00  0.00    +0.000 A 
ATOM     16  C   UNL     1      44.916   2.415   9.849  0.00  0.00    +0.000 A 
ATOM     17  C   UNL     1      45.488   1.794   8.731  0.00  0.00    +0.000 A 
ATOM     18  C   UNL     1      46.070   2.557   7.711  0.00  0.00    +0.000 A 
ATOM     19  C   UNL     1      46.024   3.954   7.811  0.00  0.00    +0.000 A 
ATOM     20  C   UNL     1      45.447   4.575   8.922  0.00  0.00    +0.000 A 
BRANCH  18  21
ATOM     21  C   UNL     1      46.808   1.900   6.572  0.00  0.00    +0.000 C 
BRANCH  21  22
ATOM     22  N   UNL     1      48.230   1.743   6.848  0.00  0.00    +0.000 NA
ATOM     23  H   UNL     1      48.685   2.648   6.739  0.00  0.00    +0.000 HD
ATOM     24  H   UNL     1      48.638   1.132   6.142  0.00  0.00    +0.000 HD
ENDBRANCH  21  22
ENDBRANCH  18  21
ENDBRANCH  14  15
ENDBRANCH   7  14
TORSDOF 5
ENDMDL
MODEL 4
REMARK VINA RESULT:    -7.460      1.509      1.798
REMARK INTER + INTRA:         -10.056
REMARK INTER:                  -9.628
REMARK INTRA:                  -0.427
REMARK UNBOUND:                -0.633
REMARK  Name = 
REMARK  6 active torsions:
REMARK  status: ('A' for Active; 'I' for Inactive)
REMARK    1  A    between atoms: C_1  and  S_2
REMARK    2  A    between atoms: S_2  and  C_5
REMARK    3  A    between atoms: N_11  and  C_12
REMARK    4  A    between atoms: C_12  and  C_13
REMARK    5  A    between atoms: C_16  and  C_17
REMARK    6  A    between atoms: C_17  and  N_18
REMARK                            x       y       z     vdW  Elec       q    Type
REMARK                         _______ _______ _______ _____ _____    ______ ____
ROOT
ATOM      1  C   UNL     1      46.843   6.702  12.820  0.00  0.00    +0.000 A 
ATOM      2  C   UNL     1      46.004   7.795  12.921  0.00  0.00    +0.000 A 
ATOM      3  N   UNL     1      44.742   7.838  12.447  0.00  0.00    +0.000 NA
ATOM      4  C   UNL     1      44.315   6.701  11.844  0.00  0.00    +0.000 A 
ATOM      5  C   UNL     1      43.053   6.434  11.267  0.00  0.00    +0.000 A 
ATOM      6  C   UNL     1      43.079   5.141  10.798  0.00  0.00    +0.000 A 
ATOM      7  N   UNL     1      44.312   4.602  11.090  0.00  0.00    +0.000 N 
ATOM      8  C   UNL     1      45.106   5.559  11.695  0.00  0.00    +0.000 A 
ATOM      9  C   UNL     1      46.427   5.546  12.155  0.00  0.00    +0.000 A 
ENDROOT
BRANCH   1  11
ATOM     10  C   UNL     1      48.522   8.432  14.169  0.00  0.00    +0.000 C 
ATOM     11  S   UNL     1      48.436   6.765  13.568  0.00  0.00    +0.000 S 
ATOM     12  O   UNL     1      49.427   6.608  12.522  0.00  0.00    +0.000 OA
ATOM     13  O   UNL     1      48.414   5.872  14.713  0.00  0.00    +0.000 OA
ENDBRANCH   1  11
BRANCH   7  14
ATOM     14  C   UNL     1      44.683   3.216  10.810  0.00  0.00    +0.000 C 
BRANCH  14  15
ATOM     15  C   UNL     1      45.291   3.080   9.434  0.00  0.00    +0.000 A 
ATOM     16  C   UNL     1      45.707   1.830   8.951  0.00  0.00    +0.000 A 
ATOM     17  C   UNL     1      46.362   1.721   7.718  0.00  0.00    +0.000 A 
ATOM     18  C   UNL     1      46.621   2.858   6.944  0.00  0.00    +0.000 A 
ATOM     19  C   UNL     1      46.165   4.100   7.407  0.00  0.00    +0.000 A 
ATOM     20  C   UNL     1      45.505   4.210   8.634  0.00  0.00    +0.000 A 
BRANCH  18  21
ATOM     21  C   UNL     1      47.443   2.771   5.683  0.00  0.00    +0.000 C 
BRANCH  21  22
ATOM     22  N   UNL     1      48.436   1.706   5.739  0.00  0.00    +0.000 NA
ATOM     23  H   UNL     1      48.767   1.519   4.794  0.00  0.00    +0.000 HD
ATOM     24  H   UNL     1      47.985   0.850   6.058  0.00  0.00    +0.000 HD
ENDBRANCH  21  22
ENDBRANCH  18  21
ENDBRANCH  14  15
ENDBRANCH   7  14
TORSDOF 5
ENDMDL
MODEL 5
REMARK VINA RESULT:    -7.213      1.581      1.965
REMARK INTER + INTRA:          -9.744
REMARK INTER:                  -9.363
REMARK INTRA:                  -0.381
REMARK UNBOUND:                -0.633
REMARK  Name = 
REMARK  6 active torsions:
REMARK  status: ('A' for Active; 'I' for Inactive)
REMARK    1  A    between atoms: C_1  and  S_2
REMARK    2  A    between atoms: S_2  and  C_5
REMARK    3  A    between atoms: N_11  and  C_12
REMARK    4  A    between atoms: C_12  and  C_13
REMARK    5  A    between atoms: C_16  and  C_17
REMARK    6  A    between atoms: C_17  and  N_18
REMARK                            x       y       z     vdW  Elec       q    Type
REMARK                         _______ _______ _______ _____ _____    ______ ____
ROOT
ATOM      1  C   UNL     1      48.208   7.318  12.718  0.00  0.00    +0.000 A 
ATOM      2  C   UNL     1      48.494   6.632  13.883  0.00  0.00    +0.000 A 
ATOM      3  N   UNL     1      47.835   5.535  14.307  0.00  0.00    +0.000 NA
ATOM      4  C   UNL     1      46.834   5.115  13.494  0.00  0.00    +0.000 A 
ATOM      5  C   UNL     1      45.979   4.001  13.656  0.00  0.00    +0.000 A 
ATOM      6  C   UNL     1      45.138   3.965  12.569  0.00  0.00    +0.000 A 
ATOM      7  N   UNL     1      45.465   5.012  11.736  0.00  0.00    +0.000 N 
ATOM      8  C   UNL     1      46.478   5.760  12.307  0.00  0.00    +0.000 A 
ATOM      9  C   UNL     1      47.146   6.922  11.903  0.00  0.00    +0.000 A 
ENDROOT
BRANCH   1  11
ATOM     10  C   UNL     1      50.488   7.918  11.278  0.00  0.00    +0.000 C 
ATOM     11  S   UNL     1      49.217   8.683  12.251  0.00  0.00    +0.000 S 
ATOM     12  O   UNL     1      49.827   9.219  13.453  0.00  0.00    +0.000 OA
ATOM     13  O   UNL     1      48.426   9.530  11.378  0.00  0.00    +0.000 OA
ENDBRANCH   1  11
BRANCH   7  14
ATOM     14  C   UNL     1      44.833   5.252  10.439  0.00  0.00    +0.000 C 
BRANCH  14  15
ATOM     15  C   UNL     1      45.324   4.268   9.403  0.00  0.00    +0.000 A 
ATOM     16  C   UNL     1      45.071   2.895   9.537  0.00  0.00    +0.000 A 
ATOM     17  C   UNL     1      45.613   1.975   8.630  0.00  0.00    +0.000 A 
ATOM     18  C   UNL     1      46.423   2.408   7.573  0.00  0.00    +0.000 A 
ATOM     19  C   UNL     1      46.637   3.784   7.414  0.00  0.00    +0.000 A 
ATOM     20  C   UNL     1      46.091   4.703   8.314  0.00  0.00    +0.000 A 
BRANCH  18  21
ATOM     21  C   UNL     1      47.121   1.420   6.672  0.00  0.00    +0.000 C 
BRANCH  21  22
ATOM     22  N   UNL     1      48.464   1.853   6.309  0.00  0.00    +0.000 NA
ATOM     23  H   UNL     1      49.082   1.701   7.105  0.00  0.00    +0.000 HD
ATOM     24  H   UNL     1      48.454   2.858   6.143  0.00  0.00    +0.000 HD
ENDBRANCH  21  22
ENDBRANCH  18  21
ENDBRANCH  14  15
ENDBRANCH   7  14
TORSDOF 5
ENDMDL
MODEL 6
REMARK VINA RESULT:    -6.227      3.130      6.362
REMARK INTER + INTRA:          -8.498
REMARK INTER:                  -7.939
REMARK INTRA:                  -0.558
REMARK UNBOUND:                -0.633
REMARK  Name = 
REMARK  6 active torsions:
REMARK  status: ('A' for Active; 'I' for Inactive)
REMARK    1  A    between atoms: C_1  and  S_2
REMARK    2  A    between atoms: S_2  and  C_5
REMARK    3  A    between atoms: N_11  and  C_12
REMARK    4  A    between atoms: C_12  and  C_13
REMARK    5  A    between atoms: C_16  and  C_17
REMARK    6  A    between atoms: C_17  and  N_18
REMARK                            x       y       z     vdW  Elec       q    Type
REMARK                         _______ _______ _______ _____ _____    ______ ____
ROOT
ATOM      1  C   UNL     1      45.187   3.517   9.054  0.00  0.00    +0.000 A 
ATOM      2  C   UNL     1      44.425   2.508   9.614  0.00  0.00    +0.000 A 
ATOM      3  N   UNL     1      43.736   2.620  10.767  0.00  0.00    +0.000 NA
ATOM      4  C   UNL     1      43.826   3.829  11.376  0.00  0.00    +0.000 A 
ATOM      5  C   UNL     1      43.215   4.256  12.577  0.00  0.00    +0.000 A 
ATOM      6  C   UNL     1      43.581   5.565  12.784  0.00  0.00    +0.000 A 
ATOM      7  N   UNL     1      44.382   5.959  11.735  0.00  0.00    +0.000 N 
ATOM      8  C   UNL     1      44.583   4.893  10.878  0.00  0.00    +0.000 A 
ATOM      9  C   UNL     1      45.326   4.746   9.702  0.00  0.00    +0.000 A 
ENDROOT
BRANCH   1  11
ATOM     10  C   UNL     1      46.802   1.707   7.730  0.00  0.00    +0.000 C 
ATOM     11  S   UNL     1      45.958   3.249   7.493  0.00  0.00    +0.000 S 
ATOM     12  O   UNL     1      46.953   4.286   7.304  0.00  0.00    +0.000 OA
ATOM     13  O   UNL     1      44.903   3.043   6.517  0.00  0.00    +0.000 OA
ENDBRANCH   1  11
BRANCH   7  14
ATOM     14  C   UNL     1      44.903   7.315  11.572  0.00  0.00    +0.000 C 
BRANCH  14  15
ATOM     15  C   UNL     1      46.199   7.498  12.327  0.00  0.00    +0.000 A 
ATOM     16  C   UNL     1      47.266   6.604  12.152  0.00  0.00    +0.000 A 
ATOM     17  C   UNL     1      48.427   6.716  12.927  0.00  0.00    +0.000 A 
ATOM     18  C   UNL     1      48.545   7.719  13.896  0.00  0.00    +0.000 A 
ATOM     19  C   UNL     1      47.496   8.638  14.038  0.00  0.00    +0.000 A 
ATOM     20  C   UNL     1      46.340   8.532  13.261  0.00  0.00    +0.000 A 
BRANCH  18  21
ATOM     21  C   UNL     1      49.730   7.766  14.828  0.00  0.00    +0.000 C 
BRANCH  21  22
ATOM     22  N   UNL     1      49.910   6.520  15.561  0.00  0.00    +0.000 NA
ATOM     23  H   UNL     1      50.297   6.735  16.479  0.00  0.00    +0.000 HD
ATOM     24  H   UNL     1      50.607   5.953  15.083  0.00  0.00    +0.000 HD
ENDBRANCH  21  22
ENDBRANCH  18  21
ENDBRANCH  14  15
ENDBRANCH   7  14
TORSDOF 5
ENDMDL
MODEL 7
REMARK VINA RESULT:    -6.213      4.453      7.695
REMARK INTER + INTRA:          -8.480
REMARK INTER:                  -8.321
REMARK INTRA:                  -0.160
REMARK UNBOUND:                -0.633
REMARK  Name = 
REMARK  6 active torsions:
REMARK  status: ('A' for Active; 'I' for Inactive)
REMARK    1  A    between atoms: C_1  and  S_2
REMARK    2  A    between atoms: S_2  and  C_5
REMARK    3  A    between atoms: N_11  and  C_12
REMARK    4  A    between atoms: C_12  and  C_13
REMARK    5  A    between atoms: C_16  and  C_17
REMARK    6  A    between atoms: C_17  and  N_18
REMARK                            x       y       z     vdW  Elec       q    Type
REMARK                         _______ _______ _______ _____ _____    ______ ____
ROOT
ATOM      1  C   UNL     1      45.338   4.937  12.328  0.00  0.00    +0.000 A 
ATOM      2  C   UNL     1      46.047   5.801  11.514  0.00  0.00    +0.000 A 
ATOM      3  N   UNL     1      47.144   6.485  11.896  0.00  0.00    +0.000 NA
ATOM      4  C   UNL     1      47.541   6.269  13.176  0.00  0.00    +0.000 A 
ATOM      5  C   UNL     1      48.649   6.822  13.857  0.00  0.00    +0.000 A 
ATOM      6  C   UNL     1      48.658   6.293  15.127  0.00  0.00    +0.000 A 
ATOM      7  N   UNL     1      47.600   5.417  15.236  0.00  0.00    +0.000 N 
ATOM      8  C   UNL     1      46.872   5.419  14.060  0.00  0.00    +0.000 A 
ATOM      9  C   UNL     1      45.711   4.749  13.661  0.00  0.00    +0.000 A 
ENDROOT
BRANCH   1  11
ATOM     10  C   UNL     1      42.632   5.189  11.832  0.00  0.00    +0.000 C 
ATOM     11  S   UNL     1      43.976   4.045  11.658  0.00  0.00    +0.000 S 
ATOM     12  O   UNL     1      43.719   2.908  12.520  0.00  0.00    +0.000 OA
ATOM     13  O   UNL     1      44.233   3.860  10.241  0.00  0.00    +0.000 OA
ENDBRANCH   1  11
BRANCH   7  14
ATOM     14  C   UNL     1      47.333   4.605  16.422  0.00  0.00    +0.000 C 
BRANCH  14  15
ATOM     15  C   UNL     1      48.571   3.858  16.863  0.00  0.00    +0.000 A 
ATOM     16  C   UNL     1      49.633   4.530  17.484  0.00  0.00    +0.000 A 
ATOM     17  C   UNL     1      50.820   3.856  17.799  0.00  0.00    +0.000 A 
ATOM     18  C   UNL     1      50.971   2.497  17.496  0.00  0.00    +0.000 A 
ATOM     19  C   UNL     1      49.891   1.817  16.917  0.00  0.00    +0.000 A 
ATOM     20  C   UNL     1      48.705   2.487  16.608  0.00  0.00    +0.000 A 
BRANCH  18  21
ATOM     21  C   UNL     1      52.289   1.794  17.706  0.00  0.00    +0.000 C 
BRANCH  21  22
ATOM     22  N   UNL     1      52.119   0.397  18.084  0.00  0.00    +0.000 NA
ATOM     23  H   UNL     1      51.734  -0.111  17.289  0.00  0.00    +0.000 HD
ATOM     24  H   UNL     1      51.423   0.338  18.825  0.00  0.00    +0.000 HD
ENDBRANCH  21  22
ENDBRANCH  18  21
ENDBRANCH  14  15
ENDBRANCH   7  14
TORSDOF 5
ENDMDL
MODEL 8
REMARK VINA RESULT:    -5.876      4.541      6.815
REMARK INTER + INTRA:          -8.055
REMARK INTER:                  -7.315
REMARK INTRA:                  -0.739
REMARK UNBOUND:                -0.633
REMARK  Name = 
REMARK  6 active torsions:
REMARK  status: ('A' for Active; 'I' for Inactive)
REMARK    1  A    between atoms: C_1  and  S_2
REMARK    2  A    between atoms: S_2  and  C_5
REMARK    3  A    between atoms: N_11  and  C_12
REMARK    4  A    between atoms: C_12  and  C_13
REMARK    5  A    between atoms: C_16  and  C_17
REMARK    6  A    between atoms: C_17  and  N_18
REMARK                            x       y       z     vdW  Elec       q    Type
REMARK                         _______ _______ _______ _____ _____    ______ ____
ROOT
ATOM      1  C   UNL     1      48.207   5.017  16.716  0.00  0.00    +0.000 A 
ATOM      2  C   UNL     1      48.170   5.586  17.975  0.00  0.00    +0.000 A 
ATOM      3  N   UNL     1      48.394   6.891  18.231  0.00  0.00    +0.000 NA
ATOM      4  C   UNL     1      48.663   7.653  17.142  0.00  0.00    +0.000 A 
ATOM      5  C   UNL     1      48.924   9.041  17.085  0.00  0.00    +0.000 A 
ATOM      6  C   UNL     1      49.119   9.370  15.764  0.00  0.00    +0.000 A 
ATOM      7  N   UNL     1      48.965   8.228  15.008  0.00  0.00    +0.000 N 
ATOM      8  C   UNL     1      48.727   7.150  15.841  0.00  0.00    +0.000 A 
ATOM      9  C   UNL     1      48.534   5.786  15.597  0.00  0.00    +0.000 A 
ENDROOT
BRANCH   1  11
ATOM     10  C   UNL     1      49.229   2.495  17.196  0.00  0.00    +0.000 C 
ATOM     11  S   UNL     1      47.803   3.313  16.529  0.00  0.00    +0.000 S 
ATOM     12  O   UNL     1      47.737   3.023  15.110  0.00  0.00    +0.000 OA
ATOM     13  O   UNL     1      46.674   3.036  17.399  0.00  0.00    +0.000 OA
ENDBRANCH   1  11
BRANCH   7  14
ATOM     14  C   UNL     1      49.025   8.202  13.548  0.00  0.00    +0.000 C 
BRANCH  14  15
ATOM     15  C   UNL     1      47.694   7.806  12.953  0.00  0.00    +0.000 A 
ATOM     16  C   UNL     1      46.544   8.573  13.190  0.00  0.00    +0.000 A 
ATOM     17  C   UNL     1      45.293   8.150  12.723  0.00  0.00    +0.000 A 
ATOM     18  C   UNL     1      45.164   6.949  12.014  0.00  0.00    +0.000 A 
ATOM     19  C   UNL     1      46.321   6.207  11.740  0.00  0.00    +0.000 A 
ATOM     20  C   UNL     1      47.571   6.631  12.199  0.00  0.00    +0.000 A 
BRANCH  18  21
ATOM     21  C   UNL     1      43.809   6.416  11.625  0.00  0.00    +0.000 C 
BRANCH  21  22
ATOM     22  N   UNL     1      43.106   5.810  12.749  0.00  0.00    +0.000 NA
ATOM     23  H   UNL     1      42.977   4.818  12.555  0.00  0.00    +0.000 HD
ATOM     24  H   UNL     1      42.173   6.213  12.812  0.00  0.00    +0.000 HD
ENDBRANCH  21  22
ENDBRANCH  18  21
ENDBRANCH  14  15
ENDBRANCH   7  14
TORSDOF 5
ENDMDL
MODEL 9
REMARK VINA RESULT:    -5.729      3.888      6.485
REMARK INTER + INTRA:          -7.869
REMARK INTER:                  -7.558
REMARK INTRA:                  -0.311
REMARK UNBOUND:                -0.633
REMARK  Name = 
REMARK  6 active torsions:
REMARK  status: ('A' for Active; 'I' for Inactive)
REMARK    1  A    between atoms: C_1  and  S_2
REMARK    2  A    between atoms: S_2  and  C_5
REMARK    3  A    between atoms: N_11  and  C_12
REMARK    4  A    between atoms: C_12  and  C_13
REMARK    5  A    between atoms: C_16  and  C_17
REMARK    6  A    between atoms: C_17  and  N_18
REMARK                            x       y       z     vdW  Elec       q    Type
REMARK                         _______ _______ _______ _____ _____    ______ ____
ROOT
ATOM      1  C   UNL     1      45.169   4.143  11.799  0.00  0.00    +0.000 A 
ATOM      2  C   UNL     1      45.540   3.298  12.828  0.00  0.00    +0.000 A 
ATOM      3  N   UNL     1      46.398   3.626  13.816  0.00  0.00    +0.000 NA
ATOM      4  C   UNL     1      46.897   4.886  13.750  0.00  0.00    +0.000 A 
ATOM      5  C   UNL     1      47.796   5.522  14.636  0.00  0.00    +0.000 A 
ATOM      6  C   UNL     1      47.996   6.801  14.173  0.00  0.00    +0.000 A 
ATOM      7  N   UNL     1      47.229   6.975  13.042  0.00  0.00    +0.000 N 
ATOM      8  C   UNL     1      46.577   5.793  12.737  0.00  0.00    +0.000 A 
ATOM      9  C   UNL     1      45.718   5.423  11.697  0.00  0.00    +0.000 A 
ENDROOT
BRANCH   1  11
ATOM     10  C   UNL     1      44.925   2.618   9.508  0.00  0.00    +0.000 C 
ATOM     11  S   UNL     1      43.967   3.602  10.631  0.00  0.00    +0.000 S 
ATOM     12  O   UNL     1      43.485   4.768   9.915  0.00  0.00    +0.000 OA
ATOM     13  O   UNL     1      43.046   2.725  11.330  0.00  0.00    +0.000 OA
ENDBRANCH   1  11
BRANCH   7  14
ATOM     14  C   UNL     1      47.124   8.238  12.314  0.00  0.00    +0.000 C 
BRANCH  14  15
ATOM     15  C   UNL     1      48.475   8.694  11.814  0.00  0.00    +0.000 A 
ATOM     16  C   UNL     1      49.475   7.765  11.492  0.00  0.00    +0.000 A 
ATOM     17  C   UNL     1      50.758   8.192  11.126  0.00  0.00    +0.000 A 
ATOM     18  C   UNL     1      51.070   9.556  11.081  0.00  0.00    +0.000 A 
ATOM     19  C   UNL     1      50.058  10.483  11.359  0.00  0.00    +0.000 A 
ATOM     20  C   UNL     1      48.775  10.059  11.717  0.00  0.00    +0.000 A 
BRANCH  18  21
ATOM     21  C   UNL     1      52.481  10.023  10.822  0.00  0.00    +0.000 C 
BRANCH  21  22
ATOM     22  N   UNL     1      53.308   8.986  10.218  0.00  0.00    +0.000 NA
ATOM     23  H   UNL     1      53.873   9.407   9.483  0.00  0.00    +0.000 HD
ATOM     24  H   UNL     1      52.703   8.306   9.760  0.00  0.00    +0.000 HD
ENDBRANCH  21  22
ENDBRANCH  18  21
ENDBRANCH  14  15
ENDBRANCH   7  14
TORSDOF 5
ENDMDL
