MODEL 1
REMARK VINA RESULT:    -8.355      0.000      0.000
REMARK INTER + INTRA:         -10.319
REMARK INTER:                  -9.821
REMARK INTRA:                  -0.498
REMARK UNBOUND:                -0.498
REMARK  Name = 
REMARK  3 active torsions:
REMARK  status: ('A' for Active; 'I' for Inactive)
REMARK    1  A    between atoms: C_2  and  C_4
REMARK    2  A    between atoms: N_8  and  C_9
REMARK    3  A    between atoms: C_9  and  C_10
REMARK                            x       y       z     vdW  Elec       q    Type
REMARK                         _______ _______ _______ _____ _____    ______ ____
ROOT
ATOM      1  C   UNL     1      46.415   2.281   7.684  0.00  0.00    +0.000 A 
ATOM      2  C   UNL     1      45.624   1.810   8.726  0.00  0.00    +0.000 A 
ATOM      3  C   UNL     1      44.788   2.700   9.398  0.00  0.00    +0.000 A 
ATOM      4  C   UNL     1      44.773   4.044   9.035  0.00  0.00    +0.000 A 
ATOM      5  N   UNL     1      43.914   4.964   9.581  0.00  0.00    +0.000 N 
ATOM      6  N   UNL     1      45.554   4.514   8.043  0.00  0.00    +0.000 NA
ATOM      7  C   UNL     1      46.362   3.635   7.395  0.00  0.00    +0.000 A 
ATOM      8  H   UNL     1      44.109   5.888   9.209  0.00  0.00    +0.000 HD
ENDROOT
BRANCH   1  10
ATOM      9  N   UNL     1      48.391   1.987   6.310  0.00  0.00    +0.000 N 
ATOM     10  C   UNL     1      47.291   1.407   6.883  0.00  0.00    +0.000 C 
ATOM     11  O   UNL     1      47.071   0.209   6.767  0.00  0.00    +0.000 OA
ATOM     12  H   UNL     1      49.046   1.358   5.860  0.00  0.00    +0.000 HD
ATOM     13  H   UNL     1      48.739   2.890   6.597  0.00  0.00    +0.000 HD
ENDBRANCH   1  10
BRANCH   5  14
ATOM     14  C   UNL     1      43.472   4.913  10.958  0.00  0.00    +0.000 C 
BRANCH  14  15
ATOM     15  C   UNL     1      44.629   5.179  11.901  0.00  0.00    +0.000 A 
ATOM     16  C   UNL     1      45.107   4.193  12.783  0.00  0.00    +0.000 A 
ATOM     17  C   UNL     1      46.177   4.456  13.639  0.00  0.00    +0.000 A 
ATOM     18  C   UNL     1      46.786   5.702  13.604  0.00  0.00    +0.000 A 
ATOM     19  F   UNL     1      47.807   5.959  14.432  0.00  0.00    +0.000 F 
ATOM     20  C   UNL     1      46.355   6.684  12.722  0.00  0.00    +0.000 A 
ATOM     21  C   UNL     1      45.282   6.423  11.866  0.00  0.00    +0.000 A 
ENDBRANCH  14  15
ENDBRANCH   5  14
TORSDOF 3
ENDMDL
MODEL 2
REMARK VINA RESULT:    -7.795      3.891      6.394
REMARK INTER + INTRA:          -9.659
REMARK INTER:                  -9.158
REMARK INTRA:                  -0.502
REMARK UNBOUND:                -0.498
REMARK  Name = 
REMARK  3 active torsions:
REMARK  status: ('A' for Active; 'I' for Inactive)
REMARK    1  A    between atoms: C_2  and  C_4
REMARK    2  A    between atoms: N_8  and  C_9
REMARK    3  A    between atoms: C_9  and  C_10
REMARK                            x       y       z     vdW  Elec       q    Type
REMARK                         _______ _______ _______ _____ _____    ______ ____
ROOT
ATOM      1  C   UNL     1      47.062   5.262  13.642  0.00  0.00    +0.000 A 
ATOM      2  C   UNL     1      46.441   6.003  12.642  0.00  0.00    +0.000 A 
ATOM      3  C   UNL     1      45.541   5.367  11.789  0.00  0.00    +0.000 A 
ATOM      4  C   UNL     1      45.294   4.005  11.933  0.00  0.00    +0.000 A 
ATOM      5  N   UNL     1      44.355   3.326  11.198  0.00  0.00    +0.000 N 
ATOM      6  N   UNL     1      45.909   3.275  12.884  0.00  0.00    +0.000 NA
ATOM      7  C   UNL     1      46.782   3.907  13.709  0.00  0.00    +0.000 A 
ATOM      8  H   UNL     1      44.378   2.338  11.429  0.00  0.00    +0.000 HD
ENDROOT
BRANCH   1  10
ATOM      9  N   UNL     1      47.774   5.558  15.941  0.00  0.00    +0.000 N 
ATOM     10  C   UNL     1      47.989   5.856  14.623  0.00  0.00    +0.000 C 
ATOM     11  O   UNL     1      48.934   6.551  14.275  0.00  0.00    +0.000 OA
ATOM     12  H   UNL     1      48.481   5.875  16.594  0.00  0.00    +0.000 HD
ATOM     13  H   UNL     1      47.181   4.794  16.234  0.00  0.00    +0.000 HD
ENDBRANCH   1  10
BRANCH   5  14
ATOM     14  C   UNL     1      44.044   3.649   9.822  0.00  0.00    +0.000 C 
BRANCH  14  15
ATOM     15  C   UNL     1      45.128   3.137   8.894  0.00  0.00    +0.000 A 
ATOM     16  C   UNL     1      45.459   1.772   8.823  0.00  0.00    +0.000 A 
ATOM     17  C   UNL     1      46.457   1.321   7.959  0.00  0.00    +0.000 A 
ATOM     18  C   UNL     1      47.117   2.231   7.147  0.00  0.00    +0.000 A 
ATOM     19  F   UNL     1      48.081   1.801   6.323  0.00  0.00    +0.000 F 
ATOM     20  C   UNL     1      46.789   3.581   7.173  0.00  0.00    +0.000 A 
ATOM     21  C   UNL     1      45.792   4.034   8.040  0.00  0.00    +0.000 A 
ENDBRANCH  14  15
ENDBRANCH   5  14
TORSDOF 3
ENDMDL
MODEL 3
REMARK VINA RESULT:    -7.485      3.853      6.589
REMARK INTER + INTRA:          -9.296
REMARK INTER:                  -8.872
REMARK INTRA:                  -0.424
REMARK UNBOUND:                -0.498
REMARK  Name = 
REMARK  3 active torsions:
REMARK  status: ('A' for Active; 'I' for Inactive)
REMARK    1  A    between atoms: C_2  and  C_4
REMARK    2  A    between atoms: N_8  and  C_9
REMARK    3  A    between atoms: C_9  and  C_10
REMARK                            x       y       z     vdW  Elec       q    Type
REMARK                         _______ _______ _______ _____ _____    ______ ____
ROOT
ATOM      1  C   UNL     1      45.682   6.806  12.429  0.00  0.00    +0.000 A 
ATOM      2  C   UNL     1      44.635   6.667  11.525  0.00  0.00    +0.000 A 
ATOM      3  C   UNL     1      44.326   5.399  11.036  0.00  0.00    +0.000 A 
ATOM      4  C   UNL     1      45.078   4.300  11.439  0.00  0.00    +0.000 A 
ATOM      5  N   UNL     1      44.781   3.009  11.079  0.00  0.00    +0.000 N 
ATOM      6  N   UNL     1      46.109   4.428  12.296  0.00  0.00    +0.000 NA
ATOM      7  C   UNL     1      46.399   5.669  12.766  0.00  0.00    +0.000 A 
ATOM      8  H   UNL     1      45.487   2.375  11.441  0.00  0.00    +0.000 HD
ENDROOT
BRANCH   1  10
ATOM      9  N   UNL     1      45.140   9.113  12.940  0.00  0.00    +0.000 N 
ATOM     10  C   UNL     1      46.051   8.096  13.039  0.00  0.00    +0.000 C 
ATOM     11  O   UNL     1      47.104   8.244  13.645  0.00  0.00    +0.000 OA
ATOM     12  H   UNL     1      45.351   9.957  13.460  0.00  0.00    +0.000 HD
ATOM     13  H   UNL     1      44.175   8.953  12.688  0.00  0.00    +0.000 HD
ENDBRANCH   1  10
BRANCH   5  14
ATOM     14  C   UNL     1      44.208   2.657   9.798  0.00  0.00    +0.000 C 
BRANCH  14  15
ATOM     15  C   UNL     1      45.282   2.597   8.730  0.00  0.00    +0.000 A 
ATOM     16  C   UNL     1      45.671   3.739   8.006  0.00  0.00    +0.000 A 
ATOM     17  C   UNL     1      46.666   3.664   7.030  0.00  0.00    +0.000 A 
ATOM     18  C   UNL     1      47.289   2.449   6.786  0.00  0.00    +0.000 A 
ATOM     19  F   UNL     1      48.237   2.373   5.843  0.00  0.00    +0.000 F 
ATOM     20  C   UNL     1      46.947   1.311   7.507  0.00  0.00    +0.000 A 
ATOM     21  C   UNL     1      45.948   1.385   8.482  0.00  0.00    +0.000 A 
ENDBRANCH  14  15
ENDBRANCH   5  14
TORSDOF 3
ENDMDL
MODEL 4
REMARK VINA RESULT:    -6.571      1.632      2.075
REMARK INTER + INTRA:          -8.221
REMARK INTER:                  -7.870
REMARK INTRA:                  -0.351
REMARK UNBOUND:                -0.498
REMARK  Name = 
REMARK  3 active torsions:
REMARK  status: ('A' for Active; 'I' for Inactive)
REMARK    1  A    between atoms: C_2  and  C_4
REMARK    2  A    between atoms: N_8  and  C_9
REMARK    3  A    between atoms: C_9  and  C_10
REMARK                            x       y       z     vdW  Elec       q    Type
REMARK                         _______ _______ _______ _____ _____    ______ ____
ROOT
ATOM      1  C   UNL     1      46.345   2.990   7.532  0.00  0.00    +0.000 A 
ATOM      2  C   UNL     1      46.235   4.336   7.864  0.00  0.00    +0.000 A 
ATOM      3  C   UNL     1      45.501   4.697   8.993  0.00  0.00    +0.000 A 
ATOM      4  C   UNL     1      44.873   3.716   9.754  0.00  0.00    +0.000 A 
ATOM      5  N   UNL     1      44.213   3.977  10.928  0.00  0.00    +0.000 N 
ATOM      6  N   UNL     1      44.955   2.411   9.426  0.00  0.00    +0.000 NA
ATOM      7  C   UNL     1      45.674   2.073   8.325  0.00  0.00    +0.000 A 
ATOM      8  H   UNL     1      43.790   3.128  11.287  0.00  0.00    +0.000 HD
ENDROOT
BRANCH   1  10
ATOM      9  N   UNL     1      48.274   1.796   6.675  0.00  0.00    +0.000 N 
ATOM     10  C   UNL     1      47.140   2.508   6.388  0.00  0.00    +0.000 C 
ATOM     11  O   UNL     1      46.785   2.698   5.233  0.00  0.00    +0.000 OA
ATOM     12  H   UNL     1      48.748   1.372   5.887  0.00  0.00    +0.000 HD
ATOM     13  H   UNL     1      48.449   1.403   7.589  0.00  0.00    +0.000 HD
ENDBRANCH   1  10
BRANCH   5  14
ATOM     14  C   UNL     1      43.480   5.202  11.166  0.00  0.00    +0.000 C 
BRANCH  14  15
ATOM     15  C   UNL     1      44.391   6.267  11.743  0.00  0.00    +0.000 A 
ATOM     16  C   UNL     1      45.427   5.949  12.640  0.00  0.00    +0.000 A 
ATOM     17  C   UNL     1      46.258   6.945  13.156  0.00  0.00    +0.000 A 
ATOM     18  C   UNL     1      46.069   8.261  12.763  0.00  0.00    +0.000 A 
ATOM     19  F   UNL     1      46.859   9.219  13.264  0.00  0.00    +0.000 F 
ATOM     20  C   UNL     1      45.073   8.600  11.855  0.00  0.00    +0.000 A 
ATOM     21  C   UNL     1      44.238   7.605  11.340  0.00  0.00    +0.000 A 
ENDBRANCH  14  15
ENDBRANCH   5  14
TORSDOF 3
ENDMDL
MODEL 5
REMARK VINA RESULT:    -6.128      4.318      6.822
REMARK INTER + INTRA:          -7.701
REMARK INTER:                  -7.313
REMARK INTRA:                  -0.388
REMARK UNBOUND:                -0.498
REMARK  Name = 
REMARK  3 active torsions:
REMARK  status: ('A' for Active; 'I' for Inactive)
REMARK    1  A    between atoms: C_2  and  C_4
REMARK    2  A    between atoms: N_8  and  C_9
REMARK    3  A    between atoms: C_9  and  C_10
REMARK                            x       y       z     vdW  Elec       q    Type
REMARK                         _______ _______ _______ _____ _____    ______ ____
ROOT
ATOM      1  C   UNL     1      47.975   6.398  14.518  0.00  0.00    +0.000 A 
ATOM      2  C   UNL     1      47.449   5.170  14.133  0.00  0.00    +0.000 A 
ATOM      3  C   UNL     1      46.710   5.091  12.952  0.00  0.00    +0.000 A 
ATOM      4  C   UNL     1      46.493   6.237  12.194  0.00  0.00    +0.000 A 
ATOM      5  N   UNL     1      45.860   6.227  10.976  0.00  0.00    +0.000 N 
ATOM      6  N   UNL     1      46.979   7.435  12.572  0.00  0.00    +0.000 NA
ATOM      7  C   UNL     1      47.698   7.498  13.723  0.00  0.00    +0.000 A 
ATOM      8  H   UNL     1      45.765   7.174  10.624  0.00  0.00    +0.000 HD
ENDROOT
BRANCH   1  10
ATOM      9  N   UNL     1      48.160   6.829  16.897  0.00  0.00    +0.000 N 
ATOM     10  C   UNL     1      48.810   6.571  15.721  0.00  0.00    +0.000 C 
ATOM     11  O   UNL     1      50.027   6.450  15.681  0.00  0.00    +0.000 OA
ATOM     12  H   UNL     1      48.731   6.830  17.734  0.00  0.00    +0.000 HD
ATOM     13  H   UNL     1      47.168   6.674  17.013  0.00  0.00    +0.000 HD
ENDBRANCH   1  10
BRANCH   5  14
ATOM     14  C   UNL     1      44.780   5.319  10.653  0.00  0.00    +0.000 C 
BRANCH  14  15
ATOM     15  C   UNL     1      45.238   4.279   9.649  0.00  0.00    +0.000 A 
ATOM     16  C   UNL     1      44.972   2.910   9.828  0.00  0.00    +0.000 A 
ATOM     17  C   UNL     1      45.397   1.969   8.888  0.00  0.00    +0.000 A 
ATOM     18  C   UNL     1      46.075   2.397   7.756  0.00  0.00    +0.000 A 
ATOM     19  F   UNL     1      46.492   1.495   6.858  0.00  0.00    +0.000 F 
ATOM     20  C   UNL     1      46.324   3.746   7.538  0.00  0.00    +0.000 A 
ATOM     21  C   UNL     1      45.901   4.688   8.480  0.00  0.00    +0.000 A 
ENDBRANCH  14  15
ENDBRANCH   5  14
TORSDOF 3
ENDMDL
MODEL 6
REMARK VINA RESULT:    -6.003      4.561      6.216
REMARK INTER + INTRA:          -7.554
REMARK INTER:                  -7.281
REMARK INTRA:                  -0.273
REMARK UNBOUND:                -0.498
REMARK  Name = 
REMARK  3 active torsions:
REMARK  status: ('A' for Active; 'I' for Inactive)
REMARK    1  A    between atoms: C_2  and  C_4
REMARK    2  A    between atoms: N_8  and  C_9
REMARK    3  A    between atoms: C_9  and  C_10
REMARK                            x       y       z     vdW  Elec       q    Type
REMARK                         _______ _______ _______ _____ _____    ______ ____
ROOT
ATOM      1  C   UNL     1      45.231   4.779  11.738  0.00  0.00    +0.000 A 
ATOM      2  C   UNL     1      45.841   5.684  12.600  0.00  0.00    +0.000 A 
ATOM      3  C   UNL     1      46.542   5.199  13.704  0.00  0.00    +0.000 A 
ATOM      4  C   UNL     1      46.602   3.829  13.938  0.00  0.00    +0.000 A 
ATOM      5  N   UNL     1      47.348   3.267  14.944  0.00  0.00    +0.000 N 
ATOM      6  N   UNL     1      45.994   2.947  13.120  0.00  0.00    +0.000 NA
ATOM      7  C   UNL     1      45.316   3.432  12.049  0.00  0.00    +0.000 A 
ATOM      8  H   UNL     1      47.207   2.262  14.963  0.00  0.00    +0.000 HD
ENDROOT
BRANCH   1  10
ATOM      9  N   UNL     1      45.272   5.543   9.437  0.00  0.00    +0.000 N 
ATOM     10  C   UNL     1      44.511   5.193  10.519  0.00  0.00    +0.000 C 
ATOM     11  O   UNL     1      43.289   5.186  10.461  0.00  0.00    +0.000 OA
ATOM     12  H   UNL     1      44.771   5.713   8.573  0.00  0.00    +0.000 HD
ATOM     13  H   UNL     1      46.252   5.311   9.366  0.00  0.00    +0.000 HD
ENDBRANCH   1  10
BRANCH   5  14
ATOM     14  C   UNL     1      47.553   3.904  16.227  0.00  0.00    +0.000 C 
BRANCH  14  15
ATOM     15  C   UNL     1      48.916   3.552  16.788  0.00  0.00    +0.000 A 
ATOM     16  C   UNL     1      49.425   2.242  16.730  0.00  0.00    +0.000 A 
ATOM     17  C   UNL     1      50.685   1.940  17.249  0.00  0.00    +0.000 A 
ATOM     18  C   UNL     1      51.450   2.951  17.809  0.00  0.00    +0.000 A 
ATOM     19  F   UNL     1      52.656   2.661  18.315  0.00  0.00    +0.000 F 
ATOM     20  C   UNL     1      50.987   4.260  17.852  0.00  0.00    +0.000 A 
ATOM     21  C   UNL     1      49.724   4.563  17.336  0.00  0.00    +0.000 A 
ENDBRANCH  14  15
ENDBRANCH   5  14
TORSDOF 3
ENDMDL
MODEL 7
REMARK VINA RESULT:    -5.751      5.535      7.727
REMARK INTER + INTRA:          -7.258
REMARK INTER:                  -6.961
REMARK INTRA:                  -0.297
REMARK UNBOUND:                -0.498
REMARK  Name = 
REMARK  3 active torsions:
REMARK  status: ('A' for Active; 'I' for Inactive)
REMARK    1  A    between atoms: C_2  and  C_4
REMARK    2  A    between atoms: N_8  and  C_9
REMARK    3  A    between atoms: C_9  and  C_10
REMARK                            x       y       z     vdW  Elec       q    Type
REMARK                         _______ _______ _______ _____ _____    ______ ____
ROOT
ATOM      1  C   UNL     1      49.044   4.209  17.226  0.00  0.00    +0.000 A 
ATOM      2  C   UNL     1      48.904   5.455  16.623  0.00  0.00    +0.000 A 
ATOM      3  C   UNL     1      47.930   5.627  15.641  0.00  0.00    +0.000 A 
ATOM      4  C   UNL     1      47.131   4.552  15.263  0.00  0.00    +0.000 A 
ATOM      5  N   UNL     1      46.090   4.660  14.375  0.00  0.00    +0.000 N 
ATOM      6  N   UNL     1      47.275   3.335  15.825  0.00  0.00    +0.000 NA
ATOM      7  C   UNL     1      48.227   3.182  16.781  0.00  0.00    +0.000 A 
ATOM      8  H   UNL     1      45.679   3.748  14.207  0.00  0.00    +0.000 HD
ENDROOT
BRANCH   1  10
ATOM      9  N   UNL     1      50.871   2.896  18.129  0.00  0.00    +0.000 N 
ATOM     10  C   UNL     1      50.010   3.944  18.308  0.00  0.00    +0.000 C 
ATOM     11  O   UNL     1      50.069   4.654  19.304  0.00  0.00    +0.000 OA
ATOM     12  H   UNL     1      51.604   2.795  18.822  0.00  0.00    +0.000 HD
ATOM     13  H   UNL     1      51.024   2.468  17.227  0.00  0.00    +0.000 HD
ENDBRANCH   1  10
BRANCH   5  14
ATOM     14  C   UNL     1      46.104   5.568  13.248  0.00  0.00    +0.000 C 
BRANCH  14  15
ATOM     15  C   UNL     1      45.616   4.871  11.994  0.00  0.00    +0.000 A 
ATOM     16  C   UNL     1      45.075   3.573  12.031  0.00  0.00    +0.000 A 
ATOM     17  C   UNL     1      44.628   2.950  10.864  0.00  0.00    +0.000 A 
ATOM     18  C   UNL     1      44.702   3.631   9.658  0.00  0.00    +0.000 A 
ATOM     19  F   UNL     1      44.281   3.032   8.537  0.00  0.00    +0.000 F 
ATOM     20  C   UNL     1      45.203   4.925   9.597  0.00  0.00    +0.000 A 
ATOM     21  C   UNL     1      45.654   5.548  10.763  0.00  0.00    +0.000 A 
ENDBRANCH  14  15
ENDBRANCH   5  14
TORSDOF 3
ENDMDL
MODEL 8
REMARK VINA RESULT:    -5.704      3.783      5.318
REMARK INTER + INTRA:          -7.203
REMARK INTER:                  -6.824
REMARK INTRA:                  -0.379
REMARK UNBOUND:                -0.498
REMARK  Name = 
REMARK  3 active torsions:
REMARK  status: ('A' for Active; 'I' for Inactive)
REMARK    1  A    between atoms: C_2  and  C_4
REMARK    2  A    between atoms: N_8  and  C_9
REMARK    3  A    between atoms: C_9  and  C_10
REMARK                            x       y       z     vdW  Elec       q    Type
REMARK                         _______ _______ _______ _____ _____    ______ ____
ROOT
ATOM      1  C   UNL     1      44.717   4.102  11.507  0.00  0.00    +0.000 A 
ATOM      2  C   UNL     1      45.201   5.161  10.747  0.00  0.00    +0.000 A 
ATOM      3  C   UNL     1      45.858   6.210  11.389  0.00  0.00    +0.000 A 
ATOM      4  C   UNL     1      45.999   6.194  12.774  0.00  0.00    +0.000 A 
ATOM      5  N   UNL     1      46.712   7.137  13.471  0.00  0.00    +0.000 N 
ATOM      6  N   UNL     1      45.512   5.183  13.520  0.00  0.00    +0.000 NA
ATOM      7  C   UNL     1      44.876   4.167  12.882  0.00  0.00    +0.000 A 
ATOM      8  H   UNL     1      46.641   6.961  14.468  0.00  0.00    +0.000 HD
ENDROOT
BRANCH   1  10
ATOM      9  N   UNL     1      44.713   2.288   9.897  0.00  0.00    +0.000 N 
ATOM     10  C   UNL     1      44.055   2.925  10.914  0.00  0.00    +0.000 C 
ATOM     11  O   UNL     1      42.984   2.509  11.337  0.00  0.00    +0.000 OA
ATOM     12  H   UNL     1      44.307   1.418   9.576  0.00  0.00    +0.000 HD
ATOM     13  H   UNL     1      45.694   2.440   9.708  0.00  0.00    +0.000 HD
ENDBRANCH   1  10
BRANCH   5  14
ATOM     14  C   UNL     1      46.782   8.527  13.074  0.00  0.00    +0.000 C 
BRANCH  14  15
ATOM     15  C   UNL     1      48.118   8.831  12.424  0.00  0.00    +0.000 A 
ATOM     16  C   UNL     1      49.131   7.860  12.325  0.00  0.00    +0.000 A 
ATOM     17  C   UNL     1      50.352   8.158  11.718  0.00  0.00    +0.000 A 
ATOM     18  C   UNL     1      50.558   9.424  11.190  0.00  0.00    +0.000 A 
ATOM     19  F   UNL     1      51.732   9.715  10.615  0.00  0.00    +0.000 F 
ATOM     20  C   UNL     1      49.564  10.393  11.245  0.00  0.00    +0.000 A 
ATOM     21  C   UNL     1      48.342  10.096  11.856  0.00  0.00    +0.000 A 
ENDBRANCH  14  15
ENDBRANCH   5  14
TORSDOF 3
ENDMDL
MODEL 9
REMARK VINA RESULT:    -5.621      5.961      8.466
REMARK INTER + INTRA:          -7.104
REMARK INTER:                  -6.774
REMARK INTRA:                  -0.330
REMARK UNBOUND:                -0.498
REMARK  Name = 
REMARK  3 active torsions:
REMARK  status: ('A' for Active; 'I' for Inactive)
REMARK    1  A    between atoms: C_2  and  C_4
REMARK    2  A    between atoms: N_8  and  C_9
REMARK    3  A    between atoms: C_9  and  C_10
REMARK                            x       y       z     vdW  Elec       q    Type
REMARK                         _______ _______ _______ _____ _____    ______ ____
ROOT
ATOM      1  C   UNL     1      48.665   4.488  18.407  0.00  0.00    +0.000 A 
ATOM      2  C   UNL     1      48.794   5.449  17.410  0.00  0.00    +0.000 A 
ATOM      3  C   UNL     1      48.130   5.261  16.199  0.00  0.00    +0.000 A 
ATOM      4  C   UNL     1      47.370   4.112  15.997  0.00  0.00    +0.000 A 
ATOM      5  N   UNL     1      46.612   3.897  14.874  0.00  0.00    +0.000 N 
ATOM      6  N   UNL     1      47.259   3.165  16.949  0.00  0.00    +0.000 NA
ATOM      7  C   UNL     1      47.909   3.361  18.124  0.00  0.00    +0.000 A 
ATOM      8  H   UNL     1      46.183   2.977  14.913  0.00  0.00    +0.000 HD
ENDROOT
BRANCH   1  10
ATOM      9  N   UNL     1      48.615   4.074  20.796  0.00  0.00    +0.000 N 
ATOM     10  C   UNL     1      49.287   4.623  19.737  0.00  0.00    +0.000 C 
ATOM     11  O   UNL     1      50.374   5.164  19.886  0.00  0.00    +0.000 OA
ATOM     12  H   UNL     1      49.104   4.070  21.683  0.00  0.00    +0.000 HD
ATOM     13  H   UNL     1      47.867   3.406  20.675  0.00  0.00    +0.000 HD
ENDBRANCH   1  10
BRANCH   5  14
ATOM     14  C   UNL     1      46.997   4.362  13.558  0.00  0.00    +0.000 C 
BRANCH  14  15
ATOM     15  C   UNL     1      45.843   5.078  12.885  0.00  0.00    +0.000 A 
ATOM     16  C   UNL     1      46.050   6.179  12.034  0.00  0.00    +0.000 A 
ATOM     17  C   UNL     1      44.974   6.822  11.420  0.00  0.00    +0.000 A 
ATOM     18  C   UNL     1      43.687   6.354  11.639  0.00  0.00    +0.000 A 
ATOM     19  F   UNL     1      42.653   6.975  11.058  0.00  0.00    +0.000 F 
ATOM     20  C   UNL     1      43.456   5.250  12.450  0.00  0.00    +0.000 A 
ATOM     21  C   UNL     1      44.532   4.608  13.068  0.00  0.00    +0.000 A 
ENDBRANCH  14  15
ENDBRANCH   5  14
TORSDOF 3
ENDMDL
