MODEL 1
REMARK VINA RESULT:    -7.259      0.000      0.000
REMARK INTER + INTRA:         -10.926
REMARK INTER:                  -9.805
REMARK INTRA:                  -1.121
REMARK UNBOUND:                -1.121
REMARK  Name = 
REMARK  6 active torsions:
REMARK  status: ('A' for Active; 'I' for Inactive)
REMARK    1  A    between atoms: C_2  and  C_3
REMARK    2  A    between atoms: N_10  and  C_11
REMARK    3  A    between atoms: C_11  and  C_12
REMARK    4  A    between atoms: C_15  and  C_16
REMARK    5  A    between atoms: C_16  and  N_17
REMARK    6  A    between atoms: C_18  and  C_20
REMARK                            x       y       z     vdW  Elec       q    Type
REMARK                         _______ _______ _______ _____ _____    ______ ____
ROOT
ATOM      1  C   UNL     1      49.409   6.320  17.555  0.00  0.00    +0.000 A 
ATOM      2  C   UNL     1      49.542   7.709  17.410  0.00  0.00    +0.000 A 
ATOM      3  C   UNL     1      49.099   8.354  16.249  0.00  0.00    +0.000 A 
ATOM      4  C   UNL     1      48.493   7.625  15.216  0.00  0.00    +0.000 A 
ATOM      5  C   UNL     1      48.377   6.236  15.354  0.00  0.00    +0.000 A 
ATOM      6  C   UNL     1      48.818   5.592  16.513  0.00  0.00    +0.000 A 
ENDROOT
BRANCH   1   7
ATOM      7  C   UNL     1      49.913   5.617  18.788  0.00  0.00    +0.000 C 
BRANCH   7  15
ATOM      8  C   UNL     1      51.755   1.791  17.566  0.00  0.00    +0.000 A 
ATOM      9  C   UNL     1      52.621   0.730  17.766  0.00  0.00    +0.000 A 
ATOM     10  C   UNL     1      53.761   1.230  18.436  0.00  0.00    +0.000 A 
ATOM     11  C   UNL     1      53.571   2.581  18.594  0.00  0.00    +0.000 A 
ATOM     12  N   UNL     1      52.316   2.933  18.117  0.00  0.00    +0.000 N 
ATOM     13  C   UNL     1      51.810   4.247  18.166  0.00  0.00    +0.000 C 
ATOM     14  O   UNL     1      52.578   5.187  18.030  0.00  0.00    +0.000 OA
ATOM     15  N   UNL     1      50.477   4.312  18.511  0.00  0.00    +0.000 N 
ATOM     16  H   UNL     1      49.971   3.497  18.834  0.00  0.00    +0.000 HD
BRANCH   8  18
ATOM     17  N   UNL     1      49.566   1.723  16.199  0.00  0.00    +0.000 NA
ATOM     18  C   UNL     1      50.548   1.751  16.813  0.00  0.00    +0.000 C 
ENDBRANCH   8  18
ENDBRANCH   7  15
ENDBRANCH   1   7
BRANCH   4  19
ATOM     19  C   UNL     1      47.989   8.310  13.970  0.00  0.00    +0.000 C 
BRANCH  19  20
ATOM     20  N   UNL     1      46.716   7.784  13.543  0.00  0.00    +0.000 N 
ATOM     21  C   UNL     1      46.609   7.047  12.388  0.00  0.00    +0.000 C 
ATOM     22  O   UNL     1      47.550   6.941  11.602  0.00  0.00    +0.000 OA
ATOM     23  H   UNL     1      45.987   7.718  14.247  0.00  0.00    +0.000 HD
BRANCH  21  24
ATOM     24  C   UNL     1      45.323   6.394  12.135  0.00  0.00    +0.000 A 
ATOM     25  C   UNL     1      44.266   7.128  11.619  0.00  0.00    +0.000 A 
ATOM     26  S   UNL     1      42.877   6.190  11.298  0.00  0.00    +0.000 S 
ATOM     27  C   UNL     1      43.672   4.760  11.764  0.00  0.00    +0.000 A 
ATOM     28  N   UNL     1      43.078   3.545  11.610  0.00  0.00    +0.000 NA
ATOM     29  C   UNL     1      43.805   2.545  11.988  0.00  0.00    +0.000 A 
ATOM     30  N   UNL     1      45.052   2.655  12.548  0.00  0.00    +0.000 N 
ATOM     31  C   UNL     1      45.670   3.864  12.764  0.00  0.00    +0.000 A 
ATOM     32  O   UNL     1      46.745   3.934  13.351  0.00  0.00    +0.000 OA
ATOM     33  C   UNL     1      44.934   5.012  12.270  0.00  0.00    +0.000 A 
ATOM     34  H   UNL     1      45.544   1.838  12.877  0.00  0.00    +0.000 HD
ENDBRANCH  21  24
ENDBRANCH  19  20
ENDBRANCH   4  19
TORSDOF 6
ENDMDL
MODEL 2
REMARK VINA RESULT:    -7.172      4.117      8.899
REMARK INTER + INTRA:         -10.808
REMARK INTER:                  -9.845
REMARK INTRA:                  -0.964
REMARK UNBOUND:                -1.121
REMARK  Name = 
REMARK  6 active torsions:
REMARK  status: ('A' for Active; 'I' for Inactive)
REMARK    1  A    between atoms: C_2  and  C_3
REMARK    2  A    between atoms: N_10  and  C_11
REMARK    3  A    between atoms: C_11  and  C_12
REMARK    4  A    between atoms: C_15  and  C_16
REMARK    5  A    between atoms: C_16  and  N_17
REMARK    6  A    between atoms: C_18  and  C_20
REMARK                            x       y       z     vdW  Elec       q    Type
REMARK                         _______ _______ _______ _____ _____    ______ ____
ROOT
ATOM      1  C   UNL     1      45.310   4.094  11.199  0.00  0.00    +0.000 A 
ATOM      2  C   UNL     1      45.724   3.895  12.525  0.00  0.00    +0.000 A 
ATOM      3  C   UNL     1      46.280   4.945  13.266  0.00  0.00    +0.000 A 
ATOM      4  C   UNL     1      46.414   6.221  12.704  0.00  0.00    +0.000 A 
ATOM      5  C   UNL     1      46.018   6.413  11.375  0.00  0.00    +0.000 A 
ATOM      6  C   UNL     1      45.462   5.367  10.634  0.00  0.00    +0.000 A 
ENDROOT
BRANCH   1   7
ATOM      7  C   UNL     1      44.741   2.960  10.387  0.00  0.00    +0.000 C 
BRANCH   7  15
ATOM      8  C   UNL     1      46.974   1.628   6.813  0.00  0.00    +0.000 A 
ATOM      9  C   UNL     1      47.838   1.853   5.755  0.00  0.00    +0.000 A 
ATOM     10  C   UNL     1      47.629   3.177   5.308  0.00  0.00    +0.000 A 
ATOM     11  C   UNL     1      46.625   3.707   6.082  0.00  0.00    +0.000 A 
ATOM     12  N   UNL     1      46.252   2.787   7.053  0.00  0.00    +0.000 N 
ATOM     13  C   UNL     1      45.265   3.046   8.024  0.00  0.00    +0.000 C 
ATOM     14  O   UNL     1      44.306   3.741   7.730  0.00  0.00    +0.000 OA
ATOM     15  N   UNL     1      45.588   2.571   9.278  0.00  0.00    +0.000 N 
ATOM     16  H   UNL     1      46.509   2.207   9.487  0.00  0.00    +0.000 HD
BRANCH   8  18
ATOM     17  N   UNL     1      46.597  -0.633   8.002  0.00  0.00    +0.000 NA
ATOM     18  C   UNL     1      46.767   0.383   7.470  0.00  0.00    +0.000 C 
ENDBRANCH   8  18
ENDBRANCH   7  15
ENDBRANCH   1   7
BRANCH   4  19
ATOM     19  C   UNL     1      46.989   7.367  13.499  0.00  0.00    +0.000 C 
BRANCH  19  20
ATOM     20  N   UNL     1      47.589   6.920  14.733  0.00  0.00    +0.000 N 
ATOM     21  C   UNL     1      48.955   6.849  14.867  0.00  0.00    +0.000 C 
ATOM     22  O   UNL     1      49.707   7.010  13.906  0.00  0.00    +0.000 OA
ATOM     23  H   UNL     1      47.006   6.948  15.563  0.00  0.00    +0.000 HD
BRANCH  21  24
ATOM     24  C   UNL     1      49.475   6.570  16.207  0.00  0.00    +0.000 A 
ATOM     25  C   UNL     1      50.328   7.475  16.820  0.00  0.00    +0.000 A 
ATOM     26  S   UNL     1      50.758   7.036  18.412  0.00  0.00    +0.000 S 
ATOM     27  C   UNL     1      49.755   5.663  18.360  0.00  0.00    +0.000 A 
ATOM     28  N   UNL     1      49.559   4.896  19.466  0.00  0.00    +0.000 NA
ATOM     29  C   UNL     1      48.759   3.897  19.287  0.00  0.00    +0.000 A 
ATOM     30  N   UNL     1      48.174   3.572  18.090  0.00  0.00    +0.000 N 
ATOM     31  C   UNL     1      48.380   4.292  16.938  0.00  0.00    +0.000 A 
ATOM     32  O   UNL     1      47.917   3.922  15.863  0.00  0.00    +0.000 OA
ATOM     33  C   UNL     1      49.197   5.478  17.108  0.00  0.00    +0.000 A 
ATOM     34  H   UNL     1      47.604   2.744  18.002  0.00  0.00    +0.000 HD
ENDBRANCH  21  24
ENDBRANCH  19  20
ENDBRANCH   4  19
TORSDOF 6
ENDMDL
MODEL 3
REMARK VINA RESULT:    -7.065      3.400      9.445
REMARK INTER + INTRA:         -10.664
REMARK INTER:                  -9.761
REMARK INTRA:                  -0.903
REMARK UNBOUND:                -1.121
REMARK  Name = 
REMARK  6 active torsions:
REMARK  status: ('A' for Active; 'I' for Inactive)
REMARK    1  A    between atoms: C_2  and  C_3
REMARK    2  A    between atoms: N_10  and  C_11
REMARK    3  A    between atoms: C_11  and  C_12
REMARK    4  A    between atoms: C_15  and  C_16
REMARK    5  A    between atoms: C_16  and  N_17
REMARK    6  A    between atoms: C_18  and  C_20
REMARK                            x       y       z     vdW  Elec       q    Type
REMARK                         _______ _______ _______ _____ _____    ______ ____
ROOT
ATOM      1  C   UNL     1      47.149   5.652  14.237  0.00  0.00    +0.000 A 
ATOM      2  C   UNL     1      46.797   4.394  14.749  0.00  0.00    +0.000 A 
ATOM      3  C   UNL     1      47.411   3.893  15.904  0.00  0.00    +0.000 A 
ATOM      4  C   UNL     1      48.374   4.650  16.583  0.00  0.00    +0.000 A 
ATOM      5  C   UNL     1      48.738   5.898  16.061  0.00  0.00    +0.000 A 
ATOM      6  C   UNL     1      48.126   6.399  14.909  0.00  0.00    +0.000 A 
ENDROOT
BRANCH   1   7
ATOM      7  C   UNL     1      46.515   6.181  12.977  0.00  0.00    +0.000 C 
BRANCH   7  15
ATOM      8  C   UNL     1      44.565   3.214  10.346  0.00  0.00    +0.000 A 
ATOM      9  C   UNL     1      44.510   2.447   9.195  0.00  0.00    +0.000 A 
ATOM     10  C   UNL     1      45.095   3.201   8.152  0.00  0.00    +0.000 A 
ATOM     11  C   UNL     1      45.457   4.412   8.688  0.00  0.00    +0.000 A 
ATOM     12  N   UNL     1      45.193   4.415  10.051  0.00  0.00    +0.000 N 
ATOM     13  C   UNL     1      45.482   5.506  10.893  0.00  0.00    +0.000 C 
ATOM     14  O   UNL     1      45.381   6.641  10.455  0.00  0.00    +0.000 OA
ATOM     15  N   UNL     1      45.995   5.137  12.118  0.00  0.00    +0.000 N 
ATOM     16  H   UNL     1      46.264   4.181  12.315  0.00  0.00    +0.000 HD
BRANCH   8  18
ATOM     17  N   UNL     1      43.481   2.620  12.612  0.00  0.00    +0.000 NA
ATOM     18  C   UNL     1      43.969   2.886  11.596  0.00  0.00    +0.000 C 
ENDBRANCH   8  18
ENDBRANCH   7  15
ENDBRANCH   1   7
BRANCH   4  19
ATOM     19  C   UNL     1      49.026   4.134  17.842  0.00  0.00    +0.000 C 
BRANCH  19  20
ATOM     20  N   UNL     1      50.410   3.788  17.630  0.00  0.00    +0.000 N 
ATOM     21  C   UNL     1      51.356   4.041  18.595  0.00  0.00    +0.000 C 
ATOM     22  O   UNL     1      51.093   4.704  19.597  0.00  0.00    +0.000 OA
ATOM     23  H   UNL     1      50.607   3.108  16.903  0.00  0.00    +0.000 HD
BRANCH  21  24
ATOM     24  C   UNL     1      52.693   3.486  18.373  0.00  0.00    +0.000 A 
ATOM     25  C   UNL     1      53.812   4.281  18.569  0.00  0.00    +0.000 A 
ATOM     26  S   UNL     1      55.286   3.447  18.358  0.00  0.00    +0.000 S 
ATOM     27  C   UNL     1      54.475   1.978  18.076  0.00  0.00    +0.000 A 
ATOM     28  N   UNL     1      55.162   0.811  17.946  0.00  0.00    +0.000 NA
ATOM     29  C   UNL     1      54.416  -0.227  17.754  0.00  0.00    +0.000 A 
ATOM     30  N   UNL     1      53.050  -0.195  17.636  0.00  0.00    +0.000 N 
ATOM     31  C   UNL     1      52.321   0.966  17.716  0.00  0.00    +0.000 A 
ATOM     32  O   UNL     1      51.110   0.974  17.514  0.00  0.00    +0.000 OA
ATOM     33  C   UNL     1      53.103   2.148  18.023  0.00  0.00    +0.000 A 
ATOM     34  H   UNL     1      52.531  -1.035  17.428  0.00  0.00    +0.000 HD
ENDBRANCH  21  24
ENDBRANCH  19  20
ENDBRANCH   4  19
TORSDOF 6
ENDMDL
MODEL 4
REMARK VINA RESULT:    -6.777      3.355      9.254
REMARK INTER + INTRA:         -10.274
REMARK INTER:                  -9.397
REMARK INTRA:                  -0.877
REMARK UNBOUND:                -1.121
REMARK  Name = 
REMARK  6 active torsions:
REMARK  status: ('A' for Active; 'I' for Inactive)
REMARK    1  A    between atoms: C_2  and  C_3
REMARK    2  A    between atoms: N_10  and  C_11
REMARK    3  A    between atoms: C_11  and  C_12
REMARK    4  A    between atoms: C_15  and  C_16
REMARK    5  A    between atoms: C_16  and  N_17
REMARK    6  A    between atoms: C_18  and  C_20
REMARK                            x       y       z     vdW  Elec       q    Type
REMARK                         _______ _______ _______ _____ _____    ______ ____
ROOT
ATOM      1  C   UNL     1      47.523   5.426  14.686  0.00  0.00    +0.000 A 
ATOM      2  C   UNL     1      48.343   6.066  15.628  0.00  0.00    +0.000 A 
ATOM      3  C   UNL     1      48.686   5.431  16.828  0.00  0.00    +0.000 A 
ATOM      4  C   UNL     1      48.233   4.134  17.102  0.00  0.00    +0.000 A 
ATOM      5  C   UNL     1      47.401   3.503  16.169  0.00  0.00    +0.000 A 
ATOM      6  C   UNL     1      47.058   4.135  14.971  0.00  0.00    +0.000 A 
ENDROOT
BRANCH   1   7
ATOM      7  C   UNL     1      47.125   6.117  13.408  0.00  0.00    +0.000 C 
BRANCH   7  15
ATOM      8  C   UNL     1      44.677   3.711  10.626  0.00  0.00    +0.000 A 
ATOM      9  C   UNL     1      44.451   3.111   9.399  0.00  0.00    +0.000 A 
ATOM     10  C   UNL     1      45.023   3.939   8.407  0.00  0.00    +0.000 A 
ATOM     11  C   UNL     1      45.549   5.032   9.052  0.00  0.00    +0.000 A 
ATOM     12  N   UNL     1      45.397   4.879  10.424  0.00  0.00    +0.000 N 
ATOM     13  C   UNL     1      45.864   5.819  11.363  0.00  0.00    +0.000 C 
ATOM     14  O   UNL     1      45.843   7.007  11.079  0.00  0.00    +0.000 OA
ATOM     15  N   UNL     1      46.434   5.247  12.480  0.00  0.00    +0.000 N 
ATOM     16  H   UNL     1      46.620   4.253  12.532  0.00  0.00    +0.000 HD
BRANCH   8  18
ATOM     17  N   UNL     1      43.731   2.921  12.894  0.00  0.00    +0.000 NA
ATOM     18  C   UNL     1      44.154   3.277  11.876  0.00  0.00    +0.000 C 
ENDBRANCH   8  18
ENDBRANCH   7  15
ENDBRANCH   1   7
BRANCH   4  19
ATOM     19  C   UNL     1      48.615   3.428  18.380  0.00  0.00    +0.000 C 
BRANCH  19  20
ATOM     20  N   UNL     1      50.041   3.238  18.486  0.00  0.00    +0.000 N 
ATOM     21  C   UNL     1      50.700   2.371  17.647  0.00  0.00    +0.000 C 
ATOM     22  O   UNL     1      50.089   1.617  16.889  0.00  0.00    +0.000 OA
ATOM     23  H   UNL     1      50.565   3.957  18.973  0.00  0.00    +0.000 HD
BRANCH  21  24
ATOM     24  C   UNL     1      52.163   2.385  17.697  0.00  0.00    +0.000 A 
ATOM     25  C   UNL     1      52.866   1.190  17.723  0.00  0.00    +0.000 A 
ATOM     26  S   UNL     1      54.559   1.393  17.684  0.00  0.00    +0.000 S 
ATOM     27  C   UNL     1      54.406   3.082  17.551  0.00  0.00    +0.000 A 
ATOM     28  N   UNL     1      55.495   3.871  17.348  0.00  0.00    +0.000 NA
ATOM     29  C   UNL     1      55.228   5.132  17.248  0.00  0.00    +0.000 A 
ATOM     30  N   UNL     1      53.977   5.677  17.378  0.00  0.00    +0.000 N 
ATOM     31  C   UNL     1      52.856   4.922  17.629  0.00  0.00    +0.000 A 
ATOM     32  O   UNL     1      51.766   5.447  17.833  0.00  0.00    +0.000 OA
ATOM     33  C   UNL     1      53.089   3.491  17.658  0.00  0.00    +0.000 A 
ATOM     34  H   UNL     1      53.844   6.676  17.348  0.00  0.00    +0.000 HD
ENDBRANCH  21  24
ENDBRANCH  19  20
ENDBRANCH   4  19
TORSDOF 6
ENDMDL
MODEL 5
REMARK VINA RESULT:    -6.525      3.101      8.538
REMARK INTER + INTRA:          -9.934
REMARK INTER:                  -8.795
REMARK INTRA:                  -1.139
REMARK UNBOUND:                -1.121
REMARK  Name = 
REMARK  6 active torsions:
REMARK  status: ('A' for Active; 'I' for Inactive)
REMARK    1  A    between atoms: C_2  and  C_3
REMARK    2  A    between atoms: N_10  and  C_11
REMARK    3  A    between atoms: C_11  and  C_12
REMARK    4  A    between atoms: C_15  and  C_16
REMARK    5  A    between atoms: C_16  and  N_17
REMARK    6  A    between atoms: C_18  and  C_20
REMARK                            x       y       z     vdW  Elec       q    Type
REMARK                         _______ _______ _______ _____ _____    ______ ____
ROOT
ATOM      1  C   UNL     1      48.676   7.692  13.719  0.00  0.00    +0.000 A 
ATOM      2  C   UNL     1      48.503   6.707  14.703  0.00  0.00    +0.000 A 
ATOM      3  C   UNL     1      49.218   6.763  15.906  0.00  0.00    +0.000 A 
ATOM      4  C   UNL     1      50.105   7.818  16.158  0.00  0.00    +0.000 A 
ATOM      5  C   UNL     1      50.290   8.790  15.167  0.00  0.00    +0.000 A 
ATOM      6  C   UNL     1      49.576   8.736  13.967  0.00  0.00    +0.000 A 
ENDROOT
BRANCH   1   7
ATOM      7  C   UNL     1      47.933   7.618  12.410  0.00  0.00    +0.000 C 
BRANCH   7  15
ATOM      8  C   UNL     1      45.312   4.061  12.390  0.00  0.00    +0.000 A 
ATOM      9  C   UNL     1      44.338   3.260  11.818  0.00  0.00    +0.000 A 
ATOM     10  C   UNL     1      43.434   4.108  11.140  0.00  0.00    +0.000 A 
ATOM     11  C   UNL     1      43.862   5.397  11.345  0.00  0.00    +0.000 A 
ATOM     12  N   UNL     1      45.051   5.383  12.063  0.00  0.00    +0.000 N 
ATOM     13  C   UNL     1      45.761   6.549  12.408  0.00  0.00    +0.000 C 
ATOM     14  O   UNL     1      45.141   7.571  12.662  0.00  0.00    +0.000 OA
ATOM     15  N   UNL     1      47.127   6.422  12.278  0.00  0.00    +0.000 N 
ATOM     16  H   UNL     1      47.546   5.612  11.840  0.00  0.00    +0.000 HD
BRANCH   8  18
ATOM     17  N   UNL     1      47.175   3.262  13.989  0.00  0.00    +0.000 NA
ATOM     18  C   UNL     1      46.340   3.622  13.271  0.00  0.00    +0.000 C 
ENDBRANCH   8  18
ENDBRANCH   7  15
ENDBRANCH   1   7
BRANCH   4  19
ATOM     19  C   UNL     1      50.864   7.905  17.459  0.00  0.00    +0.000 C 
BRANCH  19  20
ATOM     20  N   UNL     1      51.762   6.789  17.635  0.00  0.00    +0.000 N 
ATOM     21  C   UNL     1      51.602   5.914  18.682  0.00  0.00    +0.000 C 
ATOM     22  O   UNL     1      50.797   6.131  19.587  0.00  0.00    +0.000 OA
ATOM     23  H   UNL     1      52.307   6.507  16.827  0.00  0.00    +0.000 HD
BRANCH  21  24
ATOM     24  C   UNL     1      52.435   4.710  18.673  0.00  0.00    +0.000 A 
ATOM     25  C   UNL     1      53.691   4.734  19.261  0.00  0.00    +0.000 A 
ATOM     26  S   UNL     1      54.482   3.222  19.241  0.00  0.00    +0.000 S 
ATOM     27  C   UNL     1      53.139   2.470  18.517  0.00  0.00    +0.000 A 
ATOM     28  N   UNL     1      53.104   1.122  18.334  0.00  0.00    +0.000 NA
ATOM     29  C   UNL     1      52.015   0.687  17.791  0.00  0.00    +0.000 A 
ATOM     30  N   UNL     1      50.979   1.482  17.373  0.00  0.00    +0.000 N 
ATOM     31  C   UNL     1      50.993   2.851  17.497  0.00  0.00    +0.000 A 
ATOM     32  O   UNL     1      50.092   3.542  17.030  0.00  0.00    +0.000 OA
ATOM     33  C   UNL     1      52.153   3.382  18.186  0.00  0.00    +0.000 A 
ATOM     34  H   UNL     1      50.181   1.085  16.902  0.00  0.00    +0.000 HD
ENDBRANCH  21  24
ENDBRANCH  19  20
ENDBRANCH   4  19
TORSDOF 6
ENDMDL
MODEL 6
REMARK VINA RESULT:    -6.382      5.049      5.582
REMARK INTER + INTRA:          -9.741
REMARK INTER:                  -8.879
REMARK INTRA:                  -0.862
REMARK UNBOUND:                -1.121
REMARK  Name = 
REMARK  6 active torsions:
REMARK  status: ('A' for Active; 'I' for Inactive)
REMARK    1  A    between atoms: C_2  and  C_3
REMARK    2  A    between atoms: N_10  and  C_11
REMARK    3  A    between atoms: C_11  and  C_12
REMARK    4  A    between atoms: C_15  and  C_16
REMARK    5  A    between atoms: C_16  and  N_17
REMARK    6  A    between atoms: C_18  and  C_20
REMARK                            x       y       z     vdW  Elec       q    Type
REMARK                         _______ _______ _______ _____ _____    ______ ____
ROOT
ATOM      1  C   UNL     1      51.012   8.907  11.723  0.00  0.00    +0.000 A 
ATOM      2  C   UNL     1      50.288  10.004  12.214  0.00  0.00    +0.000 A 
ATOM      3  C   UNL     1      48.895   9.944  12.341  0.00  0.00    +0.000 A 
ATOM      4  C   UNL     1      48.198   8.777  11.999  0.00  0.00    +0.000 A 
ATOM      5  C   UNL     1      48.920   7.690  11.491  0.00  0.00    +0.000 A 
ATOM      6  C   UNL     1      50.311   7.749  11.365  0.00  0.00    +0.000 A 
ENDROOT
BRANCH   1   7
ATOM      7  C   UNL     1      52.507   8.979  11.554  0.00  0.00    +0.000 C 
BRANCH   7  15
ATOM      8  C   UNL     1      54.716   5.220  10.835  0.00  0.00    +0.000 A 
ATOM      9  C   UNL     1      55.281   4.030  11.262  0.00  0.00    +0.000 A 
ATOM     10  C   UNL     1      55.775   4.239  12.570  0.00  0.00    +0.000 A 
ATOM     11  C   UNL     1      55.527   5.552  12.887  0.00  0.00    +0.000 A 
ATOM     12  N   UNL     1      54.823   6.155  11.853  0.00  0.00    +0.000 N 
ATOM     13  C   UNL     1      54.391   7.495  11.890  0.00  0.00    +0.000 C 
ATOM     14  O   UNL     1      55.081   8.329  12.454  0.00  0.00    +0.000 OA
ATOM     15  N   UNL     1      53.124   7.680  11.378  0.00  0.00    +0.000 N 
ATOM     16  H   UNL     1      52.527   6.898  11.141  0.00  0.00    +0.000 HD
BRANCH   8  18
ATOM     17  N   UNL     1      53.818   5.700   8.462  0.00  0.00    +0.000 NA
ATOM     18  C   UNL     1      54.219   5.484   9.528  0.00  0.00    +0.000 C 
ENDBRANCH   8  18
ENDBRANCH   7  15
ENDBRANCH   1   7
BRANCH   4  19
ATOM     19  C   UNL     1      46.700   8.690  12.153  0.00  0.00    +0.000 C 
BRANCH  19  20
ATOM     20  N   UNL     1      46.245   7.323  12.228  0.00  0.00    +0.000 N 
ATOM     21  C   UNL     1      45.016   6.961  11.728  0.00  0.00    +0.000 C 
ATOM     22  O   UNL     1      44.203   7.801  11.346  0.00  0.00    +0.000 OA
ATOM     23  H   UNL     1      46.952   6.611  12.379  0.00  0.00    +0.000 HD
BRANCH  21  24
ATOM     24  C   UNL     1      44.720   5.528  11.673  0.00  0.00    +0.000 A 
ATOM     25  C   UNL     1      44.128   4.903  12.760  0.00  0.00    +0.000 A 
ATOM     26  S   UNL     1      43.768   3.257  12.487  0.00  0.00    +0.000 S 
ATOM     27  C   UNL     1      44.319   3.349  10.880  0.00  0.00    +0.000 A 
ATOM     28  N   UNL     1      44.174   2.299  10.027  0.00  0.00    +0.000 NA
ATOM     29  C   UNL     1      44.620   2.516   8.834  0.00  0.00    +0.000 A 
ATOM     30  N   UNL     1      45.238   3.672   8.431  0.00  0.00    +0.000 N 
ATOM     31  C   UNL     1      45.446   4.740   9.271  0.00  0.00    +0.000 A 
ATOM     32  O   UNL     1      46.084   5.723   8.906  0.00  0.00    +0.000 OA
ATOM     33  C   UNL     1      44.880   4.581  10.596  0.00  0.00    +0.000 A 
ATOM     34  H   UNL     1      45.617   3.756   7.500  0.00  0.00    +0.000 HD
ENDBRANCH  21  24
ENDBRANCH  19  20
ENDBRANCH   4  19
TORSDOF 6
ENDMDL
MODEL 7
REMARK VINA RESULT:    -6.348      5.801      6.879
REMARK INTER + INTRA:          -9.695
REMARK INTER:                  -8.713
REMARK INTRA:                  -0.981
REMARK UNBOUND:                -1.121
REMARK  Name = 
REMARK  6 active torsions:
REMARK  status: ('A' for Active; 'I' for Inactive)
REMARK    1  A    between atoms: C_2  and  C_3
REMARK    2  A    between atoms: N_10  and  C_11
REMARK    3  A    between atoms: C_11  and  C_12
REMARK    4  A    between atoms: C_15  and  C_16
REMARK    5  A    between atoms: C_16  and  N_17
REMARK    6  A    between atoms: C_18  and  C_20
REMARK                            x       y       z     vdW  Elec       q    Type
REMARK                         _______ _______ _______ _____ _____    ______ ____
ROOT
ATOM      1  C   UNL     1      50.379   9.022  11.718  0.00  0.00    +0.000 A 
ATOM      2  C   UNL     1      49.550  10.087  12.101  0.00  0.00    +0.000 A 
ATOM      3  C   UNL     1      48.174   9.896  12.278  0.00  0.00    +0.000 A 
ATOM      4  C   UNL     1      47.602   8.630  12.096  0.00  0.00    +0.000 A 
ATOM      5  C   UNL     1      48.427   7.572  11.695  0.00  0.00    +0.000 A 
ATOM      6  C   UNL     1      49.801   7.762  11.519  0.00  0.00    +0.000 A 
ENDROOT
BRANCH   1   7
ATOM      7  C   UNL     1      51.854   9.230  11.494  0.00  0.00    +0.000 C 
BRANCH   7  15
ATOM      8  C   UNL     1      53.761   7.326   7.993  0.00  0.00    +0.000 A 
ATOM      9  C   UNL     1      54.050   6.227   7.203  0.00  0.00    +0.000 A 
ATOM     10  C   UNL     1      54.171   5.108   8.058  0.00  0.00    +0.000 A 
ATOM     11  C   UNL     1      53.986   5.562   9.341  0.00  0.00    +0.000 A 
ATOM     12  N   UNL     1      53.673   6.915   9.314  0.00  0.00    +0.000 N 
ATOM     13  C   UNL     1      53.395   7.667  10.471  0.00  0.00    +0.000 C 
ATOM     14  O   UNL     1      53.981   7.404  11.509  0.00  0.00    +0.000 OA
ATOM     15  N   UNL     1      52.353   8.557  10.313  0.00  0.00    +0.000 N 
ATOM     16  H   UNL     1      51.768   8.549   9.487  0.00  0.00    +0.000 HD
BRANCH   8  18
ATOM     17  N   UNL     1      53.632   9.775   7.184  0.00  0.00    +0.000 NA
ATOM     18  C   UNL     1      53.688   8.676   7.548  0.00  0.00    +0.000 C 
ENDBRANCH   8  18
ENDBRANCH   7  15
ENDBRANCH   1   7
BRANCH   4  19
ATOM     19  C   UNL     1      46.125   8.404  12.306  0.00  0.00    +0.000 C 
BRANCH  19  20
ATOM     20  N   UNL     1      45.770   7.011  12.185  0.00  0.00    +0.000 N 
ATOM     21  C   UNL     1      44.574   6.635  11.622  0.00  0.00    +0.000 C 
ATOM     22  O   UNL     1      43.703   7.460  11.348  0.00  0.00    +0.000 OA
ATOM     23  H   UNL     1      46.527   6.338  12.247  0.00  0.00    +0.000 HD
BRANCH  21  24
ATOM     24  C   UNL     1      44.382   5.206  11.366  0.00  0.00    +0.000 A 
ATOM     25  C   UNL     1      43.618   4.444  12.236  0.00  0.00    +0.000 A 
ATOM     26  S   UNL     1      43.422   2.825  11.733  0.00  0.00    +0.000 S 
ATOM     27  C   UNL     1      44.287   3.112  10.297  0.00  0.00    +0.000 A 
ATOM     28  N   UNL     1      44.387   2.155   9.334  0.00  0.00    +0.000 NA
ATOM     29  C   UNL     1      45.056   2.518   8.290  0.00  0.00    +0.000 A 
ATOM     30  N   UNL     1      45.673   3.734   8.142  0.00  0.00    +0.000 N 
ATOM     31  C   UNL     1      45.637   4.711   9.107  0.00  0.00    +0.000 A 
ATOM     32  O   UNL     1      46.275   5.752   8.984  0.00  0.00    +0.000 OA
ATOM     33  C   UNL     1      44.819   4.388  10.260  0.00  0.00    +0.000 A 
ATOM     34  H   UNL     1      46.230   3.933   7.325  0.00  0.00    +0.000 HD
ENDBRANCH  21  24
ENDBRANCH  19  20
ENDBRANCH   4  19
TORSDOF 6
ENDMDL
MODEL 8
REMARK VINA RESULT:    -6.308      3.290      8.317
REMARK INTER + INTRA:          -9.641
REMARK INTER:                  -8.571
REMARK INTRA:                  -1.071
REMARK UNBOUND:                -1.121
REMARK  Name = 
REMARK  6 active torsions:
REMARK  status: ('A' for Active; 'I' for Inactive)
REMARK    1  A    between atoms: C_2  and  C_3
REMARK    2  A    between atoms: N_10  and  C_11
REMARK    3  A    between atoms: C_11  and  C_12
REMARK    4  A    between atoms: C_15  and  C_16
REMARK    5  A    between atoms: C_16  and  N_17
REMARK    6  A    between atoms: C_18  and  C_20
REMARK                            x       y       z     vdW  Elec       q    Type
REMARK                         _______ _______ _______ _____ _____    ______ ____
ROOT
ATOM      1  C   UNL     1      46.778   8.215  12.443  0.00  0.00    +0.000 A 
ATOM      2  C   UNL     1      47.745   7.762  11.533  0.00  0.00    +0.000 A 
ATOM      3  C   UNL     1      49.110   7.893  11.814  0.00  0.00    +0.000 A 
ATOM      4  C   UNL     1      49.537   8.463  13.021  0.00  0.00    +0.000 A 
ATOM      5  C   UNL     1      48.572   8.932  13.920  0.00  0.00    +0.000 A 
ATOM      6  C   UNL     1      47.208   8.800  13.641  0.00  0.00    +0.000 A 
ENDROOT
BRANCH   1   7
ATOM      7  C   UNL     1      45.308   8.105  12.131  0.00  0.00    +0.000 C 
BRANCH   7  15
ATOM      8  C   UNL     1      44.582   4.080  10.460  0.00  0.00    +0.000 A 
ATOM      9  C   UNL     1      43.856   2.904  10.368  0.00  0.00    +0.000 A 
ATOM     10  C   UNL     1      43.339   2.621  11.652  0.00  0.00    +0.000 A 
ATOM     11  C   UNL     1      43.790   3.610  12.492  0.00  0.00    +0.000 A 
ATOM     12  N   UNL     1      44.508   4.549  11.762  0.00  0.00    +0.000 N 
ATOM     13  C   UNL     1      45.076   5.704  12.334  0.00  0.00    +0.000 C 
ATOM     14  O   UNL     1      45.511   5.652  13.474  0.00  0.00    +0.000 OA
ATOM     15  N   UNL     1      44.942   6.830  11.551  0.00  0.00    +0.000 N 
ATOM     16  H   UNL     1      44.364   6.834  10.720  0.00  0.00    +0.000 HD
BRANCH   8  18
ATOM     17  N   UNL     1      46.022   5.119   8.586  0.00  0.00    +0.000 NA
ATOM     18  C   UNL     1      45.377   4.651   9.427  0.00  0.00    +0.000 C 
ENDBRANCH   8  18
ENDBRANCH   7  15
ENDBRANCH   1   7
BRANCH   4  19
ATOM     19  C   UNL     1      51.005   8.589  13.348  0.00  0.00    +0.000 C 
BRANCH  19  20
ATOM     20  N   UNL     1      51.405   7.678  14.393  0.00  0.00    +0.000 N 
ATOM     21  C   UNL     1      51.569   8.117  15.685  0.00  0.00    +0.000 C 
ATOM     22  O   UNL     1      51.536   9.314  15.969  0.00  0.00    +0.000 OA
ATOM     23  H   UNL     1      51.273   6.689  14.214  0.00  0.00    +0.000 HD
BRANCH  21  24
ATOM     24  C   UNL     1      51.788   7.093  16.709  0.00  0.00    +0.000 A 
ATOM     25  C   UNL     1      52.961   7.093  17.447  0.00  0.00    +0.000 A 
ATOM     26  S   UNL     1      53.006   5.891  18.658  0.00  0.00    +0.000 S 
ATOM     27  C   UNL     1      51.425   5.384  18.285  0.00  0.00    +0.000 A 
ATOM     28  N   UNL     1      50.790   4.451  19.045  0.00  0.00    +0.000 NA
ATOM     29  C   UNL     1      49.589   4.177  18.658  0.00  0.00    +0.000 A 
ATOM     30  N   UNL     1      48.982   4.718  17.553  0.00  0.00    +0.000 N 
ATOM     31  C   UNL     1      49.603   5.628  16.732  0.00  0.00    +0.000 A 
ATOM     32  O   UNL     1      49.069   6.023  15.700  0.00  0.00    +0.000 OA
ATOM     33  C   UNL     1      50.920   6.040  17.177  0.00  0.00    +0.000 A 
ATOM     34  H   UNL     1      48.062   4.417  17.271  0.00  0.00    +0.000 HD
ENDBRANCH  21  24
ENDBRANCH  19  20
ENDBRANCH   4  19
TORSDOF 6
ENDMDL
MODEL 9
REMARK VINA RESULT:    -5.993      2.453      3.235
REMARK INTER + INTRA:          -9.216
REMARK INTER:                  -8.362
REMARK INTRA:                  -0.853
REMARK UNBOUND:                -1.121
REMARK  Name = 
REMARK  6 active torsions:
REMARK  status: ('A' for Active; 'I' for Inactive)
REMARK    1  A    between atoms: C_2  and  C_3
REMARK    2  A    between atoms: N_10  and  C_11
REMARK    3  A    between atoms: C_11  and  C_12
REMARK    4  A    between atoms: C_15  and  C_16
REMARK    5  A    between atoms: C_16  and  N_17
REMARK    6  A    between atoms: C_18  and  C_20
REMARK                            x       y       z     vdW  Elec       q    Type
REMARK                         _______ _______ _______ _____ _____    ______ ____
ROOT
ATOM      1  C   UNL     1      50.030   8.638  14.860  0.00  0.00    +0.000 A 
ATOM      2  C   UNL     1      48.747   9.035  15.266  0.00  0.00    +0.000 A 
ATOM      3  C   UNL     1      47.657   8.934  14.393  0.00  0.00    +0.000 A 
ATOM      4  C   UNL     1      47.823   8.413  13.102  0.00  0.00    +0.000 A 
ATOM      5  C   UNL     1      49.108   8.035  12.693  0.00  0.00    +0.000 A 
ATOM      6  C   UNL     1      50.196   8.134  13.563  0.00  0.00    +0.000 A 
ENDROOT
BRANCH   1   7
ATOM      7  C   UNL     1      51.212   8.775  15.784  0.00  0.00    +0.000 C 
BRANCH   7  15
ATOM      8  C   UNL     1      52.158   4.847  17.574  0.00  0.00    +0.000 A 
ATOM      9  C   UNL     1      52.946   4.011  18.347  0.00  0.00    +0.000 A 
ATOM     10  C   UNL     1      54.289   4.423  18.188  0.00  0.00    +0.000 A 
ATOM     11  C   UNL     1      54.283   5.472  17.301  0.00  0.00    +0.000 A 
ATOM     12  N   UNL     1      52.974   5.785  16.959  0.00  0.00    +0.000 N 
ATOM     13  C   UNL     1      52.632   6.838  16.088  0.00  0.00    +0.000 C 
ATOM     14  O   UNL     1      53.374   7.104  15.155  0.00  0.00    +0.000 OA
ATOM     15  N   UNL     1      51.526   7.552  16.494  0.00  0.00    +0.000 N 
ATOM     16  H   UNL     1      51.105   7.409  17.404  0.00  0.00    +0.000 HD
BRANCH   8  18
ATOM     17  N   UNL     1      49.624   4.579  17.160  0.00  0.00    +0.000 NA
ATOM     18  C   UNL     1      50.762   4.699  17.344  0.00  0.00    +0.000 C 
ENDBRANCH   8  18
ENDBRANCH   7  15
ENDBRANCH   1   7
BRANCH   4  19
ATOM     19  C   UNL     1      46.653   8.276  12.160  0.00  0.00    +0.000 C 
BRANCH  19  20
ATOM     20  N   UNL     1      46.164   6.921  12.102  0.00  0.00    +0.000 N 
ATOM     21  C   UNL     1      44.920   6.642  11.588  0.00  0.00    +0.000 C 
ATOM     22  O   UNL     1      44.123   7.537  11.307  0.00  0.00    +0.000 OA
ATOM     23  H   UNL     1      46.854   6.180  12.168  0.00  0.00    +0.000 HD
BRANCH  21  24
ATOM     24  C   UNL     1      44.585   5.230  11.393  0.00  0.00    +0.000 A 
ATOM     25  C   UNL     1      43.849   4.555  12.354  0.00  0.00    +0.000 A 
ATOM     26  S   UNL     1      43.470   2.948  11.919  0.00  0.00    +0.000 S 
ATOM     27  C   UNL     1      44.210   3.131  10.398  0.00  0.00    +0.000 A 
ATOM     28  N   UNL     1      44.133   2.150   9.459  0.00  0.00    +0.000 NA
ATOM     29  C   UNL     1      44.724   2.432   8.345  0.00  0.00    +0.000 A 
ATOM     30  N   UNL     1      45.422   3.586   8.103  0.00  0.00    +0.000 N 
ATOM     31  C   UNL     1      45.564   4.583   9.038  0.00  0.00    +0.000 A 
ATOM     32  O   UNL     1      46.273   5.562   8.824  0.00  0.00    +0.000 OA
ATOM     33  C   UNL     1      44.840   4.355  10.274  0.00  0.00    +0.000 A 
ATOM     34  H   UNL     1      45.912   3.720   7.231  0.00  0.00    +0.000 HD
ENDBRANCH  21  24
ENDBRANCH  19  20
ENDBRANCH   4  19
TORSDOF 6
ENDMDL
