MODEL 1
REMARK VINA RESULT:    -7.697      0.000      0.000
REMARK INTER + INTRA:         -11.739
REMARK INTER:                 -10.847
REMARK INTRA:                  -0.892
REMARK UNBOUND:                -0.892
REMARK  Name = 
REMARK  7 active torsions:
REMARK  status: ('A' for Active; 'I' for Inactive)
REMARK    1  A    between atoms: C_2  and  C_19
REMARK    2  A    between atoms: N_3  and  C_4
REMARK    3  A    between atoms: C_4  and  C_5
REMARK    4  A    between atoms: C_8  and  C_9
REMARK    5  A    between atoms: C_9  and  C_10
REMARK    6  A    between atoms: C_10  and  O_11
REMARK    7  A    between atoms: O_11  and  C_12
REMARK                            x       y       z     vdW  Elec       q    Type
REMARK                         _______ _______ _______ _____ _____    ______ ____
ROOT
ATOM      1  C   UNL     1      46.499   7.503  12.852  0.00  0.00    +0.000 C 
ENDROOT
BRANCH   1   2
ATOM      2  C   UNL     1      45.879   6.282  12.227  0.00  0.00    +0.000 A 
ATOM      3  C   UNL     1      45.847   6.156  10.837  0.00  0.00    +0.000 A 
ATOM      4  C   UNL     1      45.280   5.031  10.235  0.00  0.00    +0.000 A 
ATOM      5  C   UNL     1      44.717   4.005  11.007  0.00  0.00    +0.000 A 
ATOM      6  C   UNL     1      44.728   4.147  12.403  0.00  0.00    +0.000 A 
ATOM      7  C   UNL     1      45.296   5.275  13.007  0.00  0.00    +0.000 A 
BRANCH   5   8
ATOM      8  C   UNL     1      44.104   2.758  10.400  0.00  0.00    +0.000 C 
BRANCH   8   9
ATOM      9  C   UNL     1      44.423   2.527   8.921  0.00  0.00    +0.000 C 
BRANCH   9  10
ATOM     10  O   UNL     1      45.710   1.910   8.773  0.00  0.00    +0.000 OA
BRANCH  10  11
ATOM     11  C   UNL     1      46.359   2.282   7.650  0.00  0.00    +0.000 C 
ATOM     12  N   UNL     1      46.005   3.255   6.866  0.00  0.00    +0.000 NA
ATOM     13  C   UNL     1      46.979   3.165   5.744  0.00  0.00    +0.000 C 
ATOM     14  C   UNL     1      47.923   1.990   6.051  0.00  0.00    +0.000 C 
ATOM     15  N   UNL     1      47.450   1.543   7.337  0.00  0.00    +0.000 N 
ATOM     16  H   UNL     1      47.358   0.551   7.510  0.00  0.00    +0.000 HD
ENDBRANCH  10  11
ENDBRANCH   9  10
ENDBRANCH   8   9
ENDBRANCH   5   8
ENDBRANCH   1   2
BRANCH   1  19
ATOM     17  O   UNL     1      48.957   6.192  13.314  0.00  0.00    +0.000 OA
ATOM     18  C   UNL     1      48.309   6.607  14.271  0.00  0.00    +0.000 C 
ATOM     19  N   UNL     1      47.079   7.193  14.135  0.00  0.00    +0.000 N 
ATOM     20  H   UNL     1      46.673   7.682  14.924  0.00  0.00    +0.000 HD
BRANCH  18  21
ATOM     21  C   UNL     1      48.798   6.457  15.647  0.00  0.00    +0.000 A 
ATOM     22  C   UNL     1      49.703   7.374  16.163  0.00  0.00    +0.000 A 
ATOM     23  S   UNL     1      50.179   7.039  17.766  0.00  0.00    +0.000 S 
ATOM     24  C   UNL     1      49.156   5.682  17.844  0.00  0.00    +0.000 A 
ATOM     25  N   UNL     1      49.059   4.943  18.981  0.00  0.00    +0.000 NA
ATOM     26  C   UNL     1      48.212   3.971  18.915  0.00  0.00    +0.000 A 
ATOM     27  N   UNL     1      47.466   3.659  17.810  0.00  0.00    +0.000 N 
ATOM     28  C   UNL     1      47.593   4.324  16.614  0.00  0.00    +0.000 A 
ATOM     29  O   UNL     1      47.020   3.924  15.606  0.00  0.00    +0.000 OA
ATOM     30  C   UNL     1      48.488   5.465  16.651  0.00  0.00    +0.000 A 
ATOM     31  H   UNL     1      46.848   2.862  17.810  0.00  0.00    +0.000 HD
ENDBRANCH  18  21
ENDBRANCH   1  19
TORSDOF 7
ENDMDL
MODEL 2
REMARK VINA RESULT:    -7.570      0.964      1.501
REMARK INTER + INTRA:         -11.560
REMARK INTER:                 -10.536
REMARK INTRA:                  -1.024
REMARK UNBOUND:                -0.892
REMARK  Name = 
REMARK  7 active torsions:
REMARK  status: ('A' for Active; 'I' for Inactive)
REMARK    1  A    between atoms: C_2  and  C_19
REMARK    2  A    between atoms: N_3  and  C_4
REMARK    3  A    between atoms: C_4  and  C_5
REMARK    4  A    between atoms: C_8  and  C_9
REMARK    5  A    between atoms: C_9  and  C_10
REMARK    6  A    between atoms: C_10  and  O_11
REMARK    7  A    between atoms: O_11  and  C_12
REMARK                            x       y       z     vdW  Elec       q    Type
REMARK                         _______ _______ _______ _____ _____    ______ ____
ROOT
ATOM      1  C   UNL     1      47.364   7.311  13.371  0.00  0.00    +0.000 C 
ENDROOT
BRANCH   1   2
ATOM      2  C   UNL     1      46.497   6.266  12.720  0.00  0.00    +0.000 A 
ATOM      3  C   UNL     1      46.090   5.150  13.454  0.00  0.00    +0.000 A 
ATOM      4  C   UNL     1      45.284   4.170  12.872  0.00  0.00    +0.000 A 
ATOM      5  C   UNL     1      44.872   4.272  11.536  0.00  0.00    +0.000 A 
ATOM      6  C   UNL     1      45.304   5.383  10.795  0.00  0.00    +0.000 A 
ATOM      7  C   UNL     1      46.113   6.366  11.377  0.00  0.00    +0.000 A 
BRANCH   5   8
ATOM      8  C   UNL     1      43.984   3.241  10.866  0.00  0.00    +0.000 C 
BRANCH   8   9
ATOM      9  C   UNL     1      44.250   3.020   9.375  0.00  0.00    +0.000 C 
BRANCH   9  10
ATOM     10  O   UNL     1      44.851   1.736   9.154  0.00  0.00    +0.000 OA
BRANCH  10  11
ATOM     11  C   UNL     1      45.880   1.766   8.281  0.00  0.00    +0.000 C 
ATOM     12  N   UNL     1      46.629   0.752   7.969  0.00  0.00    +0.000 NA
ATOM     13  C   UNL     1      47.655   1.346   7.069  0.00  0.00    +0.000 C 
ATOM     14  C   UNL     1      47.336   2.845   6.938  0.00  0.00    +0.000 C 
ATOM     15  N   UNL     1      46.133   2.974   7.723  0.00  0.00    +0.000 N 
ATOM     16  H   UNL     1      46.035   3.762   8.349  0.00  0.00    +0.000 HD
ENDBRANCH  10  11
ENDBRANCH   9  10
ENDBRANCH   8   9
ENDBRANCH   5   8
ENDBRANCH   1   2
BRANCH   1  19
ATOM     17  O   UNL     1      49.955   7.061  14.467  0.00  0.00    +0.000 OA
ATOM     18  C   UNL     1      48.978   6.905  15.194  0.00  0.00    +0.000 C 
ATOM     19  N   UNL     1      47.692   6.944  14.726  0.00  0.00    +0.000 N 
ATOM     20  H   UNL     1      46.925   6.997  15.388  0.00  0.00    +0.000 HD
BRANCH  18  21
ATOM     21  C   UNL     1      49.130   6.616  16.626  0.00  0.00    +0.000 A 
ATOM     22  C   UNL     1      49.652   7.582  17.474  0.00  0.00    +0.000 A 
ATOM     23  S   UNL     1      49.776   7.073  19.097  0.00  0.00    +0.000 S 
ATOM     24  C   UNL     1      49.093   5.559  18.731  0.00  0.00    +0.000 A 
ATOM     25  N   UNL     1      48.882   4.633  19.705  0.00  0.00    +0.000 NA
ATOM     26  C   UNL     1      48.316   3.548  19.295  0.00  0.00    +0.000 A 
ATOM     27  N   UNL     1      47.956   3.296  17.998  0.00  0.00    +0.000 N 
ATOM     28  C   UNL     1      48.226   4.166  16.969  0.00  0.00    +0.000 A 
ATOM     29  O   UNL     1      48.025   3.845  15.802  0.00  0.00    +0.000 OA
ATOM     30  C   UNL     1      48.808   5.429  17.383  0.00  0.00    +0.000 A 
ATOM     31  H   UNL     1      47.550   2.411  17.735  0.00  0.00    +0.000 HD
ENDBRANCH  18  21
ENDBRANCH   1  19
TORSDOF 7
ENDMDL
MODEL 3
REMARK VINA RESULT:    -7.288      2.576      3.323
REMARK INTER + INTRA:         -11.163
REMARK INTER:                 -10.270
REMARK INTRA:                  -0.893
REMARK UNBOUND:                -0.892
REMARK  Name = 
REMARK  7 active torsions:
REMARK  status: ('A' for Active; 'I' for Inactive)
REMARK    1  A    between atoms: C_2  and  C_19
REMARK    2  A    between atoms: N_3  and  C_4
REMARK    3  A    between atoms: C_4  and  C_5
REMARK    4  A    between atoms: C_8  and  C_9
REMARK    5  A    between atoms: C_9  and  C_10
REMARK    6  A    between atoms: C_10  and  O_11
REMARK    7  A    between atoms: O_11  and  C_12
REMARK                            x       y       z     vdW  Elec       q    Type
REMARK                         _______ _______ _______ _____ _____    ______ ____
ROOT
ATOM      1  C   UNL     1      46.782   4.362  15.815  0.00  0.00    +0.000 C 
ENDROOT
BRANCH   1   2
ATOM      2  C   UNL     1      46.586   4.764  14.378  0.00  0.00    +0.000 A 
ATOM      3  C   UNL     1      47.355   5.796  13.837  0.00  0.00    +0.000 A 
ATOM      4  C   UNL     1      47.192   6.184  12.506  0.00  0.00    +0.000 A 
ATOM      5  C   UNL     1      46.247   5.559  11.681  0.00  0.00    +0.000 A 
ATOM      6  C   UNL     1      45.459   4.539  12.236  0.00  0.00    +0.000 A 
ATOM      7  C   UNL     1      45.620   4.150  13.571  0.00  0.00    +0.000 A 
BRANCH   5   8
ATOM      8  C   UNL     1      46.045   5.936  10.226  0.00  0.00    +0.000 C 
BRANCH   8   9
ATOM      9  C   UNL     1      45.366   4.870   9.363  0.00  0.00    +0.000 C 
BRANCH   9  10
ATOM     10  O   UNL     1      45.974   4.807   8.065  0.00  0.00    +0.000 OA
BRANCH  10  11
ATOM     11  C   UNL     1      46.397   3.571   7.728  0.00  0.00    +0.000 C 
ATOM     12  N   UNL     1      45.900   2.459   8.180  0.00  0.00    +0.000 NA
ATOM     13  C   UNL     1      46.785   1.420   7.585  0.00  0.00    +0.000 C 
ATOM     14  C   UNL     1      47.836   2.149   6.731  0.00  0.00    +0.000 C 
ATOM     15  N   UNL     1      47.438   3.528   6.863  0.00  0.00    +0.000 N 
ATOM     16  H   UNL     1      48.147   4.234   7.013  0.00  0.00    +0.000 HD
ENDBRANCH  10  11
ENDBRANCH   9  10
ENDBRANCH   8   9
ENDBRANCH   5   8
ENDBRANCH   1   2
BRANCH   1  19
ATOM     17  O   UNL     1      48.018   5.356  18.152  0.00  0.00    +0.000 OA
ATOM     18  C   UNL     1      48.692   4.737  17.333  0.00  0.00    +0.000 C 
ATOM     19  N   UNL     1      48.183   4.282  16.147  0.00  0.00    +0.000 N 
ATOM     20  H   UNL     1      48.722   3.622  15.596  0.00  0.00    +0.000 HD
BRANCH  18  21
ATOM     21  C   UNL     1      50.121   4.483  17.556  0.00  0.00    +0.000 A 
ATOM     22  C   UNL     1      50.956   5.522  17.941  0.00  0.00    +0.000 A 
ATOM     23  S   UNL     1      52.585   5.055  18.138  0.00  0.00    +0.000 S 
ATOM     24  C   UNL     1      52.223   3.437  17.761  0.00  0.00    +0.000 A 
ATOM     25  N   UNL     1      53.190   2.481  17.781  0.00  0.00    +0.000 NA
ATOM     26  C   UNL     1      52.768   1.289  17.519  0.00  0.00    +0.000 A 
ATOM     27  N   UNL     1      51.469   0.968  17.224  0.00  0.00    +0.000 N 
ATOM     28  C   UNL     1      50.477   1.911  17.110  0.00  0.00    +0.000 A 
ATOM     29  O   UNL     1      49.361   1.607  16.699  0.00  0.00    +0.000 OA
ATOM     30  C   UNL     1      50.885   3.261  17.453  0.00  0.00    +0.000 A 
ATOM     31  H   UNL     1      51.209   0.021  16.992  0.00  0.00    +0.000 HD
ENDBRANCH  18  21
ENDBRANCH   1  19
TORSDOF 7
ENDMDL
MODEL 4
REMARK VINA RESULT:    -7.137      2.393      3.048
REMARK INTER + INTRA:         -10.950
REMARK INTER:                  -9.973
REMARK INTRA:                  -0.977
REMARK UNBOUND:                -0.892
REMARK  Name = 
REMARK  7 active torsions:
REMARK  status: ('A' for Active; 'I' for Inactive)
REMARK    1  A    between atoms: C_2  and  C_19
REMARK    2  A    between atoms: N_3  and  C_4
REMARK    3  A    between atoms: C_4  and  C_5
REMARK    4  A    between atoms: C_8  and  C_9
REMARK    5  A    between atoms: C_9  and  C_10
REMARK    6  A    between atoms: C_10  and  O_11
REMARK    7  A    between atoms: O_11  and  C_12
REMARK                            x       y       z     vdW  Elec       q    Type
REMARK                         _______ _______ _______ _____ _____    ______ ____
ROOT
ATOM      1  C   UNL     1      48.366   6.780  13.805  0.00  0.00    +0.000 C 
ENDROOT
BRANCH   1   2
ATOM      2  C   UNL     1      47.252   6.116  13.041  0.00  0.00    +0.000 A 
ATOM      3  C   UNL     1      46.624   4.989  13.574  0.00  0.00    +0.000 A 
ATOM      4  C   UNL     1      45.587   4.357  12.885  0.00  0.00    +0.000 A 
ATOM      5  C   UNL     1      45.156   4.829  11.637  0.00  0.00    +0.000 A 
ATOM      6  C   UNL     1      45.807   5.947  11.093  0.00  0.00    +0.000 A 
ATOM      7  C   UNL     1      46.847   6.580  11.783  0.00  0.00    +0.000 A 
BRANCH   5   8
ATOM      8  C   UNL     1      44.024   4.186  10.858  0.00  0.00    +0.000 C 
BRANCH   8   9
ATOM      9  C   UNL     1      44.427   2.998   9.981  0.00  0.00    +0.000 C 
BRANCH   9  10
ATOM     10  O   UNL     1      44.503   3.391   8.603  0.00  0.00    +0.000 OA
BRANCH  10  11
ATOM     11  C   UNL     1      45.663   3.043   8.008  0.00  0.00    +0.000 C 
ATOM     12  N   UNL     1      46.401   3.831   7.285  0.00  0.00    +0.000 NA
ATOM     13  C   UNL     1      47.481   2.934   6.792  0.00  0.00    +0.000 C 
ATOM     14  C   UNL     1      47.213   1.534   7.370  0.00  0.00    +0.000 C 
ATOM     15  N   UNL     1      46.043   1.755   8.183  0.00  0.00    +0.000 N 
ATOM     16  H   UNL     1      45.290   1.081   8.158  0.00  0.00    +0.000 HD
ENDBRANCH  10  11
ENDBRANCH   9  10
ENDBRANCH   8   9
ENDBRANCH   5   8
ENDBRANCH   1   2
BRANCH   1  19
ATOM     17  O   UNL     1      50.234   6.258  15.857  0.00  0.00    +0.000 OA
ATOM     18  C   UNL     1      49.083   6.565  16.157  0.00  0.00    +0.000 C 
ATOM     19  N   UNL     1      48.104   6.768  15.223  0.00  0.00    +0.000 N 
ATOM     20  H   UNL     1      47.230   7.198  15.506  0.00  0.00    +0.000 HD
BRANCH  18  21
ATOM     21  C   UNL     1      48.667   6.689  17.560  0.00  0.00    +0.000 A 
ATOM     22  C   UNL     1      48.752   5.593  18.406  0.00  0.00    +0.000 A 
ATOM     23  S   UNL     1      48.211   5.908  19.992  0.00  0.00    +0.000 S 
ATOM     24  C   UNL     1      47.888   7.536  19.616  0.00  0.00    +0.000 A 
ATOM     25  N   UNL     1      47.423   8.393  20.564  0.00  0.00    +0.000 NA
ATOM     26  C   UNL     1      47.265   9.607  20.153  0.00  0.00    +0.000 A 
ATOM     27  N   UNL     1      47.514  10.039  18.878  0.00  0.00    +0.000 N 
ATOM     28  C   UNL     1      47.903   9.192  17.868  0.00  0.00    +0.000 A 
ATOM     29  O   UNL     1      47.972   9.583  16.707  0.00  0.00    +0.000 OA
ATOM     30  C   UNL     1      48.154   7.826  18.289  0.00  0.00    +0.000 A 
ATOM     31  H   UNL     1      47.335  10.994  18.610  0.00  0.00    +0.000 HD
ENDBRANCH  18  21
ENDBRANCH   1  19
TORSDOF 7
ENDMDL
MODEL 5
REMARK VINA RESULT:    -7.100      4.700      9.183
REMARK INTER + INTRA:         -10.898
REMARK INTER:                 -10.151
REMARK INTRA:                  -0.747
REMARK UNBOUND:                -0.892
REMARK  Name = 
REMARK  7 active torsions:
REMARK  status: ('A' for Active; 'I' for Inactive)
REMARK    1  A    between atoms: C_2  and  C_19
REMARK    2  A    between atoms: N_3  and  C_4
REMARK    3  A    between atoms: C_4  and  C_5
REMARK    4  A    between atoms: C_8  and  C_9
REMARK    5  A    between atoms: C_9  and  C_10
REMARK    6  A    between atoms: C_10  and  O_11
REMARK    7  A    between atoms: O_11  and  C_12
REMARK                            x       y       z     vdW  Elec       q    Type
REMARK                         _______ _______ _______ _____ _____    ______ ____
ROOT
ATOM      1  C   UNL     1      47.166   3.416  16.858  0.00  0.00    +0.000 C 
ENDROOT
BRANCH   1   2
ATOM      2  C   UNL     1      48.643   3.384  17.145  0.00  0.00    +0.000 A 
ATOM      3  C   UNL     1      49.294   4.550  17.552  0.00  0.00    +0.000 A 
ATOM      4  C   UNL     1      50.663   4.544  17.826  0.00  0.00    +0.000 A 
ATOM      5  C   UNL     1      51.422   3.373  17.690  0.00  0.00    +0.000 A 
ATOM      6  C   UNL     1      50.769   2.209  17.257  0.00  0.00    +0.000 A 
ATOM      7  C   UNL     1      49.396   2.215  16.981  0.00  0.00    +0.000 A 
BRANCH   5   8
ATOM      8  C   UNL     1      52.908   3.314  17.991  0.00  0.00    +0.000 C 
BRANCH   8   9
ATOM      9  C   UNL     1      53.586   1.980  17.670  0.00  0.00    +0.000 C 
BRANCH   9  10
ATOM     10  O   UNL     1      53.526   1.098  18.800  0.00  0.00    +0.000 OA
BRANCH  10  11
ATOM     11  C   UNL     1      54.137  -0.087  18.591  0.00  0.00    +0.000 C 
ATOM     12  N   UNL     1      54.789  -0.764  19.488  0.00  0.00    +0.000 NA
ATOM     13  C   UNL     1      55.342  -1.911  18.718  0.00  0.00    +0.000 C 
ATOM     14  C   UNL     1      54.879  -1.751  17.260  0.00  0.00    +0.000 C 
ATOM     15  N   UNL     1      54.062  -0.565  17.326  0.00  0.00    +0.000 N 
ATOM     16  H   UNL     1      54.147   0.134  16.600  0.00  0.00    +0.000 HD
ENDBRANCH  10  11
ENDBRANCH   9  10
ENDBRANCH   8   9
ENDBRANCH   5   8
ENDBRANCH   1   2
BRANCH   1  19
ATOM     17  O   UNL     1      47.266   3.041  14.061  0.00  0.00    +0.000 OA
ATOM     18  C   UNL     1      46.868   4.114  14.509  0.00  0.00    +0.000 C 
ATOM     19  N   UNL     1      46.853   4.397  15.848  0.00  0.00    +0.000 N 
ATOM     20  H   UNL     1      46.347   5.212  16.177  0.00  0.00    +0.000 HD
BRANCH  18  21
ATOM     21  C   UNL     1      46.422   5.194  13.621  0.00  0.00    +0.000 A 
ATOM     22  C   UNL     1      47.265   6.264  13.355  0.00  0.00    +0.000 A 
ATOM     23  S   UNL     1      46.581   7.434  12.321  0.00  0.00    +0.000 S 
ATOM     24  C   UNL     1      45.150   6.529  12.153  0.00  0.00    +0.000 A 
ATOM     25  N   UNL     1      44.139   6.962  11.354  0.00  0.00    +0.000 NA
ATOM     26  C   UNL     1      43.133   6.156  11.283  0.00  0.00    +0.000 A 
ATOM     27  N   UNL     1      43.039   4.964  11.952  0.00  0.00    +0.000 N 
ATOM     28  C   UNL     1      43.998   4.528  12.833  0.00  0.00    +0.000 A 
ATOM     29  O   UNL     1      43.812   3.531  13.525  0.00  0.00    +0.000 OA
ATOM     30  C   UNL     1      45.179   5.368  12.905  0.00  0.00    +0.000 A 
ATOM     31  H   UNL     1      42.208   4.396  11.883  0.00  0.00    +0.000 HD
ENDBRANCH  18  21
ENDBRANCH   1  19
TORSDOF 7
ENDMDL
MODEL 6
REMARK VINA RESULT:    -7.014      2.249      2.824
REMARK INTER + INTRA:         -10.776
REMARK INTER:                  -9.984
REMARK INTRA:                  -0.792
REMARK UNBOUND:                -0.892
REMARK  Name = 
REMARK  7 active torsions:
REMARK  status: ('A' for Active; 'I' for Inactive)
REMARK    1  A    between atoms: C_2  and  C_19
REMARK    2  A    between atoms: N_3  and  C_4
REMARK    3  A    between atoms: C_4  and  C_5
REMARK    4  A    between atoms: C_8  and  C_9
REMARK    5  A    between atoms: C_9  and  C_10
REMARK    6  A    between atoms: C_10  and  O_11
REMARK    7  A    between atoms: O_11  and  C_12
REMARK                            x       y       z     vdW  Elec       q    Type
REMARK                         _______ _______ _______ _____ _____    ______ ____
ROOT
ATOM      1  C   UNL     1      47.378   4.011  15.066  0.00  0.00    +0.000 C 
ENDROOT
BRANCH   1   2
ATOM      2  C   UNL     1      46.621   4.288  13.795  0.00  0.00    +0.000 A 
ATOM      3  C   UNL     1      46.508   5.599  13.328  0.00  0.00    +0.000 A 
ATOM      4  C   UNL     1      45.813   5.879  12.150  0.00  0.00    +0.000 A 
ATOM      5  C   UNL     1      45.202   4.857  11.411  0.00  0.00    +0.000 A 
ATOM      6  C   UNL     1      45.296   3.544  11.897  0.00  0.00    +0.000 A 
ATOM      7  C   UNL     1      45.992   3.262  13.078  0.00  0.00    +0.000 A 
BRANCH   5   8
ATOM      8  C   UNL     1      44.449   5.110  10.118  0.00  0.00    +0.000 C 
BRANCH   8   9
ATOM      9  C   UNL     1      44.549   3.996   9.075  0.00  0.00    +0.000 C 
BRANCH   9  10
ATOM     10  O   UNL     1      45.502   4.339   8.058  0.00  0.00    +0.000 OA
BRANCH  10  11
ATOM     11  C   UNL     1      46.233   3.289   7.629  0.00  0.00    +0.000 C 
ATOM     12  N   UNL     1      46.074   2.058   8.012  0.00  0.00    +0.000 NA
ATOM     13  C   UNL     1      47.186   1.340   7.331  0.00  0.00    +0.000 C 
ATOM     14  C   UNL     1      47.969   2.380   6.511  0.00  0.00    +0.000 C 
ATOM     15  N   UNL     1      47.215   3.587   6.745  0.00  0.00    +0.000 N 
ATOM     16  H   UNL     1      47.710   4.449   6.931  0.00  0.00    +0.000 HD
ENDBRANCH  10  11
ENDBRANCH   9  10
ENDBRANCH   8   9
ENDBRANCH   5   8
ENDBRANCH   1   2
BRANCH   1  19
ATOM     17  O   UNL     1      49.598   4.831  16.607  0.00  0.00    +0.000 OA
ATOM     18  C   UNL     1      48.603   5.550  16.557  0.00  0.00    +0.000 C 
ATOM     19  N   UNL     1      47.464   5.193  15.888  0.00  0.00    +0.000 N 
ATOM     20  H   UNL     1      46.749   5.891  15.719  0.00  0.00    +0.000 HD
BRANCH  18  21
ATOM     21  C   UNL     1      48.556   6.837  17.261  0.00  0.00    +0.000 A 
ATOM     22  C   UNL     1      48.832   8.012  16.576  0.00  0.00    +0.000 A 
ATOM     23  S   UNL     1      48.749   9.409  17.550  0.00  0.00    +0.000 S 
ATOM     24  C   UNL     1      48.295   8.498  18.913  0.00  0.00    +0.000 A 
ATOM     25  N   UNL     1      48.030   9.103  20.102  0.00  0.00    +0.000 NA
ATOM     26  C   UNL     1      47.652   8.297  21.038  0.00  0.00    +0.000 A 
ATOM     27  N   UNL     1      47.532   6.940  20.898  0.00  0.00    +0.000 N 
ATOM     28  C   UNL     1      47.869   6.278  19.743  0.00  0.00    +0.000 A 
ATOM     29  O   UNL     1      47.891   5.052  19.701  0.00  0.00    +0.000 OA
ATOM     30  C   UNL     1      48.243   7.142  18.639  0.00  0.00    +0.000 A 
ATOM     31  H   UNL     1      47.267   6.360  21.680  0.00  0.00    +0.000 HD
ENDBRANCH  18  21
ENDBRANCH   1  19
TORSDOF 7
ENDMDL
MODEL 7
REMARK VINA RESULT:    -6.986      2.057      3.334
REMARK INTER + INTRA:         -10.736
REMARK INTER:                  -9.742
REMARK INTRA:                  -0.994
REMARK UNBOUND:                -0.892
REMARK  Name = 
REMARK  7 active torsions:
REMARK  status: ('A' for Active; 'I' for Inactive)
REMARK    1  A    between atoms: C_2  and  C_19
REMARK    2  A    between atoms: N_3  and  C_4
REMARK    3  A    between atoms: C_4  and  C_5
REMARK    4  A    between atoms: C_8  and  C_9
REMARK    5  A    between atoms: C_9  and  C_10
REMARK    6  A    between atoms: C_10  and  O_11
REMARK    7  A    between atoms: O_11  and  C_12
REMARK                            x       y       z     vdW  Elec       q    Type
REMARK                         _______ _______ _______ _____ _____    ______ ____
ROOT
ATOM      1  C   UNL     1      47.360   3.988  15.049  0.00  0.00    +0.000 C 
ENDROOT
BRANCH   1   2
ATOM      2  C   UNL     1      46.601   4.272  13.781  0.00  0.00    +0.000 A 
ATOM      3  C   UNL     1      46.503   5.584  13.312  0.00  0.00    +0.000 A 
ATOM      4  C   UNL     1      45.805   5.871  12.137  0.00  0.00    +0.000 A 
ATOM      5  C   UNL     1      45.177   4.855  11.403  0.00  0.00    +0.000 A 
ATOM      6  C   UNL     1      45.257   3.542  11.890  0.00  0.00    +0.000 A 
ATOM      7  C   UNL     1      45.955   3.253  13.069  0.00  0.00    +0.000 A 
BRANCH   5   8
ATOM      8  C   UNL     1      44.422   5.117  10.113  0.00  0.00    +0.000 C 
BRANCH   8   9
ATOM      9  C   UNL     1      44.519   4.008   9.063  0.00  0.00    +0.000 C 
BRANCH   9  10
ATOM     10  O   UNL     1      45.473   4.354   8.049  0.00  0.00    +0.000 OA
BRANCH  10  11
ATOM     11  C   UNL     1      46.217   3.309   7.629  0.00  0.00    +0.000 C 
ATOM     12  N   UNL     1      46.080   2.082   8.032  0.00  0.00    +0.000 NA
ATOM     13  C   UNL     1      47.197   1.371   7.353  0.00  0.00    +0.000 C 
ATOM     14  C   UNL     1      47.957   2.410   6.511  0.00  0.00    +0.000 C 
ATOM     15  N   UNL     1      47.187   3.609   6.733  0.00  0.00    +0.000 N 
ATOM     16  H   UNL     1      47.670   4.481   6.902  0.00  0.00    +0.000 HD
ENDBRANCH  10  11
ENDBRANCH   9  10
ENDBRANCH   8   9
ENDBRANCH   5   8
ENDBRANCH   1   2
BRANCH   1  19
ATOM     17  O   UNL     1      49.519   4.639  16.750  0.00  0.00    +0.000 OA
ATOM     18  C   UNL     1      48.603   5.445  16.607  0.00  0.00    +0.000 C 
ATOM     19  N   UNL     1      47.491   5.177  15.854  0.00  0.00    +0.000 N 
ATOM     20  H   UNL     1      46.860   5.934  15.616  0.00  0.00    +0.000 HD
BRANCH  18  21
ATOM     21  C   UNL     1      48.620   6.748  17.283  0.00  0.00    +0.000 A 
ATOM     22  C   UNL     1      48.531   6.811  18.666  0.00  0.00    +0.000 A 
ATOM     23  S   UNL     1      48.547   8.401  19.282  0.00  0.00    +0.000 S 
ATOM     24  C   UNL     1      48.721   9.061  17.724  0.00  0.00    +0.000 A 
ATOM     25  N   UNL     1      48.833  10.404  17.542  0.00  0.00    +0.000 NA
ATOM     26  C   UNL     1      49.005  10.763  16.314  0.00  0.00    +0.000 A 
ATOM     27  N   UNL     1      49.060   9.903  15.249  0.00  0.00    +0.000 N 
ATOM     28  C   UNL     1      48.868   8.549  15.375  0.00  0.00    +0.000 A 
ATOM     29  O   UNL     1      48.774   7.829  14.386  0.00  0.00    +0.000 OA
ATOM     30  C   UNL     1      48.730   8.084  16.743  0.00  0.00    +0.000 A 
ATOM     31  H   UNL     1      49.160  10.250  14.307  0.00  0.00    +0.000 HD
ENDBRANCH  18  21
ENDBRANCH   1  19
TORSDOF 7
ENDMDL
MODEL 8
REMARK VINA RESULT:    -6.582      2.207      3.233
REMARK INTER + INTRA:         -10.168
REMARK INTER:                  -9.003
REMARK INTRA:                  -1.165
REMARK UNBOUND:                -0.892
REMARK  Name = 
REMARK  7 active torsions:
REMARK  status: ('A' for Active; 'I' for Inactive)
REMARK    1  A    between atoms: C_2  and  C_19
REMARK    2  A    between atoms: N_3  and  C_4
REMARK    3  A    between atoms: C_4  and  C_5
REMARK    4  A    between atoms: C_8  and  C_9
REMARK    5  A    between atoms: C_9  and  C_10
REMARK    6  A    between atoms: C_10  and  O_11
REMARK    7  A    between atoms: O_11  and  C_12
REMARK                            x       y       z     vdW  Elec       q    Type
REMARK                         _______ _______ _______ _____ _____    ______ ____
ROOT
ATOM      1  C   UNL     1      49.608   8.140  13.856  0.00  0.00    +0.000 C 
ENDROOT
BRANCH   1   2
ATOM      2  C   UNL     1      48.276   7.869  13.210  0.00  0.00    +0.000 A 
ATOM      3  C   UNL     1      48.101   6.717  12.441  0.00  0.00    +0.000 A 
ATOM      4  C   UNL     1      46.873   6.445  11.834  0.00  0.00    +0.000 A 
ATOM      5  C   UNL     1      45.789   7.323  11.970  0.00  0.00    +0.000 A 
ATOM      6  C   UNL     1      45.976   8.492  12.723  0.00  0.00    +0.000 A 
ATOM      7  C   UNL     1      47.207   8.766  13.331  0.00  0.00    +0.000 A 
BRANCH   5   8
ATOM      8  C   UNL     1      44.433   7.061  11.343  0.00  0.00    +0.000 C 
BRANCH   8   9
ATOM      9  C   UNL     1      43.756   5.757  11.769  0.00  0.00    +0.000 C 
BRANCH   9  10
ATOM     10  O   UNL     1      43.008   5.196  10.681  0.00  0.00    +0.000 OA
BRANCH  10  11
ATOM     11  C   UNL     1      43.659   4.208  10.033  0.00  0.00    +0.000 C 
ATOM     12  N   UNL     1      43.902   3.027  10.516  0.00  0.00    +0.000 NA
ATOM     13  C   UNL     1      44.724   2.383   9.455  0.00  0.00    +0.000 C 
ATOM     14  C   UNL     1      44.881   3.404   8.315  0.00  0.00    +0.000 C 
ATOM     15  N   UNL     1      44.098   4.518   8.789  0.00  0.00    +0.000 N 
ATOM     16  H   UNL     1      44.462   5.455   8.686  0.00  0.00    +0.000 HD
ENDBRANCH  10  11
ENDBRANCH   9  10
ENDBRANCH   8   9
ENDBRANCH   5   8
ENDBRANCH   1   2
BRANCH   1  19
ATOM     17  O   UNL     1      48.827   9.001  16.430  0.00  0.00    +0.000 OA
ATOM     18  C   UNL     1      49.285   7.870  16.289  0.00  0.00    +0.000 C 
ATOM     19  N   UNL     1      49.747   7.403  15.088  0.00  0.00    +0.000 N 
ATOM     20  H   UNL     1      49.939   6.413  14.982  0.00  0.00    +0.000 HD
BRANCH  18  21
ATOM     21  C   UNL     1      49.411   6.950  17.426  0.00  0.00    +0.000 A 
ATOM     22  C   UNL     1      50.043   7.370  18.588  0.00  0.00    +0.000 A 
ATOM     23  S   UNL     1      50.118   6.170  19.798  0.00  0.00    +0.000 S 
ATOM     24  C   UNL     1      49.266   5.062  18.829  0.00  0.00    +0.000 A 
ATOM     25  N   UNL     1      48.957   3.821  19.292  0.00  0.00    +0.000 NA
ATOM     26  C   UNL     1      48.270   3.101  18.470  0.00  0.00    +0.000 A 
ATOM     27  N   UNL     1      47.877   3.502  17.221  0.00  0.00    +0.000 N 
ATOM     28  C   UNL     1      48.238   4.712  16.680  0.00  0.00    +0.000 A 
ATOM     29  O   UNL     1      47.996   4.977  15.506  0.00  0.00    +0.000 OA
ATOM     30  C   UNL     1      48.961   5.586  17.585  0.00  0.00    +0.000 A 
ATOM     31  H   UNL     1      47.372   2.878  16.611  0.00  0.00    +0.000 HD
ENDBRANCH  18  21
ENDBRANCH   1  19
TORSDOF 7
ENDMDL
