MODEL 1
REMARK VINA RESULT:    -9.182      0.000      0.000
REMARK INTER + INTRA:         -13.635
REMARK INTER:                 -12.403
REMARK INTRA:                  -1.232
REMARK UNBOUND:                -1.232
REMARK  Name = 
REMARK  7 active torsions:
REMARK  status: ('A' for Active; 'I' for Inactive)
REMARK    1  A    between atoms: C_1  and  O_2
REMARK    2  A    between atoms: O_2  and  C_3
REMARK    3  A    between atoms: C_5  and  C_6
REMARK    4  A    between atoms: C_6  and  O_7
REMARK    5  A    between atoms: O_7  and  C_8
REMARK    6  A    between atoms: C_11  and  C_12
REMARK    7  A    between atoms: C_18  and  N_19
REMARK                            x       y       z     vdW  Elec       q    Type
REMARK                         _______ _______ _______ _____ _____    ______ ____
ROOT
ATOM      1  C   UNL     1      46.685   4.048  13.653  0.00  0.00    +0.000 A 
ATOM      2  C   UNL     1      45.530   3.657  12.977  0.00  0.00    +0.000 A 
ATOM      3  C   UNL     1      44.817   4.588  12.213  0.00  0.00    +0.000 A 
ATOM      4  C   UNL     1      45.269   5.917  12.155  0.00  0.00    +0.000 A 
ATOM      5  C   UNL     1      46.427   6.342  12.820  0.00  0.00    +0.000 A 
ATOM      6  C   UNL     1      47.123   5.376  13.558  0.00  0.00    +0.000 A 
ENDROOT
BRANCH   5   7
ATOM      7  N   UNL     1      46.810   7.672  12.779  0.00  0.00    +0.000 N 
ATOM      8  C   UNL     1      45.859   8.752  13.036  0.00  0.00    +0.000 C 
ATOM      9  C   UNL     1      46.070   9.820  11.972  0.00  0.00    +0.000 C 
ATOM     10  C   UNL     1      47.525  10.237  11.937  0.00  0.00    +0.000 C 
ATOM     11  F   UNL     1      47.713  11.118  10.918  0.00  0.00    +0.000 F 
ATOM     12  F   UNL     1      47.820  10.920  13.078  0.00  0.00    +0.000 F 
ATOM     13  C   UNL     1      48.497   9.085  11.782  0.00  0.00    +0.000 C 
ATOM     14  C   UNL     1      48.224   8.043  12.853  0.00  0.00    +0.000 C 
ENDBRANCH   5   7
BRANCH   1  16
ATOM     15  C   UNL     1      47.538   3.565  15.822  0.00  0.00    +0.000 C 
ATOM     16  O   UNL     1      47.468   3.247  14.439  0.00  0.00    +0.000 OA
ENDBRANCH   1  16
BRANCH   3  17
ATOM     17  C   UNL     1      43.555   4.191  11.487  0.00  0.00    +0.000 C 
BRANCH  17  18
ATOM     18  O   UNL     1      43.685   4.526  10.107  0.00  0.00    +0.000 OA
BRANCH  18  19
ATOM     19  C   UNL     1      44.563   3.777   9.371  0.00  0.00    +0.000 A 
ATOM     20  C   UNL     1      44.675   2.386   9.406  0.00  0.00    +0.000 A 
ATOM     21  C   UNL     1      45.617   1.737   8.600  0.00  0.00    +0.000 A 
ATOM     22  C   UNL     1      46.449   2.468   7.745  0.00  0.00    +0.000 A 
ATOM     23  C   UNL     1      46.349   3.863   7.718  0.00  0.00    +0.000 A 
ATOM     24  C   UNL     1      45.407   4.509   8.531  0.00  0.00    +0.000 A 
BRANCH  22  25
ATOM     25  C   UNL     1      47.426   1.718   6.915  0.00  0.00    +0.000 C 
ATOM     26  N   UNL     1      48.493   2.411   6.414  0.00  0.00    +0.000 N 
ATOM     27  O   UNL     1      47.271   0.532   6.653  0.00  0.00    +0.000 OA
ATOM     28  H   UNL     1      48.534   3.421   6.403  0.00  0.00    +0.000 HD
ATOM     29  H   UNL     1      49.083   1.910   5.761  0.00  0.00    +0.000 HD
ENDBRANCH  22  25
ENDBRANCH  18  19
ENDBRANCH  17  18
ENDBRANCH   3  17
TORSDOF 6
ENDMDL
MODEL 2
REMARK VINA RESULT:    -8.338      2.933      4.266
REMARK INTER + INTRA:         -12.494
REMARK INTER:                 -11.367
REMARK INTRA:                  -1.128
REMARK UNBOUND:                -1.232
REMARK  Name = 
REMARK  7 active torsions:
REMARK  status: ('A' for Active; 'I' for Inactive)
REMARK    1  A    between atoms: C_1  and  O_2
REMARK    2  A    between atoms: O_2  and  C_3
REMARK    3  A    between atoms: C_5  and  C_6
REMARK    4  A    between atoms: C_6  and  O_7
REMARK    5  A    between atoms: O_7  and  C_8
REMARK    6  A    between atoms: C_11  and  C_12
REMARK    7  A    between atoms: C_18  and  N_19
REMARK                            x       y       z     vdW  Elec       q    Type
REMARK                         _______ _______ _______ _____ _____    ______ ____
ROOT
ATOM      1  C   UNL     1      45.451   7.636  12.186  0.00  0.00    +0.000 A 
ATOM      2  C   UNL     1      44.556   6.746  11.595  0.00  0.00    +0.000 A 
ATOM      3  C   UNL     1      44.512   5.412  12.016  0.00  0.00    +0.000 A 
ATOM      4  C   UNL     1      45.392   4.983  13.024  0.00  0.00    +0.000 A 
ATOM      5  C   UNL     1      46.302   5.851  13.641  0.00  0.00    +0.000 A 
ATOM      6  C   UNL     1      46.301   7.183  13.204  0.00  0.00    +0.000 A 
ENDROOT
BRANCH   5   7
ATOM      7  N   UNL     1      47.188   5.377  14.593  0.00  0.00    +0.000 N 
ATOM      8  C   UNL     1      47.150   3.989  15.053  0.00  0.00    +0.000 C 
ATOM      9  C   UNL     1      47.266   3.997  16.570  0.00  0.00    +0.000 C 
ATOM     10  C   UNL     1      48.489   4.782  16.992  0.00  0.00    +0.000 C 
ATOM     11  F   UNL     1      48.523   4.862  18.349  0.00  0.00    +0.000 F 
ATOM     12  F   UNL     1      49.607   4.093  16.632  0.00  0.00    +0.000 F 
ATOM     13  C   UNL     1      48.561   6.181  16.412  0.00  0.00    +0.000 C 
ATOM     14  C   UNL     1      48.416   6.111  14.902  0.00  0.00    +0.000 C 
ENDBRANCH   5   7
BRANCH   1  16
ATOM     15  C   UNL     1      44.508   9.602  11.233  0.00  0.00    +0.000 C 
ATOM     16  O   UNL     1      45.605   8.957  11.866  0.00  0.00    +0.000 OA
ENDBRANCH   1  16
BRANCH   3  17
ATOM     17  C   UNL     1      43.562   4.429  11.378  0.00  0.00    +0.000 C 
BRANCH  17  18
ATOM     18  O   UNL     1      43.615   4.580   9.961  0.00  0.00    +0.000 OA
BRANCH  18  19
ATOM     19  C   UNL     1      44.491   3.772   9.288  0.00  0.00    +0.000 A 
ATOM     20  C   UNL     1      44.584   2.386   9.418  0.00  0.00    +0.000 A 
ATOM     21  C   UNL     1      45.526   1.671   8.668  0.00  0.00    +0.000 A 
ATOM     22  C   UNL     1      46.377   2.333   7.777  0.00  0.00    +0.000 A 
ATOM     23  C   UNL     1      46.296   3.724   7.654  0.00  0.00    +0.000 A 
ATOM     24  C   UNL     1      45.354   4.435   8.411  0.00  0.00    +0.000 A 
BRANCH  22  25
ATOM     25  C   UNL     1      47.353   1.516   7.010  0.00  0.00    +0.000 C 
ATOM     26  N   UNL     1      48.469   2.148   6.534  0.00  0.00    +0.000 N 
ATOM     27  O   UNL     1      47.158   0.330   6.777  0.00  0.00    +0.000 OA
ATOM     28  H   UNL     1      48.554   3.154   6.494  0.00  0.00    +0.000 HD
ATOM     29  H   UNL     1      49.062   1.602   5.921  0.00  0.00    +0.000 HD
ENDBRANCH  22  25
ENDBRANCH  18  19
ENDBRANCH  17  18
ENDBRANCH   3  17
TORSDOF 6
ENDMDL
MODEL 3
REMARK VINA RESULT:    -8.173      3.210      4.589
REMARK INTER + INTRA:         -12.272
REMARK INTER:                 -11.386
REMARK INTRA:                  -0.886
REMARK UNBOUND:                -1.232
REMARK  Name = 
REMARK  7 active torsions:
REMARK  status: ('A' for Active; 'I' for Inactive)
REMARK    1  A    between atoms: C_1  and  O_2
REMARK    2  A    between atoms: O_2  and  C_3
REMARK    3  A    between atoms: C_5  and  C_6
REMARK    4  A    between atoms: C_6  and  O_7
REMARK    5  A    between atoms: O_7  and  C_8
REMARK    6  A    between atoms: C_11  and  C_12
REMARK    7  A    between atoms: C_18  and  N_19
REMARK                            x       y       z     vdW  Elec       q    Type
REMARK                         _______ _______ _______ _____ _____    ______ ____
ROOT
ATOM      1  C   UNL     1      47.410   6.757  12.257  0.00  0.00    +0.000 A 
ATOM      2  C   UNL     1      46.298   6.143  11.685  0.00  0.00    +0.000 A 
ATOM      3  C   UNL     1      45.621   5.133  12.379  0.00  0.00    +0.000 A 
ATOM      4  C   UNL     1      46.090   4.737  13.643  0.00  0.00    +0.000 A 
ATOM      5  C   UNL     1      47.204   5.336  14.247  0.00  0.00    +0.000 A 
ATOM      6  C   UNL     1      47.841   6.356  13.529  0.00  0.00    +0.000 A 
ENDROOT
BRANCH   5   7
ATOM      7  N   UNL     1      47.665   4.882  15.471  0.00  0.00    +0.000 N 
ATOM      8  C   UNL     1      48.354   5.768  16.408  0.00  0.00    +0.000 C 
ATOM      9  C   UNL     1      49.576   5.029  16.936  0.00  0.00    +0.000 C 
ATOM     10  C   UNL     1      49.164   3.687  17.502  0.00  0.00    +0.000 C 
ATOM     11  F   UNL     1      50.276   3.002  17.880  0.00  0.00    +0.000 F 
ATOM     12  F   UNL     1      48.446   3.886  18.642  0.00  0.00    +0.000 F 
ATOM     13  C   UNL     1      48.354   2.832  16.548  0.00  0.00    +0.000 C 
ATOM     14  C   UNL     1      47.166   3.628  16.038  0.00  0.00    +0.000 C 
ENDBRANCH   5   7
BRANCH   1  16
ATOM     15  C   UNL     1      49.491   7.909  12.175  0.00  0.00    +0.000 C 
ATOM     16  O   UNL     1      48.166   7.746  11.688  0.00  0.00    +0.000 OA
ENDBRANCH   1  16
BRANCH   3  17
ATOM     17  C   UNL     1      44.424   4.443  11.772  0.00  0.00    +0.000 C 
BRANCH  17  18
ATOM     18  O   UNL     1      44.355   4.763  10.384  0.00  0.00    +0.000 OA
BRANCH  18  19
ATOM     19  C   UNL     1      45.044   3.945   9.529  0.00  0.00    +0.000 A 
ATOM     20  C   UNL     1      45.047   2.550   9.563  0.00  0.00    +0.000 A 
ATOM     21  C   UNL     1      45.795   1.826   8.627  0.00  0.00    +0.000 A 
ATOM     22  C   UNL     1      46.538   2.488   7.643  0.00  0.00    +0.000 A 
ATOM     23  C   UNL     1      46.548   3.887   7.615  0.00  0.00    +0.000 A 
ATOM     24  C   UNL     1      45.801   4.606   8.558  0.00  0.00    +0.000 A 
BRANCH  22  25
ATOM     25  C   UNL     1      47.309   1.661   6.680  0.00  0.00    +0.000 C 
ATOM     26  N   UNL     1      48.245   2.296   5.910  0.00  0.00    +0.000 N 
ATOM     27  O   UNL     1      47.097   0.463   6.546  0.00  0.00    +0.000 OA
ATOM     28  H   UNL     1      48.286   3.301   5.815  0.00  0.00    +0.000 HD
ATOM     29  H   UNL     1      48.677   1.738   5.183  0.00  0.00    +0.000 HD
ENDBRANCH  22  25
ENDBRANCH  18  19
ENDBRANCH  17  18
ENDBRANCH   3  17
TORSDOF 6
ENDMDL
MODEL 4
REMARK VINA RESULT:    -6.823      4.233      7.845
REMARK INTER + INTRA:         -10.449
REMARK INTER:                  -9.393
REMARK INTRA:                  -1.055
REMARK UNBOUND:                -1.232
REMARK  Name = 
REMARK  7 active torsions:
REMARK  status: ('A' for Active; 'I' for Inactive)
REMARK    1  A    between atoms: C_1  and  O_2
REMARK    2  A    between atoms: O_2  and  C_3
REMARK    3  A    between atoms: C_5  and  C_6
REMARK    4  A    between atoms: C_6  and  O_7
REMARK    5  A    between atoms: O_7  and  C_8
REMARK    6  A    between atoms: C_11  and  C_12
REMARK    7  A    between atoms: C_18  and  N_19
REMARK                            x       y       z     vdW  Elec       q    Type
REMARK                         _______ _______ _______ _____ _____    ______ ____
ROOT
ATOM      1  C   UNL     1      49.079   7.728  12.629  0.00  0.00    +0.000 A 
ATOM      2  C   UNL     1      49.330   7.625  13.996  0.00  0.00    +0.000 A 
ATOM      3  C   UNL     1      48.531   6.798  14.794  0.00  0.00    +0.000 A 
ATOM      4  C   UNL     1      47.468   6.094  14.202  0.00  0.00    +0.000 A 
ATOM      5  C   UNL     1      47.191   6.174  12.831  0.00  0.00    +0.000 A 
ATOM      6  C   UNL     1      48.025   6.997  12.064  0.00  0.00    +0.000 A 
ENDROOT
BRANCH   5   7
ATOM      7  N   UNL     1      46.103   5.505  12.297  0.00  0.00    +0.000 N 
ATOM      8  C   UNL     1      45.351   4.520  13.073  0.00  0.00    +0.000 C 
ATOM      9  C   UNL     1      45.114   3.308  12.183  0.00  0.00    +0.000 C 
ATOM     10  C   UNL     1      44.464   3.738  10.884  0.00  0.00    +0.000 C 
ATOM     11  F   UNL     1      44.349   2.660  10.064  0.00  0.00    +0.000 F 
ATOM     12  F   UNL     1      43.191   4.150  11.138  0.00  0.00    +0.000 F 
ATOM     13  C   UNL     1      45.206   4.840  10.154  0.00  0.00    +0.000 C 
ATOM     14  C   UNL     1      45.434   6.009  11.097  0.00  0.00    +0.000 C 
ENDBRANCH   5   7
BRANCH   1  16
ATOM     15  C   UNL     1      49.213   9.765  11.405  0.00  0.00    +0.000 C 
ATOM     16  O   UNL     1      49.773   8.503  11.739  0.00  0.00    +0.000 OA
ENDBRANCH   1  16
BRANCH   3  17
ATOM     17  C   UNL     1      48.774   6.684  16.279  0.00  0.00    +0.000 C 
BRANCH  17  18
ATOM     18  O   UNL     1      48.210   5.463  16.753  0.00  0.00    +0.000 OA
BRANCH  18  19
ATOM     19  C   UNL     1      49.079   4.426  16.965  0.00  0.00    +0.000 A 
ATOM     20  C   UNL     1      48.779   3.071  16.824  0.00  0.00    +0.000 A 
ATOM     21  C   UNL     1      49.762   2.104  17.070  0.00  0.00    +0.000 A 
ATOM     22  C   UNL     1      51.054   2.482  17.450  0.00  0.00    +0.000 A 
ATOM     23  C   UNL     1      51.354   3.840  17.605  0.00  0.00    +0.000 A 
ATOM     24  C   UNL     1      50.366   4.803  17.362  0.00  0.00    +0.000 A 
BRANCH  22  25
ATOM     25  C   UNL     1      52.050   1.408  17.694  0.00  0.00    +0.000 C 
ATOM     26  N   UNL     1      51.580   0.196  18.120  0.00  0.00    +0.000 N 
ATOM     27  O   UNL     1      53.251   1.600  17.558  0.00  0.00    +0.000 OA
ATOM     28  H   UNL     1      50.642   0.065  18.471  0.00  0.00    +0.000 HD
ATOM     29  H   UNL     1      52.281  -0.484  18.389  0.00  0.00    +0.000 HD
ENDBRANCH  22  25
ENDBRANCH  18  19
ENDBRANCH  17  18
ENDBRANCH   3  17
TORSDOF 6
ENDMDL
MODEL 5
REMARK VINA RESULT:    -6.419      4.691      8.078
REMARK INTER + INTRA:          -9.902
REMARK INTER:                  -8.949
REMARK INTRA:                  -0.953
REMARK UNBOUND:                -1.232
REMARK  Name = 
REMARK  7 active torsions:
REMARK  status: ('A' for Active; 'I' for Inactive)
REMARK    1  A    between atoms: C_1  and  O_2
REMARK    2  A    between atoms: O_2  and  C_3
REMARK    3  A    between atoms: C_5  and  C_6
REMARK    4  A    between atoms: C_6  and  O_7
REMARK    5  A    between atoms: O_7  and  C_8
REMARK    6  A    between atoms: C_11  and  C_12
REMARK    7  A    between atoms: C_18  and  N_19
REMARK                            x       y       z     vdW  Elec       q    Type
REMARK                         _______ _______ _______ _____ _____    ______ ____
ROOT
ATOM      1  C   UNL     1      48.536   6.981  14.479  0.00  0.00    +0.000 A 
ATOM      2  C   UNL     1      48.705   6.167  15.598  0.00  0.00    +0.000 A 
ATOM      3  C   UNL     1      47.878   5.054  15.785  0.00  0.00    +0.000 A 
ATOM      4  C   UNL     1      46.869   4.783  14.845  0.00  0.00    +0.000 A 
ATOM      5  C   UNL     1      46.674   5.579  13.708  0.00  0.00    +0.000 A 
ATOM      6  C   UNL     1      47.535   6.672  13.547  0.00  0.00    +0.000 A 
ENDROOT
BRANCH   5   7
ATOM      7  N   UNL     1      45.637   5.308  12.833  0.00  0.00    +0.000 N 
ATOM      8  C   UNL     1      45.468   6.056  11.588  0.00  0.00    +0.000 C 
ATOM      9  C   UNL     1      43.996   6.418  11.457  0.00  0.00    +0.000 C 
ATOM     10  C   UNL     1      43.143   5.173  11.581  0.00  0.00    +0.000 C 
ATOM     11  F   UNL     1      41.830   5.527  11.560  0.00  0.00    +0.000 F 
ATOM     12  F   UNL     1      43.335   4.391  10.484  0.00  0.00    +0.000 F 
ATOM     13  C   UNL     1      43.416   4.356  12.828  0.00  0.00    +0.000 C 
ATOM     14  C   UNL     1      44.901   4.046  12.916  0.00  0.00    +0.000 C 
ENDBRANCH   5   7
BRANCH   1  16
ATOM     15  C   UNL     1      48.732   9.350  14.591  0.00  0.00    +0.000 C 
ATOM     16  O   UNL     1      49.265   8.099  14.178  0.00  0.00    +0.000 OA
ENDBRANCH   1  16
BRANCH   3  17
ATOM     17  C   UNL     1      48.032   4.169  16.998  0.00  0.00    +0.000 C 
BRANCH  17  18
ATOM     18  O   UNL     1      49.202   4.558  17.714  0.00  0.00    +0.000 OA
BRANCH  18  19
ATOM     19  C   UNL     1      50.245   3.671  17.716  0.00  0.00    +0.000 A 
ATOM     20  C   UNL     1      51.561   3.963  18.078  0.00  0.00    +0.000 A 
ATOM     21  C   UNL     1      52.539   2.962  18.038  0.00  0.00    +0.000 A 
ATOM     22  C   UNL     1      52.210   1.659  17.647  0.00  0.00    +0.000 A 
ATOM     23  C   UNL     1      50.895   1.367  17.271  0.00  0.00    +0.000 A 
ATOM     24  C   UNL     1      49.920   2.374  17.308  0.00  0.00    +0.000 A 
BRANCH  22  25
ATOM     25  C   UNL     1      53.294   0.644  17.628  0.00  0.00    +0.000 C 
ATOM     26  N   UNL     1      53.121  -0.479  18.391  0.00  0.00    +0.000 N 
ATOM     27  O   UNL     1      54.323   0.813  16.987  0.00  0.00    +0.000 OA
ATOM     28  H   UNL     1      52.413  -0.550  19.108  0.00  0.00    +0.000 HD
ATOM     29  H   UNL     1      53.917  -1.102  18.452  0.00  0.00    +0.000 HD
ENDBRANCH  22  25
ENDBRANCH  18  19
ENDBRANCH  17  18
ENDBRANCH   3  17
TORSDOF 6
ENDMDL
