MODEL 1
REMARK VINA RESULT:    -6.361      0.000      0.000
REMARK INTER + INTRA:          -8.324
REMARK INTER:                  -7.849
REMARK INTRA:                  -0.476
REMARK UNBOUND:                -0.476
REMARK  Name = 
REMARK  7 active torsions:
REMARK  status: ('A' for Active; 'I' for Inactive)
REMARK    1  A    between atoms: C_1  and  C_2
REMARK    2  A    between atoms: C_2  and  C_3
REMARK    3  A    between atoms: C_2  and  C_4
REMARK    4  A    between atoms: C_2  and  C_5
REMARK    5  A    between atoms: N_7  and  C_8
REMARK    6  A    between atoms: C_8  and  C_9
REMARK    7  A    between atoms: C_18  and  C_19
REMARK                            x       y       z     vdW  Elec       q    Type
REMARK                         _______ _______ _______ _____ _____    ______ ____
ROOT
ATOM      1  C   UNL     1      46.191   7.209  12.104  0.00  0.00    +0.000 A 
ATOM      2  C   UNL     1      45.415   6.768  11.047  0.00  0.00    +0.000 A 
ATOM      3  N   UNL     1      45.219   5.414  11.158  0.00  0.00    +0.000 N 
ATOM      4  C   UNL     1      45.883   4.935  12.272  0.00  0.00    +0.000 A 
ATOM      5  C   UNL     1      46.000   3.636  12.800  0.00  0.00    +0.000 A 
ATOM      6  C   UNL     1      46.716   3.460  13.993  0.00  0.00    +0.000 A 
ATOM      7  C   UNL     1      47.313   4.542  14.637  0.00  0.00    +0.000 A 
ATOM      8  C   UNL     1      47.219   5.822  14.080  0.00  0.00    +0.000 A 
ATOM      9  C   UNL     1      46.491   6.037  12.886  0.00  0.00    +0.000 A 
ENDROOT
BRANCH   1  11
ATOM     10  C   UNL     1      46.784   8.898  13.910  0.00  0.00    +0.000 C 
ATOM     11  C   UNL     1      46.615   8.649  12.394  0.00  0.00    +0.000 C 
ATOM     12  C   UNL     1      45.552   9.644  11.885  0.00  0.00    +0.000 C 
ATOM     13  C   UNL     1      47.970   8.959  11.722  0.00  0.00    +0.000 C 
ENDBRANCH   1  11
BRANCH   7  14
ATOM     14  C   UNL     1      48.018   4.357  15.878  0.00  0.00    +0.000 C 
ATOM     15  N   UNL     1      48.594   4.218  16.872  0.00  0.00    +0.000 NA
ENDBRANCH   7  14
BRANCH   3  16
ATOM     16  C   UNL     1      44.298   4.666  10.303  0.00  0.00    +0.000 C 
BRANCH  16  17
ATOM     17  C   UNL     1      44.954   3.844   9.227  0.00  0.00    +0.000 A 
ATOM     18  C   UNL     1      45.033   2.449   9.356  0.00  0.00    +0.000 A 
ATOM     19  C   UNL     1      45.807   1.707   8.466  0.00  0.00    +0.000 A 
ATOM     20  C   UNL     1      46.481   2.382   7.465  0.00  0.00    +0.000 A 
ATOM     21  N   UNL     1      46.397   3.715   7.280  0.00  0.00    +0.000 NA
ATOM     22  C   UNL     1      45.638   4.411   8.158  0.00  0.00    +0.000 A 
ENDBRANCH  16  17
ENDBRANCH   3  16
TORSDOF 4
ENDMDL
MODEL 2
REMARK VINA RESULT:    -6.082      1.468      2.202
REMARK INTER + INTRA:          -7.979
REMARK INTER:                  -7.296
REMARK INTRA:                  -0.683
REMARK UNBOUND:                -0.476
REMARK  Name = 
REMARK  7 active torsions:
REMARK  status: ('A' for Active; 'I' for Inactive)
REMARK    1  A    between atoms: C_1  and  C_2
REMARK    2  A    between atoms: C_2  and  C_3
REMARK    3  A    between atoms: C_2  and  C_4
REMARK    4  A    between atoms: C_2  and  C_5
REMARK    5  A    between atoms: N_7  and  C_8
REMARK    6  A    between atoms: C_8  and  C_9
REMARK    7  A    between atoms: C_18  and  C_19
REMARK                            x       y       z     vdW  Elec       q    Type
REMARK                         _______ _______ _______ _____ _____    ______ ____
ROOT
ATOM      1  C   UNL     1      47.812   7.649  12.572  0.00  0.00    +0.000 A 
ATOM      2  C   UNL     1      46.851   7.440  11.600  0.00  0.00    +0.000 A 
ATOM      3  N   UNL     1      46.095   6.344  11.933  0.00  0.00    +0.000 N 
ATOM      4  C   UNL     1      46.560   5.796  13.114  0.00  0.00    +0.000 A 
ATOM      5  C   UNL     1      46.138   4.673  13.851  0.00  0.00    +0.000 A 
ATOM      6  C   UNL     1      46.787   4.384  15.059  0.00  0.00    +0.000 A 
ATOM      7  C   UNL     1      47.838   5.177  15.518  0.00  0.00    +0.000 A 
ATOM      8  C   UNL     1      48.270   6.267  14.756  0.00  0.00    +0.000 A 
ATOM      9  C   UNL     1      47.627   6.597  13.539  0.00  0.00    +0.000 A 
ENDROOT
BRANCH   1  11
ATOM     10  C   UNL     1      48.634   9.785  11.464  0.00  0.00    +0.000 C 
ATOM     11  C   UNL     1      48.839   8.781  12.621  0.00  0.00    +0.000 C 
ATOM     12  C   UNL     1      50.271   8.224  12.493  0.00  0.00    +0.000 C 
ATOM     13  C   UNL     1      48.712   9.568  13.943  0.00  0.00    +0.000 C 
ENDBRANCH   1  11
BRANCH   7  14
ATOM     14  C   UNL     1      48.477   4.890  16.775  0.00  0.00    +0.000 C 
ATOM     15  N   UNL     1      48.987   4.671  17.790  0.00  0.00    +0.000 NA
ENDBRANCH   7  14
BRANCH   3  16
ATOM     16  C   UNL     1      44.883   5.957  11.210  0.00  0.00    +0.000 C 
BRANCH  16  17
ATOM     17  C   UNL     1      45.034   4.759  10.312  0.00  0.00    +0.000 A 
ATOM     18  C   UNL     1      45.654   4.889   9.060  0.00  0.00    +0.000 A 
ATOM     19  C   UNL     1      45.620   3.835   8.150  0.00  0.00    +0.000 A 
ATOM     20  C   UNL     1      44.967   2.673   8.519  0.00  0.00    +0.000 A 
ATOM     21  N   UNL     1      44.396   2.492   9.727  0.00  0.00    +0.000 NA
ATOM     22  C   UNL     1      44.445   3.531  10.593  0.00  0.00    +0.000 A 
ENDBRANCH  16  17
ENDBRANCH   3  16
TORSDOF 4
ENDMDL
MODEL 3
REMARK VINA RESULT:    -5.853      2.825      6.442
REMARK INTER + INTRA:          -7.697
REMARK INTER:                  -7.345
REMARK INTRA:                  -0.352
REMARK UNBOUND:                -0.476
REMARK  Name = 
REMARK  7 active torsions:
REMARK  status: ('A' for Active; 'I' for Inactive)
REMARK    1  A    between atoms: C_1  and  C_2
REMARK    2  A    between atoms: C_2  and  C_3
REMARK    3  A    between atoms: C_2  and  C_4
REMARK    4  A    between atoms: C_2  and  C_5
REMARK    5  A    between atoms: N_7  and  C_8
REMARK    6  A    between atoms: C_8  and  C_9
REMARK    7  A    between atoms: C_18  and  C_19
REMARK                            x       y       z     vdW  Elec       q    Type
REMARK                         _______ _______ _______ _____ _____    ______ ____
ROOT
ATOM      1  C   UNL     1      46.124   5.100  13.022  0.00  0.00    +0.000 A 
ATOM      2  C   UNL     1      46.091   4.381  14.204  0.00  0.00    +0.000 A 
ATOM      3  N   UNL     1      47.052   4.862  15.058  0.00  0.00    +0.000 N 
ATOM      4  C   UNL     1      47.753   5.884  14.447  0.00  0.00    +0.000 A 
ATOM      5  C   UNL     1      48.828   6.675  14.894  0.00  0.00    +0.000 A 
ATOM      6  C   UNL     1      49.310   7.687  14.052  0.00  0.00    +0.000 A 
ATOM      7  C   UNL     1      48.752   7.899  12.792  0.00  0.00    +0.000 A 
ATOM      8  C   UNL     1      47.709   7.080  12.347  0.00  0.00    +0.000 A 
ATOM      9  C   UNL     1      47.188   6.060  13.178  0.00  0.00    +0.000 A 
ENDROOT
BRANCH   1  11
ATOM     10  C   UNL     1      45.786   5.599  10.552  0.00  0.00    +0.000 C 
ATOM     11  C   UNL     1      45.202   4.928  11.815  0.00  0.00    +0.000 C 
ATOM     12  C   UNL     1      43.828   5.577  12.082  0.00  0.00    +0.000 C 
ATOM     13  C   UNL     1      45.006   3.431  11.494  0.00  0.00    +0.000 C 
ENDBRANCH   1  11
BRANCH   7  14
ATOM     14  C   UNL     1      49.233   8.960  11.948  0.00  0.00    +0.000 C 
ATOM     15  N   UNL     1      49.610   9.820  11.272  0.00  0.00    +0.000 NA
ENDBRANCH   7  14
BRANCH   3  16
ATOM     16  C   UNL     1      47.164   4.440  16.454  0.00  0.00    +0.000 C 
BRANCH  16  17
ATOM     17  C   UNL     1      48.346   3.561  16.761  0.00  0.00    +0.000 A 
ATOM     18  C   UNL     1      49.392   4.041  17.563  0.00  0.00    +0.000 A 
ATOM     19  C   UNL     1      50.571   3.308  17.687  0.00  0.00    +0.000 A 
ATOM     20  C   UNL     1      50.671   2.110  17.005  0.00  0.00    +0.000 A 
ATOM     21  N   UNL     1      49.674   1.593  16.259  0.00  0.00    +0.000 NA
ATOM     22  C   UNL     1      48.540   2.323  16.157  0.00  0.00    +0.000 A 
ENDBRANCH  16  17
ENDBRANCH   3  16
TORSDOF 4
ENDMDL
MODEL 4
REMARK VINA RESULT:    -5.809      2.246      6.723
REMARK INTER + INTRA:          -7.642
REMARK INTER:                  -7.151
REMARK INTRA:                  -0.491
REMARK UNBOUND:                -0.476
REMARK  Name = 
REMARK  7 active torsions:
REMARK  status: ('A' for Active; 'I' for Inactive)
REMARK    1  A    between atoms: C_1  and  C_2
REMARK    2  A    between atoms: C_2  and  C_3
REMARK    3  A    between atoms: C_2  and  C_4
REMARK    4  A    between atoms: C_2  and  C_5
REMARK    5  A    between atoms: N_7  and  C_8
REMARK    6  A    between atoms: C_8  and  C_9
REMARK    7  A    between atoms: C_18  and  C_19
REMARK                            x       y       z     vdW  Elec       q    Type
REMARK                         _______ _______ _______ _____ _____    ______ ____
ROOT
ATOM      1  C   UNL     1      44.976   4.825  12.226  0.00  0.00    +0.000 A 
ATOM      2  C   UNL     1      45.917   4.037  12.865  0.00  0.00    +0.000 A 
ATOM      3  N   UNL     1      46.856   4.840  13.461  0.00  0.00    +0.000 N 
ATOM      4  C   UNL     1      46.569   6.167  13.204  0.00  0.00    +0.000 A 
ATOM      5  C   UNL     1      47.229   7.353  13.575  0.00  0.00    +0.000 A 
ATOM      6  C   UNL     1      46.665   8.580  13.198  0.00  0.00    +0.000 A 
ATOM      7  C   UNL     1      45.484   8.630  12.458  0.00  0.00    +0.000 A 
ATOM      8  C   UNL     1      44.860   7.441  12.065  0.00  0.00    +0.000 A 
ATOM      9  C   UNL     1      45.395   6.186  12.442  0.00  0.00    +0.000 A 
ENDROOT
BRANCH   1  11
ATOM     10  C   UNL     1      42.491   5.189  11.831  0.00  0.00    +0.000 C 
ATOM     11  C   UNL     1      43.735   4.345  11.473  0.00  0.00    +0.000 C 
ATOM     12  C   UNL     1      43.411   2.881  11.832  0.00  0.00    +0.000 C 
ATOM     13  C   UNL     1      43.949   4.462   9.949  0.00  0.00    +0.000 C 
ENDBRANCH   1  11
BRANCH   7  14
ATOM     14  C   UNL     1      44.896   9.893  12.103  0.00  0.00    +0.000 C 
ATOM     15  N   UNL     1      44.411  10.905  11.821  0.00  0.00    +0.000 NA
ENDBRANCH   7  14
BRANCH   3  16
ATOM     16  C   UNL     1      47.887   4.330  14.366  0.00  0.00    +0.000 C 
BRANCH  16  17
ATOM     17  C   UNL     1      47.733   4.744  15.804  0.00  0.00    +0.000 A 
ATOM     18  C   UNL     1      48.536   5.765  16.334  0.00  0.00    +0.000 A 
ATOM     19  C   UNL     1      48.534   6.016  17.705  0.00  0.00    +0.000 A 
ATOM     20  C   UNL     1      47.723   5.238  18.511  0.00  0.00    +0.000 A 
ATOM     21  N   UNL     1      46.906   4.277  18.038  0.00  0.00    +0.000 NA
ATOM     22  C   UNL     1      46.925   4.055  16.703  0.00  0.00    +0.000 A 
ENDBRANCH  16  17
ENDBRANCH   3  16
TORSDOF 4
ENDMDL
MODEL 5
REMARK VINA RESULT:    -5.702      2.709      5.164
REMARK INTER + INTRA:          -7.511
REMARK INTER:                  -6.811
REMARK INTRA:                  -0.699
REMARK UNBOUND:                -0.476
REMARK  Name = 
REMARK  7 active torsions:
REMARK  status: ('A' for Active; 'I' for Inactive)
REMARK    1  A    between atoms: C_1  and  C_2
REMARK    2  A    between atoms: C_2  and  C_3
REMARK    3  A    between atoms: C_2  and  C_4
REMARK    4  A    between atoms: C_2  and  C_5
REMARK    5  A    between atoms: N_7  and  C_8
REMARK    6  A    between atoms: C_8  and  C_9
REMARK    7  A    between atoms: C_18  and  C_19
REMARK                            x       y       z     vdW  Elec       q    Type
REMARK                         _______ _______ _______ _____ _____    ______ ____
ROOT
ATOM      1  C   UNL     1      47.832   4.812  15.903  0.00  0.00    +0.000 A 
ATOM      2  C   UNL     1      47.043   3.896  15.230  0.00  0.00    +0.000 A 
ATOM      3  N   UNL     1      46.802   4.351  13.958  0.00  0.00    +0.000 N 
ATOM      4  C   UNL     1      47.402   5.583  13.779  0.00  0.00    +0.000 A 
ATOM      5  C   UNL     1      47.433   6.454  12.673  0.00  0.00    +0.000 A 
ATOM      6  C   UNL     1      48.177   7.638  12.774  0.00  0.00    +0.000 A 
ATOM      7  C   UNL     1      48.860   7.958  13.946  0.00  0.00    +0.000 A 
ATOM      8  C   UNL     1      48.789   7.101  15.049  0.00  0.00    +0.000 A 
ATOM      9  C   UNL     1      48.060   5.890  14.976  0.00  0.00    +0.000 A 
ENDROOT
BRANCH   1  11
ATOM     10  C   UNL     1      49.911   4.827  17.368  0.00  0.00    +0.000 C 
ATOM     11  C   UNL     1      48.373   4.686  17.328  0.00  0.00    +0.000 C 
ATOM     12  C   UNL     1      48.027   3.305  17.923  0.00  0.00    +0.000 C 
ATOM     13  C   UNL     1      47.784   5.792  18.229  0.00  0.00    +0.000 C 
ENDBRANCH   1  11
BRANCH   7  14
ATOM     14  C   UNL     1      49.647   9.160  14.029  0.00  0.00    +0.000 C 
ATOM     15  N   UNL     1      50.286  10.123  14.085  0.00  0.00    +0.000 NA
ENDBRANCH   7  14
BRANCH   3  16
ATOM     16  C   UNL     1      46.150   3.541  12.929  0.00  0.00    +0.000 C 
BRANCH  16  17
ATOM     17  C   UNL     1      44.823   4.066  12.452  0.00  0.00    +0.000 A 
ATOM     18  C   UNL     1      44.630   4.366  11.095  0.00  0.00    +0.000 A 
ATOM     19  C   UNL     1      43.477   5.032  10.683  0.00  0.00    +0.000 A 
ATOM     20  C   UNL     1      42.544   5.378  11.643  0.00  0.00    +0.000 A 
ATOM     21  N   UNL     1      42.670   5.071  12.949  0.00  0.00    +0.000 NA
ATOM     22  C   UNL     1      43.798   4.422  13.322  0.00  0.00    +0.000 A 
ENDBRANCH  16  17
ENDBRANCH   3  16
TORSDOF 4
ENDMDL
MODEL 6
REMARK VINA RESULT:    -5.689      2.636      3.691
REMARK INTER + INTRA:          -7.495
REMARK INTER:                  -6.854
REMARK INTRA:                  -0.641
REMARK UNBOUND:                -0.476
REMARK  Name = 
REMARK  7 active torsions:
REMARK  status: ('A' for Active; 'I' for Inactive)
REMARK    1  A    between atoms: C_1  and  C_2
REMARK    2  A    between atoms: C_2  and  C_3
REMARK    3  A    between atoms: C_2  and  C_4
REMARK    4  A    between atoms: C_2  and  C_5
REMARK    5  A    between atoms: N_7  and  C_8
REMARK    6  A    between atoms: C_8  and  C_9
REMARK    7  A    between atoms: C_18  and  C_19
REMARK                            x       y       z     vdW  Elec       q    Type
REMARK                         _______ _______ _______ _____ _____    ______ ____
ROOT
ATOM      1  C   UNL     1      48.092   6.523  13.712  0.00  0.00    +0.000 A 
ATOM      2  C   UNL     1      47.413   5.631  12.902  0.00  0.00    +0.000 A 
ATOM      3  N   UNL     1      46.987   4.565  13.654  0.00  0.00    +0.000 N 
ATOM      4  C   UNL     1      47.399   4.721  14.964  0.00  0.00    +0.000 A 
ATOM      5  C   UNL     1      47.228   3.906  16.098  0.00  0.00    +0.000 A 
ATOM      6  C   UNL     1      47.728   4.358  17.328  0.00  0.00    +0.000 A 
ATOM      7  C   UNL     1      48.394   5.578  17.427  0.00  0.00    +0.000 A 
ATOM      8  C   UNL     1      48.589   6.359  16.284  0.00  0.00    +0.000 A 
ATOM      9  C   UNL     1      48.084   5.940  15.029  0.00  0.00    +0.000 A 
ENDROOT
BRANCH   1  11
ATOM     10  C   UNL     1      50.193   7.955  13.679  0.00  0.00    +0.000 C 
ATOM     11  C   UNL     1      48.699   7.864  13.296  0.00  0.00    +0.000 C 
ATOM     12  C   UNL     1      47.976   9.031  14.000  0.00  0.00    +0.000 C 
ATOM     13  C   UNL     1      48.601   8.050  11.767  0.00  0.00    +0.000 C 
ENDBRANCH   1  11
BRANCH   7  14
ATOM     14  C   UNL     1      48.877   6.047  18.699  0.00  0.00    +0.000 C 
ATOM     15  N   UNL     1      49.274   6.415  19.721  0.00  0.00    +0.000 NA
ENDBRANCH   7  14
BRANCH   3  16
ATOM     16  C   UNL     1      46.088   3.532  13.139  0.00  0.00    +0.000 C 
BRANCH  16  17
ATOM     17  C   UNL     1      44.825   4.047  12.502  0.00  0.00    +0.000 A 
ATOM     18  C   UNL     1      44.711   4.099  11.105  0.00  0.00    +0.000 A 
ATOM     19  C   UNL     1      43.631   4.753  10.516  0.00  0.00    +0.000 A 
ATOM     20  C   UNL     1      42.689   5.336  11.343  0.00  0.00    +0.000 A 
ATOM     21  N   UNL     1      42.739   5.272  12.688  0.00  0.00    +0.000 NA
ATOM     22  C   UNL     1      43.797   4.630  13.235  0.00  0.00    +0.000 A 
ENDBRANCH  16  17
ENDBRANCH   3  16
TORSDOF 4
ENDMDL
MODEL 7
REMARK VINA RESULT:    -5.610      2.260      6.248
REMARK INTER + INTRA:          -7.398
REMARK INTER:                  -6.814
REMARK INTRA:                  -0.584
REMARK UNBOUND:                -0.476
REMARK  Name = 
REMARK  7 active torsions:
REMARK  status: ('A' for Active; 'I' for Inactive)
REMARK    1  A    between atoms: C_1  and  C_2
REMARK    2  A    between atoms: C_2  and  C_3
REMARK    3  A    between atoms: C_2  and  C_4
REMARK    4  A    between atoms: C_2  and  C_5
REMARK    5  A    between atoms: N_7  and  C_8
REMARK    6  A    between atoms: C_8  and  C_9
REMARK    7  A    between atoms: C_18  and  C_19
REMARK                            x       y       z     vdW  Elec       q    Type
REMARK                         _______ _______ _______ _____ _____    ______ ____
ROOT
ATOM      1  C   UNL     1      48.703   7.036  14.046  0.00  0.00    +0.000 A 
ATOM      2  C   UNL     1      48.703   6.585  15.354  0.00  0.00    +0.000 A 
ATOM      3  N   UNL     1      47.737   5.622  15.504  0.00  0.00    +0.000 N 
ATOM      4  C   UNL     1      47.066   5.440  14.310  0.00  0.00    +0.000 A 
ATOM      5  C   UNL     1      45.999   4.591  13.958  0.00  0.00    +0.000 A 
ATOM      6  C   UNL     1      45.551   4.595  12.630  0.00  0.00    +0.000 A 
ATOM      7  C   UNL     1      46.134   5.429  11.678  0.00  0.00    +0.000 A 
ATOM      8  C   UNL     1      47.168   6.294  12.051  0.00  0.00    +0.000 A 
ATOM      9  C   UNL     1      47.655   6.305  13.379  0.00  0.00    +0.000 A 
ENDROOT
BRANCH   1  11
ATOM     10  C   UNL     1      50.878   8.322  14.325  0.00  0.00    +0.000 C 
ATOM     11  C   UNL     1      49.642   8.074  13.432  0.00  0.00    +0.000 C 
ATOM     12  C   UNL     1      48.922   9.428  13.264  0.00  0.00    +0.000 C 
ATOM     13  C   UNL     1      50.154   7.595  12.057  0.00  0.00    +0.000 C 
ENDBRANCH   1  11
BRANCH   7  14
ATOM     14  C   UNL     1      45.687   5.402  10.310  0.00  0.00    +0.000 C 
ATOM     15  N   UNL     1      45.337   5.371   9.208  0.00  0.00    +0.000 NA
ENDBRANCH   7  14
BRANCH   3  16
ATOM     16  C   UNL     1      47.593   4.815  16.717  0.00  0.00    +0.000 C 
BRANCH  16  17
ATOM     17  C   UNL     1      48.636   3.746  16.897  0.00  0.00    +0.000 A 
ATOM     18  C   UNL     1      49.806   4.017  17.624  0.00  0.00    +0.000 A 
ATOM     19  C   UNL     1      50.855   3.100  17.627  0.00  0.00    +0.000 A 
ATOM     20  C   UNL     1      50.705   1.932  16.902  0.00  0.00    +0.000 A 
ATOM     21  N   UNL     1      49.583   1.614  16.226  0.00  0.00    +0.000 NA
ATOM     22  C   UNL     1      48.578   2.521  16.241  0.00  0.00    +0.000 A 
ENDBRANCH  16  17
ENDBRANCH   3  16
TORSDOF 4
ENDMDL
MODEL 8
REMARK VINA RESULT:    -5.374      1.881      6.684
REMARK INTER + INTRA:          -7.106
REMARK INTER:                  -6.605
REMARK INTRA:                  -0.501
REMARK UNBOUND:                -0.476
REMARK  Name = 
REMARK  7 active torsions:
REMARK  status: ('A' for Active; 'I' for Inactive)
REMARK    1  A    between atoms: C_1  and  C_2
REMARK    2  A    between atoms: C_2  and  C_3
REMARK    3  A    between atoms: C_2  and  C_4
REMARK    4  A    between atoms: C_2  and  C_5
REMARK    5  A    between atoms: N_7  and  C_8
REMARK    6  A    between atoms: C_8  and  C_9
REMARK    7  A    between atoms: C_18  and  C_19
REMARK                            x       y       z     vdW  Elec       q    Type
REMARK                         _______ _______ _______ _____ _____    ______ ____
ROOT
ATOM      1  C   UNL     1      47.449   6.598  13.454  0.00  0.00    +0.000 A 
ATOM      2  C   UNL     1      47.779   6.042  14.677  0.00  0.00    +0.000 A 
ATOM      3  N   UNL     1      47.231   4.787  14.770  0.00  0.00    +0.000 N 
ATOM      4  C   UNL     1      46.509   4.505  13.626  0.00  0.00    +0.000 A 
ATOM      5  C   UNL     1      45.761   3.373  13.251  0.00  0.00    +0.000 A 
ATOM      6  C   UNL     1      45.164   3.356  11.983  0.00  0.00    +0.000 A 
ATOM      7  C   UNL     1      45.292   4.439  11.114  0.00  0.00    +0.000 A 
ATOM      8  C   UNL     1      46.008   5.571  11.516  0.00  0.00    +0.000 A 
ATOM      9  C   UNL     1      46.636   5.616  12.784  0.00  0.00    +0.000 A 
ENDROOT
BRANCH   1  11
ATOM     10  C   UNL     1      48.730   7.825  11.632  0.00  0.00    +0.000 C 
ATOM     11  C   UNL     1      47.884   7.962  12.917  0.00  0.00    +0.000 C 
ATOM     12  C   UNL     1      48.750   8.705  13.956  0.00  0.00    +0.000 C 
ATOM     13  C   UNL     1      46.652   8.824  12.569  0.00  0.00    +0.000 C 
ENDBRANCH   1  11
BRANCH   7  14
ATOM     14  C   UNL     1      44.703   4.399   9.802  0.00  0.00    +0.000 C 
ATOM     15  N   UNL     1      44.240   4.370   8.742  0.00  0.00    +0.000 NA
ENDBRANCH   7  14
BRANCH   3  16
ATOM     16  C   UNL     1      47.536   3.860  15.860  0.00  0.00    +0.000 C 
BRANCH  16  17
ATOM     17  C   UNL     1      48.083   4.502  17.107  0.00  0.00    +0.000 A 
ATOM     18  C   UNL     1      49.449   4.400  17.412  0.00  0.00    +0.000 A 
ATOM     19  C   UNL     1      49.921   4.820  18.653  0.00  0.00    +0.000 A 
ATOM     20  C   UNL     1      49.012   5.335  19.559  0.00  0.00    +0.000 A 
ATOM     21  N   UNL     1      47.701   5.490  19.290  0.00  0.00    +0.000 NA
ATOM     22  C   UNL     1      47.268   5.076  18.077  0.00  0.00    +0.000 A 
ENDBRANCH  16  17
ENDBRANCH   3  16
TORSDOF 4
ENDMDL
MODEL 9
REMARK VINA RESULT:    -5.328      2.492      7.298
REMARK INTER + INTRA:          -7.050
REMARK INTER:                  -6.282
REMARK INTRA:                  -0.768
REMARK UNBOUND:                -0.476
REMARK  Name = 
REMARK  7 active torsions:
REMARK  status: ('A' for Active; 'I' for Inactive)
REMARK    1  A    between atoms: C_1  and  C_2
REMARK    2  A    between atoms: C_2  and  C_3
REMARK    3  A    between atoms: C_2  and  C_4
REMARK    4  A    between atoms: C_2  and  C_5
REMARK    5  A    between atoms: N_7  and  C_8
REMARK    6  A    between atoms: C_8  and  C_9
REMARK    7  A    between atoms: C_18  and  C_19
REMARK                            x       y       z     vdW  Elec       q    Type
REMARK                         _______ _______ _______ _____ _____    ______ ____
ROOT
ATOM      1  C   UNL     1      46.003   5.766  12.511  0.00  0.00    +0.000 A 
ATOM      2  C   UNL     1      47.223   5.617  13.146  0.00  0.00    +0.000 A 
ATOM      3  N   UNL     1      47.802   6.850  13.317  0.00  0.00    +0.000 N 
ATOM      4  C   UNL     1      46.989   7.828  12.776  0.00  0.00    +0.000 A 
ATOM      5  C   UNL     1      47.143   9.224  12.687  0.00  0.00    +0.000 A 
ATOM      6  C   UNL     1      46.109   9.976  12.112  0.00  0.00    +0.000 A 
ATOM      7  C   UNL     1      44.959   9.359  11.623  0.00  0.00    +0.000 A 
ATOM      8  C   UNL     1      44.837   7.967  11.685  0.00  0.00    +0.000 A 
ATOM      9  C   UNL     1      45.855   7.179  12.274  0.00  0.00    +0.000 A 
ENDROOT
BRANCH   1  11
ATOM     10  C   UNL     1      44.686   4.638  10.651  0.00  0.00    +0.000 C 
ATOM     11  C   UNL     1      45.008   4.659  12.162  0.00  0.00    +0.000 C 
ATOM     12  C   UNL     1      43.674   4.869  12.909  0.00  0.00    +0.000 C 
ATOM     13  C   UNL     1      45.587   3.276  12.530  0.00  0.00    +0.000 C 
ENDBRANCH   1  11
BRANCH   7  14
ATOM     14  C   UNL     1      43.890  10.142  11.063  0.00  0.00    +0.000 C 
ATOM     15  N   UNL     1      43.021  10.762  10.616  0.00  0.00    +0.000 NA
ENDBRANCH   7  14
BRANCH   3  16
ATOM     16  C   UNL     1      49.012   7.062  14.112  0.00  0.00    +0.000 C 
BRANCH  16  17
ATOM     17  C   UNL     1      48.784   7.200  15.593  0.00  0.00    +0.000 A 
ATOM     18  C   UNL     1      48.640   8.472  16.169  0.00  0.00    +0.000 A 
ATOM     19  C   UNL     1      48.626   8.614  17.555  0.00  0.00    +0.000 A 
ATOM     20  C   UNL     1      48.753   7.477  18.331  0.00  0.00    +0.000 A 
ATOM     21  N   UNL     1      48.850   6.233  17.818  0.00  0.00    +0.000 NA
ATOM     22  C   UNL     1      48.859   6.123  16.470  0.00  0.00    +0.000 A 
ENDBRANCH  16  17
ENDBRANCH   3  16
TORSDOF 4
ENDMDL
