MODEL 1
REMARK VINA RESULT:    -9.196      0.000      0.000
REMARK INTER + INTRA:         -12.341
REMARK INTER:                 -11.347
REMARK INTRA:                  -0.995
REMARK UNBOUND:                -0.995
REMARK  Name = 
REMARK  4 active torsions:
REMARK  status: ('A' for Active; 'I' for Inactive)
REMARK    1  A    between atoms: C_2  and  C_4
REMARK    2  A    between atoms: N_8  and  C_9
REMARK    3  A    between atoms: C_9  and  C_10
REMARK    4  A    between atoms: C_14  and  C_15
REMARK                            x       y       z     vdW  Elec       q    Type
REMARK                         _______ _______ _______ _____ _____    ______ ____
ROOT
ATOM      1  C   UNL     1      43.864   4.919  11.367  0.00  0.00    +0.000 C 
ATOM      2  C   UNL     1      42.501   5.171  12.008  0.00  0.00    +0.000 C 
ATOM      3  C   UNL     1      43.053   6.161  11.039  0.00  0.00    +0.000 C 
ENDROOT
BRANCH   1   8
ATOM      4  C   UNL     1      46.570   2.733   7.489  0.00  0.00    +0.000 A 
ATOM      5  C   UNL     1      46.228   4.070   7.667  0.00  0.00    +0.000 A 
ATOM      6  C   UNL     1      45.358   4.422   8.700  0.00  0.00    +0.000 A 
ATOM      7  C   UNL     1      44.853   3.440   9.538  0.00  0.00    +0.000 A 
ATOM      8  N   UNL     1      43.900   3.697  10.530  0.00  0.00    +0.000 N 
ATOM      9  N   UNL     1      45.168   2.135   9.367  0.00  0.00    +0.000 NA
ATOM     10  C   UNL     1      46.008   1.806   8.349  0.00  0.00    +0.000 A 
ATOM     11  H   UNL     1      43.812   2.817  11.036  0.00  0.00    +0.000 HD
BRANCH   4  13
ATOM     12  N   UNL     1      47.369   2.967   5.214  0.00  0.00    +0.000 N 
ATOM     13  C   UNL     1      47.465   2.296   6.402  0.00  0.00    +0.000 C 
ATOM     14  O   UNL     1      48.281   1.392   6.562  0.00  0.00    +0.000 OA
ATOM     15  H   UNL     1      48.023   2.712   4.486  0.00  0.00    +0.000 HD
ATOM     16  H   UNL     1      46.874   3.843   5.113  0.00  0.00    +0.000 HD
ENDBRANCH   4  13
ENDBRANCH   1   8
BRANCH   1  17
ATOM     17  C   UNL     1      45.134   5.120  12.206  0.00  0.00    +0.000 A 
ATOM     18  C   UNL     1      45.571   4.133  13.092  0.00  0.00    +0.000 A 
ATOM     19  C   UNL     1      46.791   4.277  13.737  0.00  0.00    +0.000 A 
ATOM     20  C   UNL     1      47.558   5.406  13.487  0.00  0.00    +0.000 A 
ATOM     21  C   UNL     1      47.073   6.380  12.618  0.00  0.00    +0.000 A 
ATOM     22  N   UNL     1      45.872   6.242  11.997  0.00  0.00    +0.000 NA
BRANCH  21  23
ATOM     23  C   UNL     1      47.840   7.594  12.265  0.00  0.00    +0.000 A 
ATOM     24  C   UNL     1      47.216   8.856  12.250  0.00  0.00    +0.000 A 
ATOM     25  C   UNL     1      47.915  10.015  11.902  0.00  0.00    +0.000 A 
ATOM     26  C   UNL     1      49.262   9.937  11.562  0.00  0.00    +0.000 A 
ATOM     27  C   UNL     1      49.908   8.705  11.572  0.00  0.00    +0.000 A 
ATOM     28  C   UNL     1      49.204   7.547  11.922  0.00  0.00    +0.000 A 
ENDBRANCH  21  23
ENDBRANCH   1  17
TORSDOF 4
ENDMDL
MODEL 2
REMARK VINA RESULT:    -8.593      1.538      3.304
REMARK INTER + INTRA:         -11.597
REMARK INTER:                 -11.145
REMARK INTRA:                  -0.453
REMARK UNBOUND:                -0.995
REMARK  Name = 
REMARK  4 active torsions:
REMARK  status: ('A' for Active; 'I' for Inactive)
REMARK    1  A    between atoms: C_2  and  C_4
REMARK    2  A    between atoms: N_8  and  C_9
REMARK    3  A    between atoms: C_9  and  C_10
REMARK    4  A    between atoms: C_14  and  C_15
REMARK                            x       y       z     vdW  Elec       q    Type
REMARK                         _______ _______ _______ _____ _____    ______ ____
ROOT
ATOM      1  C   UNL     1      43.977   4.945  11.505  0.00  0.00    +0.000 C 
ATOM      2  C   UNL     1      42.829   4.997  12.511  0.00  0.00    +0.000 C 
ATOM      3  C   UNL     1      42.876   5.985  11.396  0.00  0.00    +0.000 C 
ENDROOT
BRANCH   1   8
ATOM      4  C   UNL     1      46.470   2.715   7.511  0.00  0.00    +0.000 A 
ATOM      5  C   UNL     1      46.062   4.037   7.654  0.00  0.00    +0.000 A 
ATOM      6  C   UNL     1      45.263   4.393   8.742  0.00  0.00    +0.000 A 
ATOM      7  C   UNL     1      44.895   3.430   9.669  0.00  0.00    +0.000 A 
ATOM      8  N   UNL     1      44.017   3.683  10.728  0.00  0.00    +0.000 N 
ATOM      9  N   UNL     1      45.275   2.137   9.534  0.00  0.00    +0.000 NA
ATOM     10  C   UNL     1      46.044   1.804   8.462  0.00  0.00    +0.000 A 
ATOM     11  H   UNL     1      44.029   2.828  11.282  0.00  0.00    +0.000 HD
BRANCH   4  13
ATOM     12  N   UNL     1      47.120   2.937   5.188  0.00  0.00    +0.000 N 
ATOM     13  C   UNL     1      47.293   2.273   6.371  0.00  0.00    +0.000 C 
ATOM     14  O   UNL     1      48.120   1.371   6.482  0.00  0.00    +0.000 OA
ATOM     15  H   UNL     1      47.726   2.679   4.420  0.00  0.00    +0.000 HD
ATOM     16  H   UNL     1      46.618   3.812   5.115  0.00  0.00    +0.000 HD
ENDBRANCH   4  13
ENDBRANCH   1   8
BRANCH   1  17
ATOM     17  C   UNL     1      45.365   5.443  11.928  0.00  0.00    +0.000 A 
ATOM     18  C   UNL     1      46.033   6.420  11.187  0.00  0.00    +0.000 A 
ATOM     19  C   UNL     1      47.223   6.953  11.661  0.00  0.00    +0.000 A 
ATOM     20  C   UNL     1      47.729   6.503  12.873  0.00  0.00    +0.000 A 
ATOM     21  C   UNL     1      47.047   5.508  13.568  0.00  0.00    +0.000 A 
ATOM     22  N   UNL     1      45.888   4.978  13.094  0.00  0.00    +0.000 NA
BRANCH  21  23
ATOM     23  C   UNL     1      47.493   4.997  14.882  0.00  0.00    +0.000 A 
ATOM     24  C   UNL     1      48.285   5.795  15.730  0.00  0.00    +0.000 A 
ATOM     25  C   UNL     1      48.734   5.327  16.968  0.00  0.00    +0.000 A 
ATOM     26  C   UNL     1      48.398   4.044  17.389  0.00  0.00    +0.000 A 
ATOM     27  C   UNL     1      47.614   3.233  16.574  0.00  0.00    +0.000 A 
ATOM     28  C   UNL     1      47.165   3.706  15.337  0.00  0.00    +0.000 A 
ENDBRANCH  21  23
ENDBRANCH   1  17
TORSDOF 4
ENDMDL
MODEL 3
REMARK VINA RESULT:    -6.941      2.729      6.845
REMARK INTER + INTRA:          -9.559
REMARK INTER:                  -8.689
REMARK INTRA:                  -0.870
REMARK UNBOUND:                -0.995
REMARK  Name = 
REMARK  4 active torsions:
REMARK  status: ('A' for Active; 'I' for Inactive)
REMARK    1  A    between atoms: C_2  and  C_4
REMARK    2  A    between atoms: N_8  and  C_9
REMARK    3  A    between atoms: C_9  and  C_10
REMARK    4  A    between atoms: C_14  and  C_15
REMARK                            x       y       z     vdW  Elec       q    Type
REMARK                         _______ _______ _______ _____ _____    ______ ____
ROOT
ATOM      1  C   UNL     1      46.102   5.114  13.297  0.00  0.00    +0.000 C 
ATOM      2  C   UNL     1      46.084   4.206  14.525  0.00  0.00    +0.000 C 
ATOM      3  C   UNL     1      47.223   4.125  13.567  0.00  0.00    +0.000 C 
ENDROOT
BRANCH   1   8
ATOM      4  C   UNL     1      48.292   9.571  11.725  0.00  0.00    +0.000 A 
ATOM      5  C   UNL     1      48.846   8.295  11.765  0.00  0.00    +0.000 A 
ATOM      6  C   UNL     1      48.135   7.260  12.373  0.00  0.00    +0.000 A 
ATOM      7  C   UNL     1      46.887   7.512  12.922  0.00  0.00    +0.000 A 
ATOM      8  N   UNL     1      46.158   6.555  13.636  0.00  0.00    +0.000 N 
ATOM      9  N   UNL     1      46.343   8.752  12.901  0.00  0.00    +0.000 NA
ATOM     10  C   UNL     1      47.054   9.753  12.314  0.00  0.00    +0.000 A 
ATOM     11  H   UNL     1      45.257   6.998  13.813  0.00  0.00    +0.000 HD
BRANCH   4  13
ATOM     12  N   UNL     1      48.285  11.511  10.275  0.00  0.00    +0.000 N 
ATOM     13  C   UNL     1      49.004  10.711  11.118  0.00  0.00    +0.000 C 
ATOM     14  O   UNL     1      50.181  10.951  11.380  0.00  0.00    +0.000 OA
ATOM     15  H   UNL     1      48.752  12.329   9.905  0.00  0.00    +0.000 HD
ATOM     16  H   UNL     1      47.276  11.476  10.206  0.00  0.00    +0.000 HD
ENDBRANCH   4  13
ENDBRANCH   1   8
BRANCH   1  17
ATOM     17  C   UNL     1      45.166   4.800  12.121  0.00  0.00    +0.000 A 
ATOM     18  C   UNL     1      43.853   5.271  12.106  0.00  0.00    +0.000 A 
ATOM     19  C   UNL     1      43.069   5.092  10.975  0.00  0.00    +0.000 A 
ATOM     20  C   UNL     1      43.611   4.444   9.873  0.00  0.00    +0.000 A 
ATOM     21  C   UNL     1      44.917   3.965   9.940  0.00  0.00    +0.000 A 
ATOM     22  N   UNL     1      45.677   4.131  11.054  0.00  0.00    +0.000 NA
BRANCH  21  23
ATOM     23  C   UNL     1      45.585   3.298   8.802  0.00  0.00    +0.000 A 
ATOM     24  C   UNL     1      45.739   1.898   8.781  0.00  0.00    +0.000 A 
ATOM     25  C   UNL     1      46.384   1.247   7.726  0.00  0.00    +0.000 A 
ATOM     26  C   UNL     1      46.890   1.986   6.661  0.00  0.00    +0.000 A 
ATOM     27  C   UNL     1      46.750   3.370   6.651  0.00  0.00    +0.000 A 
ATOM     28  C   UNL     1      46.103   4.017   7.709  0.00  0.00    +0.000 A 
ENDBRANCH  21  23
ENDBRANCH   1  17
TORSDOF 4
ENDMDL
MODEL 4
REMARK VINA RESULT:    -6.648      4.279      8.251
REMARK INTER + INTRA:          -9.197
REMARK INTER:                  -8.322
REMARK INTRA:                  -0.874
REMARK UNBOUND:                -0.995
REMARK  Name = 
REMARK  4 active torsions:
REMARK  status: ('A' for Active; 'I' for Inactive)
REMARK    1  A    between atoms: C_2  and  C_4
REMARK    2  A    between atoms: N_8  and  C_9
REMARK    3  A    between atoms: C_9  and  C_10
REMARK    4  A    between atoms: C_14  and  C_15
REMARK                            x       y       z     vdW  Elec       q    Type
REMARK                         _______ _______ _______ _____ _____    ______ ____
ROOT
ATOM      1  C   UNL     1      48.821   7.674  12.746  0.00  0.00    +0.000 C 
ATOM      2  C   UNL     1      49.842   7.856  11.625  0.00  0.00    +0.000 C 
ATOM      3  C   UNL     1      49.478   9.018  12.484  0.00  0.00    +0.000 C 
ENDROOT
BRANCH   1   8
ATOM      4  C   UNL     1      48.400   6.761  17.857  0.00  0.00    +0.000 A 
ATOM      5  C   UNL     1      48.532   7.979  17.198  0.00  0.00    +0.000 A 
ATOM      6  C   UNL     1      48.791   7.990  15.827  0.00  0.00    +0.000 A 
ATOM      7  C   UNL     1      48.904   6.792  15.138  0.00  0.00    +0.000 A 
ATOM      8  N   UNL     1      49.260   6.716  13.788  0.00  0.00    +0.000 N 
ATOM      9  N   UNL     1      48.789   5.600  15.770  0.00  0.00    +0.000 NA
ATOM     10  C   UNL     1      48.549   5.606  17.110  0.00  0.00    +0.000 A 
ATOM     11  H   UNL     1      49.155   5.731  13.549  0.00  0.00    +0.000 HD
BRANCH   4  13
ATOM     12  N   UNL     1      47.320   5.687  19.741  0.00  0.00    +0.000 N 
ATOM     13  C   UNL     1      48.151   6.683  19.308  0.00  0.00    +0.000 C 
ATOM     14  O   UNL     1      48.688   7.456  20.098  0.00  0.00    +0.000 OA
ATOM     15  H   UNL     1      47.196   5.591  20.740  0.00  0.00    +0.000 HD
ATOM     16  H   UNL     1      47.038   4.910  19.157  0.00  0.00    +0.000 HD
ENDBRANCH   4  13
ENDBRANCH   1   8
BRANCH   1  17
ATOM     17  C   UNL     1      47.334   7.546  12.389  0.00  0.00    +0.000 A 
ATOM     18  C   UNL     1      46.437   8.576  12.677  0.00  0.00    +0.000 A 
ATOM     19  C   UNL     1      45.127   8.498  12.224  0.00  0.00    +0.000 A 
ATOM     20  C   UNL     1      44.732   7.388  11.489  0.00  0.00    +0.000 A 
ATOM     21  C   UNL     1      45.651   6.370  11.248  0.00  0.00    +0.000 A 
ATOM     22  N   UNL     1      46.929   6.444  11.703  0.00  0.00    +0.000 NA
BRANCH  21  23
ATOM     23  C   UNL     1      45.327   5.172  10.442  0.00  0.00    +0.000 A 
ATOM     24  C   UNL     1      44.646   4.084  11.020  0.00  0.00    +0.000 A 
ATOM     25  C   UNL     1      44.346   2.934  10.284  0.00  0.00    +0.000 A 
ATOM     26  C   UNL     1      44.721   2.848   8.947  0.00  0.00    +0.000 A 
ATOM     27  C   UNL     1      45.392   3.909   8.347  0.00  0.00    +0.000 A 
ATOM     28  C   UNL     1      45.690   5.058   9.087  0.00  0.00    +0.000 A 
ENDBRANCH  21  23
ENDBRANCH   1  17
TORSDOF 4
ENDMDL
MODEL 5
REMARK VINA RESULT:    -6.569      3.469      7.428
REMARK INTER + INTRA:          -9.100
REMARK INTER:                  -9.082
REMARK INTRA:                  -0.018
REMARK UNBOUND:                -0.995
REMARK  Name = 
REMARK  4 active torsions:
REMARK  status: ('A' for Active; 'I' for Inactive)
REMARK    1  A    between atoms: C_2  and  C_4
REMARK    2  A    between atoms: N_8  and  C_9
REMARK    3  A    between atoms: C_9  and  C_10
REMARK    4  A    between atoms: C_14  and  C_15
REMARK                            x       y       z     vdW  Elec       q    Type
REMARK                         _______ _______ _______ _____ _____    ______ ____
ROOT
ATOM      1  C   UNL     1      48.300   7.651  12.686  0.00  0.00    +0.000 C 
ATOM      2  C   UNL     1      49.455   7.031  11.902  0.00  0.00    +0.000 C 
ATOM      3  C   UNL     1      49.172   8.488  11.765  0.00  0.00    +0.000 C 
ENDROOT
BRANCH   1   8
ATOM      4  C   UNL     1      47.962   4.253  16.620  0.00  0.00    +0.000 A 
ATOM      5  C   UNL     1      47.141   4.377  15.504  0.00  0.00    +0.000 A 
ATOM      6  C   UNL     1      47.314   5.463  14.644  0.00  0.00    +0.000 A 
ATOM      7  C   UNL     1      48.304   6.398  14.908  0.00  0.00    +0.000 A 
ATOM      8  N   UNL     1      48.476   7.564  14.154  0.00  0.00    +0.000 N 
ATOM      9  N   UNL     1      49.101   6.295  15.998  0.00  0.00    +0.000 NA
ATOM     10  C   UNL     1      48.912   5.236  16.832  0.00  0.00    +0.000 A 
ATOM     11  H   UNL     1      49.331   7.982  14.518  0.00  0.00    +0.000 HD
BRANCH   4  13
ATOM     12  N   UNL     1      48.897   2.847  18.357  0.00  0.00    +0.000 N 
ATOM     13  C   UNL     1      47.812   3.142  17.578  0.00  0.00    +0.000 C 
ATOM     14  O   UNL     1      46.754   2.528  17.694  0.00  0.00    +0.000 OA
ATOM     15  H   UNL     1      48.778   2.127  19.058  0.00  0.00    +0.000 HD
ATOM     16  H   UNL     1      49.697   3.458  18.444  0.00  0.00    +0.000 HD
ENDBRANCH   4  13
ENDBRANCH   1   8
BRANCH   1  17
ATOM     17  C   UNL     1      46.859   7.387  12.228  0.00  0.00    +0.000 A 
ATOM     18  C   UNL     1      45.847   8.316  12.474  0.00  0.00    +0.000 A 
ATOM     19  C   UNL     1      44.584   8.121  11.934  0.00  0.00    +0.000 A 
ATOM     20  C   UNL     1      44.350   6.998  11.152  0.00  0.00    +0.000 A 
ATOM     21  C   UNL     1      45.379   6.081  10.954  0.00  0.00    +0.000 A 
ATOM     22  N   UNL     1      46.612   6.269  11.495  0.00  0.00    +0.000 NA
BRANCH  21  23
ATOM     23  C   UNL     1      45.229   4.878  10.106  0.00  0.00    +0.000 A 
ATOM     24  C   UNL     1      44.647   3.705  10.623  0.00  0.00    +0.000 A 
ATOM     25  C   UNL     1      44.512   2.551   9.847  0.00  0.00    +0.000 A 
ATOM     26  C   UNL     1      44.956   2.545   8.528  0.00  0.00    +0.000 A 
ATOM     27  C   UNL     1      45.532   3.691   7.987  0.00  0.00    +0.000 A 
ATOM     28  C   UNL     1      45.665   4.844   8.768  0.00  0.00    +0.000 A 
ENDBRANCH  21  23
ENDBRANCH   1  17
TORSDOF 4
ENDMDL
MODEL 6
REMARK VINA RESULT:    -6.473      5.595      8.369
REMARK INTER + INTRA:          -8.981
REMARK INTER:                  -8.260
REMARK INTRA:                  -0.722
REMARK UNBOUND:                -0.995
REMARK  Name = 
REMARK  4 active torsions:
REMARK  status: ('A' for Active; 'I' for Inactive)
REMARK    1  A    between atoms: C_2  and  C_4
REMARK    2  A    between atoms: N_8  and  C_9
REMARK    3  A    between atoms: C_9  and  C_10
REMARK    4  A    between atoms: C_14  and  C_15
REMARK                            x       y       z     vdW  Elec       q    Type
REMARK                         _______ _______ _______ _____ _____    ______ ____
ROOT
ATOM      1  C   UNL     1      48.299   4.886  17.259  0.00  0.00    +0.000 C 
ATOM      2  C   UNL     1      47.128   5.137  18.207  0.00  0.00    +0.000 C 
ATOM      3  C   UNL     1      47.153   3.897  17.380  0.00  0.00    +0.000 C 
ENDROOT
BRANCH   1   8
ATOM      4  C   UNL     1      52.431   1.729  17.569  0.00  0.00    +0.000 A 
ATOM      5  C   UNL     1      51.087   1.394  17.434  0.00  0.00    +0.000 A 
ATOM      6  C   UNL     1      50.120   2.395  17.531  0.00  0.00    +0.000 A 
ATOM      7  C   UNL     1      50.508   3.708  17.749  0.00  0.00    +0.000 A 
ATOM      8  N   UNL     1      49.599   4.751  17.957  0.00  0.00    +0.000 N 
ATOM      9  N   UNL     1      51.812   4.045  17.894  0.00  0.00    +0.000 NA
ATOM     10  C   UNL     1      52.742   3.055  17.809  0.00  0.00    +0.000 A 
ATOM     11  H   UNL     1      50.173   5.592  17.980  0.00  0.00    +0.000 HD
BRANCH   4  13
ATOM     12  N   UNL     1      53.290  -0.448  18.194  0.00  0.00    +0.000 N 
ATOM     13  C   UNL     1      53.498   0.713  17.501  0.00  0.00    +0.000 C 
ATOM     14  O   UNL     1      54.512   0.886  16.830  0.00  0.00    +0.000 OA
ATOM     15  H   UNL     1      53.991  -1.172  18.100  0.00  0.00    +0.000 HD
ATOM     16  H   UNL     1      52.390  -0.713  18.571  0.00  0.00    +0.000 HD
ENDBRANCH   4  13
ENDBRANCH   1   8
BRANCH   1  17
ATOM     17  C   UNL     1      48.390   5.689  15.954  0.00  0.00    +0.000 A 
ATOM     18  C   UNL     1      49.394   6.639  15.766  0.00  0.00    +0.000 A 
ATOM     19  C   UNL     1      49.540   7.254  14.530  0.00  0.00    +0.000 A 
ATOM     20  C   UNL     1      48.678   6.908  13.498  0.00  0.00    +0.000 A 
ATOM     21  C   UNL     1      47.672   5.975  13.735  0.00  0.00    +0.000 A 
ATOM     22  N   UNL     1      47.524   5.385  14.951  0.00  0.00    +0.000 NA
BRANCH  21  23
ATOM     23  C   UNL     1      46.735   5.521  12.685  0.00  0.00    +0.000 A 
ATOM     24  C   UNL     1      46.566   6.268  11.504  0.00  0.00    +0.000 A 
ATOM     25  C   UNL     1      45.673   5.869  10.505  0.00  0.00    +0.000 A 
ATOM     26  C   UNL     1      44.927   4.705  10.666  0.00  0.00    +0.000 A 
ATOM     27  C   UNL     1      45.076   3.943  11.821  0.00  0.00    +0.000 A 
ATOM     28  C   UNL     1      45.972   4.346  12.817  0.00  0.00    +0.000 A 
ENDBRANCH  21  23
ENDBRANCH   1  17
TORSDOF 4
ENDMDL
MODEL 7
REMARK VINA RESULT:    -6.349      3.290      5.859
REMARK INTER + INTRA:          -8.828
REMARK INTER:                  -8.615
REMARK INTRA:                  -0.212
REMARK UNBOUND:                -0.995
REMARK  Name = 
REMARK  4 active torsions:
REMARK  status: ('A' for Active; 'I' for Inactive)
REMARK    1  A    between atoms: C_2  and  C_4
REMARK    2  A    between atoms: N_8  and  C_9
REMARK    3  A    between atoms: C_9  and  C_10
REMARK    4  A    between atoms: C_14  and  C_15
REMARK                            x       y       z     vdW  Elec       q    Type
REMARK                         _______ _______ _______ _____ _____    ______ ____
ROOT
ATOM      1  C   UNL     1      47.408   8.320  13.223  0.00  0.00    +0.000 C 
ATOM      2  C   UNL     1      47.564   9.631  12.456  0.00  0.00    +0.000 C 
ATOM      3  C   UNL     1      48.269   8.410  11.975  0.00  0.00    +0.000 C 
ENDROOT
BRANCH   1   8
ATOM      4  C   UNL     1      44.458   4.460  11.343  0.00  0.00    +0.000 A 
ATOM      5  C   UNL     1      45.486   5.155  10.714  0.00  0.00    +0.000 A 
ATOM      6  C   UNL     1      46.045   6.267  11.346  0.00  0.00    +0.000 A 
ATOM      7  C   UNL     1      45.578   6.659  12.591  0.00  0.00    +0.000 A 
ATOM      8  N   UNL     1      46.014   7.817  13.243  0.00  0.00    +0.000 N 
ATOM      9  N   UNL     1      44.570   5.997  13.208  0.00  0.00    +0.000 NA
ATOM     10  C   UNL     1      44.027   4.921  12.574  0.00  0.00    +0.000 A 
ATOM     11  H   UNL     1      45.578   7.774  14.163  0.00  0.00    +0.000 HD
BRANCH   4  13
ATOM     12  N   UNL     1      44.149   3.019   9.420  0.00  0.00    +0.000 N 
ATOM     13  C   UNL     1      43.811   3.292  10.717  0.00  0.00    +0.000 C 
ATOM     14  O   UNL     1      43.027   2.578  11.337  0.00  0.00    +0.000 OA
ATOM     15  H   UNL     1      43.755   2.184   9.007  0.00  0.00    +0.000 HD
ATOM     16  H   UNL     1      44.940   3.444   8.954  0.00  0.00    +0.000 HD
ENDBRANCH   4  13
ENDBRANCH   1   8
BRANCH   1  17
ATOM     17  C   UNL     1      48.138   8.144  14.561  0.00  0.00    +0.000 A 
ATOM     18  C   UNL     1      48.477   9.250  15.343  0.00  0.00    +0.000 A 
ATOM     19  C   UNL     1      49.014   9.061  16.609  0.00  0.00    +0.000 A 
ATOM     20  C   UNL     1      49.203   7.768  17.076  0.00  0.00    +0.000 A 
ATOM     21  C   UNL     1      48.877   6.693  16.253  0.00  0.00    +0.000 A 
ATOM     22  N   UNL     1      48.364   6.881  15.009  0.00  0.00    +0.000 NA
BRANCH  21  23
ATOM     23  C   UNL     1      49.011   5.284  16.684  0.00  0.00    +0.000 A 
ATOM     24  C   UNL     1      47.958   4.371  16.484  0.00  0.00    +0.000 A 
ATOM     25  C   UNL     1      48.054   3.040  16.900  0.00  0.00    +0.000 A 
ATOM     26  C   UNL     1      49.212   2.590  17.526  0.00  0.00    +0.000 A 
ATOM     27  C   UNL     1      50.271   3.468  17.734  0.00  0.00    +0.000 A 
ATOM     28  C   UNL     1      50.171   4.799  17.315  0.00  0.00    +0.000 A 
ENDBRANCH  21  23
ENDBRANCH   1  17
TORSDOF 4
ENDMDL
MODEL 8
REMARK VINA RESULT:    -6.250      3.680      6.539
REMARK INTER + INTRA:          -8.706
REMARK INTER:                  -7.756
REMARK INTRA:                  -0.949
REMARK UNBOUND:                -0.995
REMARK  Name = 
REMARK  4 active torsions:
REMARK  status: ('A' for Active; 'I' for Inactive)
REMARK    1  A    between atoms: C_2  and  C_4
REMARK    2  A    between atoms: N_8  and  C_9
REMARK    3  A    between atoms: C_9  and  C_10
REMARK    4  A    between atoms: C_14  and  C_15
REMARK                            x       y       z     vdW  Elec       q    Type
REMARK                         _______ _______ _______ _____ _____    ______ ____
ROOT
ATOM      1  C   UNL     1      49.124   8.241  12.521  0.00  0.00    +0.000 C 
ATOM      2  C   UNL     1      50.299   8.961  11.863  0.00  0.00    +0.000 C 
ATOM      3  C   UNL     1      50.241   7.473  11.835  0.00  0.00    +0.000 C 
ENDROOT
BRANCH   1   8
ATOM      4  C   UNL     1      44.425   6.165  11.660  0.00  0.00    +0.000 A 
ATOM      5  C   UNL     1      45.670   5.548  11.617  0.00  0.00    +0.000 A 
ATOM      6  C   UNL     1      46.824   6.326  11.724  0.00  0.00    +0.000 A 
ATOM      7  C   UNL     1      46.715   7.700  11.881  0.00  0.00    +0.000 A 
ATOM      8  N   UNL     1      47.819   8.558  11.894  0.00  0.00    +0.000 N 
ATOM      9  N   UNL     1      45.508   8.314  11.911  0.00  0.00    +0.000 NA
ATOM     10  C   UNL     1      44.393   7.542  11.793  0.00  0.00    +0.000 A 
ATOM     11  H   UNL     1      47.432   9.471  12.128  0.00  0.00    +0.000 HD
BRANCH   4  13
ATOM     12  N   UNL     1      42.005   6.080  11.751  0.00  0.00    +0.000 N 
ATOM     13  C   UNL     1      43.171   5.400  11.527  0.00  0.00    +0.000 C 
ATOM     14  O   UNL     1      43.169   4.216  11.200  0.00  0.00    +0.000 OA
ATOM     15  H   UNL     1      41.141   5.575  11.600  0.00  0.00    +0.000 HD
ATOM     16  H   UNL     1      41.956   7.088  11.805  0.00  0.00    +0.000 HD
ENDBRANCH   4  13
ENDBRANCH   1   8
BRANCH   1  17
ATOM     17  C   UNL     1      49.061   8.157  14.052  0.00  0.00    +0.000 A 
ATOM     18  C   UNL     1      48.874   9.304  14.825  0.00  0.00    +0.000 A 
ATOM     19  C   UNL     1      48.683   9.189  16.195  0.00  0.00    +0.000 A 
ATOM     20  C   UNL     1      48.681   7.927  16.773  0.00  0.00    +0.000 A 
ATOM     21  C   UNL     1      48.899   6.810  15.970  0.00  0.00    +0.000 A 
ATOM     22  N   UNL     1      49.098   6.928  14.630  0.00  0.00    +0.000 NA
BRANCH  21  23
ATOM     23  C   UNL     1      48.875   5.428  16.495  0.00  0.00    +0.000 A 
ATOM     24  C   UNL     1      49.968   4.920  17.224  0.00  0.00    +0.000 A 
ATOM     25  C   UNL     1      49.977   3.611  17.713  0.00  0.00    +0.000 A 
ATOM     26  C   UNL     1      48.886   2.777  17.485  0.00  0.00    +0.000 A 
ATOM     27  C   UNL     1      47.790   3.252  16.772  0.00  0.00    +0.000 A 
ATOM     28  C   UNL     1      47.785   4.563  16.284  0.00  0.00    +0.000 A 
ENDBRANCH  21  23
ENDBRANCH   1  17
TORSDOF 4
ENDMDL
