MODEL 1
REMARK VINA RESULT:    -8.247      0.000      0.000
REMARK INTER + INTRA:         -10.945
REMARK INTER:                 -10.658
REMARK INTRA:                  -0.287
REMARK UNBOUND:                -0.287
REMARK  Name = 
REMARK  6 active torsions:
REMARK  status: ('A' for Active; 'I' for Inactive)
REMARK    1  A    between atoms: C_1  and  O_2
REMARK    2  A    between atoms: O_2  and  C_3
REMARK    3  A    between atoms: C_5  and  C_6
REMARK    4  A    between atoms: C_11  and  N_12
REMARK    5  A    between atoms: N_12  and  C_13
REMARK    6  A    between atoms: C_13  and  C_14
REMARK                            x       y       z     vdW  Elec       q    Type
REMARK                         _______ _______ _______ _____ _____    ______ ____
ROOT
ATOM      1  C   UNL     1      44.588   2.695   9.475  0.00  0.00    +0.000 A 
ATOM      2  C   UNL     1      45.497   1.867   8.794  0.00  0.00    +0.000 A 
ATOM      3  C   UNL     1      46.404   2.399   7.875  0.00  0.00    +0.000 A 
ATOM      4  C   UNL     1      46.366   3.763   7.677  0.00  0.00    +0.000 A 
ATOM      5  N   UNL     1      45.489   4.592   8.295  0.00  0.00    +0.000 NA
ATOM      6  C   UNL     1      44.607   4.071   9.187  0.00  0.00    +0.000 A 
ENDROOT
BRANCH   3   7
ATOM      7  C   UNL     1      47.313   1.472   7.153  0.00  0.00    +0.000 C 
ATOM      8  N   UNL     1      48.442   1.970   6.558  0.00  0.00    +0.000 N 
ATOM      9  O   UNL     1      47.069   0.277   7.079  0.00  0.00    +0.000 OA
ATOM     10  H   UNL     1      48.744   2.931   6.561  0.00  0.00    +0.000 HD
ATOM     11  H   UNL     1      49.022   1.300   6.071  0.00  0.00    +0.000 HD
ENDBRANCH   3   7
BRANCH   1  13
ATOM     12  C   UNL     1      43.956   2.146  11.711  0.00  0.00    +0.000 C 
ATOM     13  O   UNL     1      43.635   2.208  10.327  0.00  0.00    +0.000 OA
ENDBRANCH   1  13
BRANCH   6  14
ATOM     14  N   UNL     1      43.754   5.042   9.704  0.00  0.00    +0.000 N 
ATOM     15  H   UNL     1      43.268   5.485   8.933  0.00  0.00    +0.000 HD
BRANCH  14  16
ATOM     16  C   UNL     1      43.738   5.692  11.016  0.00  0.00    +0.000 C 
ATOM     17  C   UNL     1      42.580   5.224  11.905  0.00  0.00    +0.000 C 
ATOM     18  C   UNL     1      42.653   6.650  11.485  0.00  0.00    +0.000 C 
BRANCH  16  19
ATOM     19  C   UNL     1      45.117   5.852  11.632  0.00  0.00    +0.000 A 
ATOM     20  C   UNL     1      46.044   6.783  11.135  0.00  0.00    +0.000 A 
ATOM     21  C   UNL     1      47.258   7.018  11.793  0.00  0.00    +0.000 A 
ATOM     22  C   UNL     1      47.572   6.312  12.957  0.00  0.00    +0.000 A 
ATOM     23 CL   UNL     1      49.056   6.688  13.755  0.00  0.00    +0.000 Cl
ATOM     24  C   UNL     1      46.687   5.355  13.450  0.00  0.00    +0.000 A 
ATOM     25 CL   UNL     1      46.989   4.437  14.880  0.00  0.00    +0.000 Cl
ATOM     26  C   UNL     1      45.483   5.132  12.787  0.00  0.00    +0.000 A 
ENDBRANCH  16  19
ENDBRANCH  14  16
ENDBRANCH   6  14
TORSDOF 5
ENDMDL
MODEL 2
REMARK VINA RESULT:    -7.351      4.048      6.539
REMARK INTER + INTRA:          -9.786
REMARK INTER:                  -9.549
REMARK INTRA:                  -0.238
REMARK UNBOUND:                -0.287
REMARK  Name = 
REMARK  6 active torsions:
REMARK  status: ('A' for Active; 'I' for Inactive)
REMARK    1  A    between atoms: C_1  and  O_2
REMARK    2  A    between atoms: O_2  and  C_3
REMARK    3  A    between atoms: C_5  and  C_6
REMARK    4  A    between atoms: C_11  and  N_12
REMARK    5  A    between atoms: N_12  and  C_13
REMARK    6  A    between atoms: C_13  and  C_14
REMARK                            x       y       z     vdW  Elec       q    Type
REMARK                         _______ _______ _______ _____ _____    ______ ____
ROOT
ATOM      1  C   UNL     1      44.974   7.477  11.812  0.00  0.00    +0.000 A 
ATOM      2  C   UNL     1      45.857   8.182  12.648  0.00  0.00    +0.000 A 
ATOM      3  C   UNL     1      46.986   7.562  13.186  0.00  0.00    +0.000 A 
ATOM      4  C   UNL     1      47.191   6.240  12.855  0.00  0.00    +0.000 A 
ATOM      5  N   UNL     1      46.351   5.518  12.072  0.00  0.00    +0.000 NA
ATOM      6  C   UNL     1      45.253   6.125  11.552  0.00  0.00    +0.000 A 
ENDROOT
BRANCH   3   7
ATOM      7  C   UNL     1      47.862   8.343  14.098  0.00  0.00    +0.000 C 
ATOM      8  N   UNL     1      47.297   9.037  15.137  0.00  0.00    +0.000 N 
ATOM      9  O   UNL     1      49.072   8.379  13.936  0.00  0.00    +0.000 OA
ATOM     10  H   UNL     1      46.317   9.073  15.368  0.00  0.00    +0.000 HD
ATOM     11  H   UNL     1      47.934   9.560  15.722  0.00  0.00    +0.000 HD
ENDBRANCH   3   7
BRANCH   1  13
ATOM     12  C   UNL     1      43.862   9.375  10.885  0.00  0.00    +0.000 C 
ATOM     13  O   UNL     1      43.819   8.024  11.325  0.00  0.00    +0.000 OA
ENDBRANCH   1  13
BRANCH   6  14
ATOM     14  N   UNL     1      44.476   5.243  10.806  0.00  0.00    +0.000 N 
ATOM     15  H   UNL     1      43.591   5.691  10.598  0.00  0.00    +0.000 HD
BRANCH  14  16
ATOM     16  C   UNL     1      44.594   3.795  10.619  0.00  0.00    +0.000 C 
ATOM     17  C   UNL     1      43.340   3.028  11.053  0.00  0.00    +0.000 C 
ATOM     18  C   UNL     1      44.629   2.784  11.755  0.00  0.00    +0.000 C 
BRANCH  16  19
ATOM     19  C   UNL     1      45.280   3.404   9.321  0.00  0.00    +0.000 A 
ATOM     20  C   UNL     1      45.717   4.368   8.399  0.00  0.00    +0.000 A 
ATOM     21  C   UNL     1      46.468   4.006   7.273  0.00  0.00    +0.000 A 
ATOM     22  C   UNL     1      46.784   2.664   7.045  0.00  0.00    +0.000 A 
ATOM     23 CL   UNL     1      47.762   2.286   5.673  0.00  0.00    +0.000 Cl
ATOM     24  C   UNL     1      46.329   1.683   7.924  0.00  0.00    +0.000 A 
ATOM     25 CL   UNL     1      46.671   0.003   7.724  0.00  0.00    +0.000 Cl
ATOM     26  C   UNL     1      45.585   2.058   9.040  0.00  0.00    +0.000 A 
ENDBRANCH  16  19
ENDBRANCH  14  16
ENDBRANCH   6  14
TORSDOF 5
ENDMDL
MODEL 3
REMARK VINA RESULT:    -7.344      4.143      6.539
REMARK INTER + INTRA:          -9.778
REMARK INTER:                  -9.554
REMARK INTRA:                  -0.224
REMARK UNBOUND:                -0.287
REMARK  Name = 
REMARK  6 active torsions:
REMARK  status: ('A' for Active; 'I' for Inactive)
REMARK    1  A    between atoms: C_1  and  O_2
REMARK    2  A    between atoms: O_2  and  C_3
REMARK    3  A    between atoms: C_5  and  C_6
REMARK    4  A    between atoms: C_11  and  N_12
REMARK    5  A    between atoms: N_12  and  C_13
REMARK    6  A    between atoms: C_13  and  C_14
REMARK                            x       y       z     vdW  Elec       q    Type
REMARK                         _______ _______ _______ _____ _____    ______ ____
ROOT
ATOM      1  C   UNL     1      46.779   6.331  12.919  0.00  0.00    +0.000 A 
ATOM      2  C   UNL     1      47.479   6.251  14.135  0.00  0.00    +0.000 A 
ATOM      3  C   UNL     1      47.484   5.073  14.885  0.00  0.00    +0.000 A 
ATOM      4  C   UNL     1      46.780   4.003  14.373  0.00  0.00    +0.000 A 
ATOM      5  N   UNL     1      46.072   4.048  13.217  0.00  0.00    +0.000 NA
ATOM      6  C   UNL     1      46.069   5.197  12.492  0.00  0.00    +0.000 A 
ENDROOT
BRANCH   3   7
ATOM      7  C   UNL     1      48.206   5.057  16.183  0.00  0.00    +0.000 C 
ATOM      8  N   UNL     1      48.223   6.191  16.954  0.00  0.00    +0.000 N 
ATOM      9  O   UNL     1      48.785   4.055  16.573  0.00  0.00    +0.000 OA
ATOM     10  H   UNL     1      47.776   7.068  16.735  0.00  0.00    +0.000 HD
ATOM     11  H   UNL     1      48.735   6.132  17.823  0.00  0.00    +0.000 HD
ENDBRANCH   3   7
BRANCH   1  13
ATOM     12  C   UNL     1      45.737   8.457  12.613  0.00  0.00    +0.000 C 
ATOM     13  O   UNL     1      46.686   7.486  12.192  0.00  0.00    +0.000 OA
ENDBRANCH   1  13
BRANCH   6  14
ATOM     14  N   UNL     1      45.269   5.093  11.358  0.00  0.00    +0.000 N 
ATOM     15  H   UNL     1      44.910   6.014  11.133  0.00  0.00    +0.000 HD
BRANCH  14  16
ATOM     16  C   UNL     1      44.646   3.922  10.737  0.00  0.00    +0.000 C 
ATOM     17  C   UNL     1      43.116   3.931  10.835  0.00  0.00    +0.000 C 
ATOM     18  C   UNL     1      43.888   2.847  11.502  0.00  0.00    +0.000 C 
BRANCH  16  19
ATOM     19  C   UNL     1      45.293   3.513   9.425  0.00  0.00    +0.000 A 
ATOM     20  C   UNL     1      45.735   4.466   8.493  0.00  0.00    +0.000 A 
ATOM     21  C   UNL     1      46.452   4.085   7.351  0.00  0.00    +0.000 A 
ATOM     22  C   UNL     1      46.728   2.736   7.116  0.00  0.00    +0.000 A 
ATOM     23 CL   UNL     1      47.666   2.333   5.724  0.00  0.00    +0.000 Cl
ATOM     24  C   UNL     1      46.267   1.767   8.006  0.00  0.00    +0.000 A 
ATOM     25 CL   UNL     1      46.561   0.078   7.799  0.00  0.00    +0.000 Cl
ATOM     26  C   UNL     1      45.557   2.160   9.137  0.00  0.00    +0.000 A 
ENDBRANCH  16  19
ENDBRANCH  14  16
ENDBRANCH   6  14
TORSDOF 5
ENDMDL
MODEL 4
REMARK VINA RESULT:    -7.207      3.999      6.385
REMARK INTER + INTRA:          -9.601
REMARK INTER:                  -9.998
REMARK INTRA:                   0.398
REMARK UNBOUND:                -0.287
REMARK  Name = 
REMARK  6 active torsions:
REMARK  status: ('A' for Active; 'I' for Inactive)
REMARK    1  A    between atoms: C_1  and  O_2
REMARK    2  A    between atoms: O_2  and  C_3
REMARK    3  A    between atoms: C_5  and  C_6
REMARK    4  A    between atoms: C_11  and  N_12
REMARK    5  A    between atoms: N_12  and  C_13
REMARK    6  A    between atoms: C_13  and  C_14
REMARK                            x       y       z     vdW  Elec       q    Type
REMARK                         _______ _______ _______ _____ _____    ______ ____
ROOT
ATOM      1  C   UNL     1      46.820   4.822  13.837  0.00  0.00    +0.000 A 
ATOM      2  C   UNL     1      47.310   6.105  14.136  0.00  0.00    +0.000 A 
ATOM      3  C   UNL     1      47.043   7.189  13.298  0.00  0.00    +0.000 A 
ATOM      4  C   UNL     1      46.279   6.941  12.178  0.00  0.00    +0.000 A 
ATOM      5  N   UNL     1      45.809   5.714  11.841  0.00  0.00    +0.000 NA
ATOM      6  C   UNL     1      46.072   4.661  12.658  0.00  0.00    +0.000 A 
ENDROOT
BRANCH   3   7
ATOM      7  C   UNL     1      47.622   8.514  13.641  0.00  0.00    +0.000 C 
ATOM      8  N   UNL     1      47.499   8.987  14.922  0.00  0.00    +0.000 N 
ATOM      9  O   UNL     1      48.201   9.188  12.802  0.00  0.00    +0.000 OA
ATOM     10  H   UNL     1      47.050   8.517  15.691  0.00  0.00    +0.000 HD
ATOM     11  H   UNL     1      47.901   9.897  15.101  0.00  0.00    +0.000 HD
ENDBRANCH   3   7
BRANCH   1  13
ATOM     12  C   UNL     1      47.521   3.930  15.937  0.00  0.00    +0.000 C 
ATOM     13  O   UNL     1      47.119   3.720  14.590  0.00  0.00    +0.000 OA
ENDBRANCH   1  13
BRANCH   6  14
ATOM     14  N   UNL     1      45.555   3.471  12.156  0.00  0.00    +0.000 N 
ATOM     15  H   UNL     1      46.201   2.722  12.376  0.00  0.00    +0.000 HD
BRANCH  14  16
ATOM     16  C   UNL     1      44.517   3.234  11.150  0.00  0.00    +0.000 C 
ATOM     17  C   UNL     1      43.252   4.067  11.382  0.00  0.00    +0.000 C 
ATOM     18  C   UNL     1      43.173   2.582  11.440  0.00  0.00    +0.000 C 
BRANCH  16  19
ATOM     19  C   UNL     1      45.060   3.105   9.736  0.00  0.00    +0.000 A 
ATOM     20  C   UNL     1      45.192   4.219   8.893  0.00  0.00    +0.000 A 
ATOM     21  C   UNL     1      45.819   4.112   7.644  0.00  0.00    +0.000 A 
ATOM     22  C   UNL     1      46.314   2.879   7.213  0.00  0.00    +0.000 A 
ATOM     23 CL   UNL     1      47.128   2.822   5.692  0.00  0.00    +0.000 Cl
ATOM     24  C   UNL     1      46.160   1.749   8.014  0.00  0.00    +0.000 A 
ATOM     25 CL   UNL     1      46.740   0.187   7.565  0.00  0.00    +0.000 Cl
ATOM     26  C   UNL     1      45.536   1.870   9.254  0.00  0.00    +0.000 A 
ENDBRANCH  16  19
ENDBRANCH  14  16
ENDBRANCH   6  14
TORSDOF 5
ENDMDL
MODEL 5
REMARK VINA RESULT:    -6.721      1.610      2.191
REMARK INTER + INTRA:          -8.972
REMARK INTER:                  -9.164
REMARK INTRA:                   0.192
REMARK UNBOUND:                -0.287
REMARK  Name = 
REMARK  6 active torsions:
REMARK  status: ('A' for Active; 'I' for Inactive)
REMARK    1  A    between atoms: C_1  and  O_2
REMARK    2  A    between atoms: O_2  and  C_3
REMARK    3  A    between atoms: C_5  and  C_6
REMARK    4  A    between atoms: C_11  and  N_12
REMARK    5  A    between atoms: N_12  and  C_13
REMARK    6  A    between atoms: C_13  and  C_14
REMARK                            x       y       z     vdW  Elec       q    Type
REMARK                         _______ _______ _______ _____ _____    ______ ____
ROOT
ATOM      1  C   UNL     1      44.744   3.235   9.264  0.00  0.00    +0.000 A 
ATOM      2  C   UNL     1      45.436   2.482   8.300  0.00  0.00    +0.000 A 
ATOM      3  C   UNL     1      46.451   3.056   7.532  0.00  0.00    +0.000 A 
ATOM      4  C   UNL     1      46.741   4.382   7.771  0.00  0.00    +0.000 A 
ATOM      5  N   UNL     1      46.081   5.150   8.674  0.00  0.00    +0.000 NA
ATOM      6  C   UNL     1      45.093   4.588   9.417  0.00  0.00    +0.000 A 
ENDROOT
BRANCH   3   7
ATOM      7  C   UNL     1      47.119   2.224   6.498  0.00  0.00    +0.000 C 
ATOM      8  N   UNL     1      47.751   2.840   5.449  0.00  0.00    +0.000 N 
ATOM      9  O   UNL     1      47.112   1.004   6.566  0.00  0.00    +0.000 OA
ATOM     10  H   UNL     1      47.825   3.833   5.297  0.00  0.00    +0.000 HD
ATOM     11  H   UNL     1      48.181   2.230   4.768  0.00  0.00    +0.000 HD
ENDBRANCH   3   7
BRANCH   1  13
ATOM     12  C   UNL     1      43.975   2.185  11.265  0.00  0.00    +0.000 C 
ATOM     13  O   UNL     1      43.695   2.734   9.984  0.00  0.00    +0.000 OA
ENDBRANCH   1  13
BRANCH   6  14
ATOM     14  N   UNL     1      44.492   5.512  10.266  0.00  0.00    +0.000 N 
ATOM     15  H   UNL     1      43.894   6.115   9.713  0.00  0.00    +0.000 HD
BRANCH  14  16
ATOM     16  C   UNL     1      44.845   5.925  11.626  0.00  0.00    +0.000 C 
ATOM     17  C   UNL     1      45.096   4.743  12.568  0.00  0.00    +0.000 C 
ATOM     18  C   UNL     1      43.976   5.681  12.850  0.00  0.00    +0.000 C 
BRANCH  16  19
ATOM     19  C   UNL     1      45.791   7.113  11.673  0.00  0.00    +0.000 A 
ATOM     20  C   UNL     1      45.325   8.418  11.900  0.00  0.00    +0.000 A 
ATOM     21  C   UNL     1      46.216   9.485  12.078  0.00  0.00    +0.000 A 
ATOM     22  C   UNL     1      47.594   9.264  12.018  0.00  0.00    +0.000 A 
ATOM     23 CL   UNL     1      48.642  10.605  12.303  0.00  0.00    +0.000 Cl
ATOM     24  C   UNL     1      48.082   7.985  11.755  0.00  0.00    +0.000 A 
ATOM     25 CL   UNL     1      49.766   7.616  11.663  0.00  0.00    +0.000 Cl
ATOM     26  C   UNL     1      47.185   6.933  11.582  0.00  0.00    +0.000 A 
ENDBRANCH  16  19
ENDBRANCH  14  16
ENDBRANCH   6  14
TORSDOF 5
ENDMDL
MODEL 6
REMARK VINA RESULT:    -6.600      3.984      5.762
REMARK INTER + INTRA:          -8.815
REMARK INTER:                  -8.576
REMARK INTRA:                  -0.239
REMARK UNBOUND:                -0.287
REMARK  Name = 
REMARK  6 active torsions:
REMARK  status: ('A' for Active; 'I' for Inactive)
REMARK    1  A    between atoms: C_1  and  O_2
REMARK    2  A    between atoms: O_2  and  C_3
REMARK    3  A    between atoms: C_5  and  C_6
REMARK    4  A    between atoms: C_11  and  N_12
REMARK    5  A    between atoms: N_12  and  C_13
REMARK    6  A    between atoms: C_13  and  C_14
REMARK                            x       y       z     vdW  Elec       q    Type
REMARK                         _______ _______ _______ _____ _____    ______ ____
ROOT
ATOM      1  C   UNL     1      47.237   5.852  13.098  0.00  0.00    +0.000 A 
ATOM      2  C   UNL     1      48.557   6.326  13.001  0.00  0.00    +0.000 A 
ATOM      3  C   UNL     1      48.830   7.588  12.470  0.00  0.00    +0.000 A 
ATOM      4  C   UNL     1      47.750   8.340  12.058  0.00  0.00    +0.000 A 
ATOM      5  N   UNL     1      46.464   7.910  12.113  0.00  0.00    +0.000 NA
ATOM      6  C   UNL     1      46.204   6.680  12.628  0.00  0.00    +0.000 A 
ENDROOT
BRANCH   3   7
ATOM      7  C   UNL     1      50.246   8.021  12.351  0.00  0.00    +0.000 C 
ATOM      8  N   UNL     1      51.015   7.524  11.331  0.00  0.00    +0.000 N 
ATOM      9  O   UNL     1      50.736   8.807  13.148  0.00  0.00    +0.000 OA
ATOM     10  H   UNL     1      50.714   6.879  10.618  0.00  0.00    +0.000 HD
ATOM     11  H   UNL     1      51.973   7.841  11.300  0.00  0.00    +0.000 HD
ENDBRANCH   3   7
BRANCH   1  13
ATOM     12  C   UNL     1      46.939   4.370  14.945  0.00  0.00    +0.000 C 
ATOM     13  O   UNL     1      46.932   4.595  13.541  0.00  0.00    +0.000 OA
ENDBRANCH   1  13
BRANCH   6  14
ATOM     14  N   UNL     1      44.847   6.373  12.579  0.00  0.00    +0.000 N 
ATOM     15  H   UNL     1      44.356   6.989  13.216  0.00  0.00    +0.000 HD
BRANCH  14  16
ATOM     16  C   UNL     1      44.159   5.181  12.078  0.00  0.00    +0.000 C 
ATOM     17  C   UNL     1      42.650   5.202  12.343  0.00  0.00    +0.000 C 
ATOM     18  C   UNL     1      43.489   4.141  12.964  0.00  0.00    +0.000 C 
BRANCH  16  19
ATOM     19  C   UNL     1      44.659   4.717  10.720  0.00  0.00    +0.000 A 
ATOM     20  C   UNL     1      45.380   5.570   9.869  0.00  0.00    +0.000 A 
ATOM     21  C   UNL     1      45.953   5.094   8.683  0.00  0.00    +0.000 A 
ATOM     22  C   UNL     1      45.801   3.753   8.320  0.00  0.00    +0.000 A 
ATOM     23 CL   UNL     1      46.579   3.212   6.878  0.00  0.00    +0.000 Cl
ATOM     24  C   UNL     1      45.057   2.895   9.128  0.00  0.00    +0.000 A 
ATOM     25 CL   UNL     1      44.816   1.225   8.762  0.00  0.00    +0.000 Cl
ATOM     26  C   UNL     1      44.494   3.381  10.306  0.00  0.00    +0.000 A 
ENDBRANCH  16  19
ENDBRANCH  14  16
ENDBRANCH   6  14
TORSDOF 5
ENDMDL
MODEL 7
REMARK VINA RESULT:    -6.528      4.936      6.890
REMARK INTER + INTRA:          -8.723
REMARK INTER:                  -8.337
REMARK INTRA:                  -0.386
REMARK UNBOUND:                -0.287
REMARK  Name = 
REMARK  6 active torsions:
REMARK  status: ('A' for Active; 'I' for Inactive)
REMARK    1  A    between atoms: C_1  and  O_2
REMARK    2  A    between atoms: O_2  and  C_3
REMARK    3  A    between atoms: C_5  and  C_6
REMARK    4  A    between atoms: C_11  and  N_12
REMARK    5  A    between atoms: N_12  and  C_13
REMARK    6  A    between atoms: C_13  and  C_14
REMARK                            x       y       z     vdW  Elec       q    Type
REMARK                         _______ _______ _______ _____ _____    ______ ____
ROOT
ATOM      1  C   UNL     1      47.401   5.322  14.018  0.00  0.00    +0.000 A 
ATOM      2  C   UNL     1      46.751   5.902  12.915  0.00  0.00    +0.000 A 
ATOM      3  C   UNL     1      45.862   5.161  12.133  0.00  0.00    +0.000 A 
ATOM      4  C   UNL     1      45.652   3.848  12.500  0.00  0.00    +0.000 A 
ATOM      5  N   UNL     1      46.277   3.245  13.541  0.00  0.00    +0.000 NA
ATOM      6  C   UNL     1      47.142   3.969  14.298  0.00  0.00    +0.000 A 
ENDROOT
BRANCH   3   7
ATOM      7  C   UNL     1      45.237   5.812  10.953  0.00  0.00    +0.000 C 
ATOM      8  N   UNL     1      44.176   6.660  11.140  0.00  0.00    +0.000 N 
ATOM      9  O   UNL     1      45.649   5.602   9.823  0.00  0.00    +0.000 OA
ATOM     10  H   UNL     1      43.760   6.910  12.024  0.00  0.00    +0.000 HD
ATOM     11  H   UNL     1      43.781   7.070  10.306  0.00  0.00    +0.000 HD
ENDBRANCH   3   7
BRANCH   1  13
ATOM     12  C   UNL     1      49.010   7.079  14.152  0.00  0.00    +0.000 C 
ATOM     13  O   UNL     1      48.333   5.988  14.764  0.00  0.00    +0.000 OA
ENDBRANCH   1  13
BRANCH   6  14
ATOM     14  N   UNL     1      47.727   3.200  15.300  0.00  0.00    +0.000 N 
ATOM     15  H   UNL     1      47.703   2.228  15.013  0.00  0.00    +0.000 HD
BRANCH  14  16
ATOM     16  C   UNL     1      48.000   3.514  16.704  0.00  0.00    +0.000 C 
ATOM     17  C   UNL     1      47.006   2.863  17.671  0.00  0.00    +0.000 C 
ATOM     18  C   UNL     1      47.086   4.346  17.590  0.00  0.00    +0.000 C 
BRANCH  16  19
ATOM     19  C   UNL     1      49.479   3.500  17.052  0.00  0.00    +0.000 A 
ATOM     20  C   UNL     1      50.166   4.674  17.400  0.00  0.00    +0.000 A 
ATOM     21  C   UNL     1      51.491   4.631  17.851  0.00  0.00    +0.000 A 
ATOM     22  C   UNL     1      52.158   3.407  17.949  0.00  0.00    +0.000 A 
ATOM     23 CL   UNL     1      53.770   3.412  18.567  0.00  0.00    +0.000 Cl
ATOM     24  C   UNL     1      51.512   2.231  17.573  0.00  0.00    +0.000 A 
ATOM     25 CL   UNL     1      52.254   0.675  17.661  0.00  0.00    +0.000 Cl
ATOM     26  C   UNL     1      50.193   2.288  17.128  0.00  0.00    +0.000 A 
ENDBRANCH  16  19
ENDBRANCH  14  16
ENDBRANCH   6  14
TORSDOF 5
ENDMDL
MODEL 8
REMARK VINA RESULT:    -6.354      3.088      4.841
REMARK INTER + INTRA:          -8.498
REMARK INTER:                  -8.167
REMARK INTRA:                  -0.331
REMARK UNBOUND:                -0.287
REMARK  Name = 
REMARK  6 active torsions:
REMARK  status: ('A' for Active; 'I' for Inactive)
REMARK    1  A    between atoms: C_1  and  O_2
REMARK    2  A    between atoms: O_2  and  C_3
REMARK    3  A    between atoms: C_5  and  C_6
REMARK    4  A    between atoms: C_11  and  N_12
REMARK    5  A    between atoms: N_12  and  C_13
REMARK    6  A    between atoms: C_13  and  C_14
REMARK                            x       y       z     vdW  Elec       q    Type
REMARK                         _______ _______ _______ _____ _____    ______ ____
ROOT
ATOM      1  C   UNL     1      45.485   5.920  11.332  0.00  0.00    +0.000 A 
ATOM      2  C   UNL     1      45.062   5.111  10.263  0.00  0.00    +0.000 A 
ATOM      3  C   UNL     1      44.928   3.730  10.418  0.00  0.00    +0.000 A 
ATOM      4  C   UNL     1      45.221   3.208  11.659  0.00  0.00    +0.000 A 
ATOM      5  N   UNL     1      45.655   3.950  12.708  0.00  0.00    +0.000 NA
ATOM      6  C   UNL     1      45.786   5.293  12.553  0.00  0.00    +0.000 A 
ENDROOT
BRANCH   3   7
ATOM      7  C   UNL     1      44.519   2.918   9.242  0.00  0.00    +0.000 C 
ATOM      8  N   UNL     1      44.204   3.551   8.068  0.00  0.00    +0.000 N 
ATOM      9  O   UNL     1      44.456   1.699   9.306  0.00  0.00    +0.000 OA
ATOM     10  H   UNL     1      44.228   4.544   7.900  0.00  0.00    +0.000 HD
ATOM     11  H   UNL     1      43.923   2.954   7.302  0.00  0.00    +0.000 HD
ENDBRANCH   3   7
BRANCH   1  13
ATOM     12  C   UNL     1      44.592   8.133  11.396  0.00  0.00    +0.000 C 
ATOM     13  O   UNL     1      45.701   7.264  11.204  0.00  0.00    +0.000 OA
ENDBRANCH   1  13
BRANCH   6  14
ATOM     14  N   UNL     1      46.274   5.904  13.705  0.00  0.00    +0.000 N 
ATOM     15  H   UNL     1      45.494   6.310  14.208  0.00  0.00    +0.000 HD
BRANCH  14  16
ATOM     16  C   UNL     1      47.634   6.318  14.058  0.00  0.00    +0.000 C 
ATOM     17  C   UNL     1      47.924   7.785  13.723  0.00  0.00    +0.000 C 
ATOM     18  C   UNL     1      48.702   6.711  13.048  0.00  0.00    +0.000 C 
BRANCH  16  19
ATOM     19  C   UNL     1      48.110   5.763  15.390  0.00  0.00    +0.000 A 
ATOM     20  C   UNL     1      49.027   6.459  16.194  0.00  0.00    +0.000 A 
ATOM     21  C   UNL     1      49.355   6.007  17.479  0.00  0.00    +0.000 A 
ATOM     22  C   UNL     1      48.777   4.836  17.977  0.00  0.00    +0.000 A 
ATOM     23 CL   UNL     1      49.174   4.361  19.588  0.00  0.00    +0.000 Cl
ATOM     24  C   UNL     1      47.894   4.105  17.184  0.00  0.00    +0.000 A 
ATOM     25 CL   UNL     1      47.131   2.650  17.715  0.00  0.00    +0.000 Cl
ATOM     26  C   UNL     1      47.576   4.567  15.910  0.00  0.00    +0.000 A 
ENDBRANCH  16  19
ENDBRANCH  14  16
ENDBRANCH   6  14
TORSDOF 5
ENDMDL
MODEL 9
REMARK VINA RESULT:    -6.177      3.156      5.059
REMARK INTER + INTRA:          -8.269
REMARK INTER:                  -7.579
REMARK INTRA:                  -0.690
REMARK UNBOUND:                -0.287
REMARK  Name = 
REMARK  6 active torsions:
REMARK  status: ('A' for Active; 'I' for Inactive)
REMARK    1  A    between atoms: C_1  and  O_2
REMARK    2  A    between atoms: O_2  and  C_3
REMARK    3  A    between atoms: C_5  and  C_6
REMARK    4  A    between atoms: C_11  and  N_12
REMARK    5  A    between atoms: N_12  and  C_13
REMARK    6  A    between atoms: C_13  and  C_14
REMARK                            x       y       z     vdW  Elec       q    Type
REMARK                         _______ _______ _______ _____ _____    ______ ____
ROOT
ATOM      1  C   UNL     1      46.132   5.114  13.141  0.00  0.00    +0.000 A 
ATOM      2  C   UNL     1      45.437   4.002  12.635  0.00  0.00    +0.000 A 
ATOM      3  C   UNL     1      44.872   4.027  11.359  0.00  0.00    +0.000 A 
ATOM      4  C   UNL     1      45.035   5.184  10.626  0.00  0.00    +0.000 A 
ATOM      5  N   UNL     1      45.677   6.286  11.086  0.00  0.00    +0.000 NA
ATOM      6  C   UNL     1      46.223   6.258  12.329  0.00  0.00    +0.000 A 
ENDROOT
BRANCH   3   7
ATOM      7  C   UNL     1      44.112   2.839  10.892  0.00  0.00    +0.000 C 
ATOM      8  N   UNL     1      44.592   2.109   9.836  0.00  0.00    +0.000 N 
ATOM      9  O   UNL     1      43.068   2.505  11.430  0.00  0.00    +0.000 OA
ATOM     10  H   UNL     1      45.442   2.288   9.324  0.00  0.00    +0.000 HD
ATOM     11  H   UNL     1      44.033   1.316   9.551  0.00  0.00    +0.000 HD
ENDBRANCH   3   7
BRANCH   1  13
ATOM     12  C   UNL     1      47.194   3.964  14.942  0.00  0.00    +0.000 C 
ATOM     13  O   UNL     1      46.636   5.158  14.411  0.00  0.00    +0.000 OA
ENDBRANCH   1  13
BRANCH   6  14
ATOM     14  N   UNL     1      46.811   7.473  12.667  0.00  0.00    +0.000 N 
ATOM     15  H   UNL     1      46.129   8.210  12.523  0.00  0.00    +0.000 HD
BRANCH  14  16
ATOM     16  C   UNL     1      48.221   7.838  12.824  0.00  0.00    +0.000 C 
ATOM     17  C   UNL     1      48.690   8.881  11.804  0.00  0.00    +0.000 C 
ATOM     18  C   UNL     1      49.306   7.526  11.805  0.00  0.00    +0.000 C 
BRANCH  16  19
ATOM     19  C   UNL     1      48.652   7.985  14.274  0.00  0.00    +0.000 A 
ATOM     20  C   UNL     1      48.127   8.991  15.100  0.00  0.00    +0.000 A 
ATOM     21  C   UNL     1      48.427   9.034  16.468  0.00  0.00    +0.000 A 
ATOM     22  C   UNL     1      49.271   8.073  17.031  0.00  0.00    +0.000 A 
ATOM     23 CL   UNL     1      49.556   8.143  18.732  0.00  0.00    +0.000 Cl
ATOM     24  C   UNL     1      49.836   7.087  16.224  0.00  0.00    +0.000 A 
ATOM     25 CL   UNL     1      50.887   5.859  16.830  0.00  0.00    +0.000 Cl
ATOM     26  C   UNL     1      49.528   7.055  14.866  0.00  0.00    +0.000 A 
ENDBRANCH  16  19
ENDBRANCH  14  16
ENDBRANCH   6  14
TORSDOF 5
ENDMDL
