MODEL 1
REMARK VINA RESULT:    -7.733      0.000      0.000
REMARK INTER + INTRA:         -11.524
REMARK INTER:                 -10.446
REMARK INTRA:                  -1.079
REMARK UNBOUND:                -1.079
REMARK  Name = 
REMARK  6 active torsions:
REMARK  status: ('A' for Active; 'I' for Inactive)
REMARK    1  A    between atoms: C_2  and  C_25
REMARK    2  A    between atoms: N_3  and  C_4
REMARK    3  A    between atoms: C_4  and  C_5
REMARK    4  A    between atoms: C_8  and  C_9
REMARK    5  A    between atoms: C_9  and  N_10
REMARK    6  A    between atoms: C_11  and  C_13
REMARK                            x       y       z     vdW  Elec       q    Type
REMARK                         _______ _______ _______ _____ _____    ______ ____
ROOT
ATOM      1  C   UNL     1      44.952   6.082  10.926  0.00  0.00    +0.000 A 
ATOM      2  C   UNL     1      44.321   6.998  11.778  0.00  0.00    +0.000 A 
ATOM      3  C   UNL     1      45.070   7.776  12.670  0.00  0.00    +0.000 A 
ATOM      4  C   UNL     1      46.466   7.667  12.714  0.00  0.00    +0.000 A 
ATOM      5  C   UNL     1      47.094   6.746  11.865  0.00  0.00    +0.000 A 
ATOM      6  C   UNL     1      46.347   5.970  10.974  0.00  0.00    +0.000 A 
ENDROOT
BRANCH   1   7
ATOM      7  C   UNL     1      44.147   5.215   9.995  0.00  0.00    +0.000 C 
BRANCH   7  10
ATOM      8  O   UNL     1      44.239   2.467  10.120  0.00  0.00    +0.000 OA
ATOM      9  C   UNL     1      44.942   3.012   9.268  0.00  0.00    +0.000 C 
ATOM     10  N   UNL     1      44.963   4.391   9.141  0.00  0.00    +0.000 N 
ATOM     11  H   UNL     1      45.548   4.798   8.417  0.00  0.00    +0.000 HD
BRANCH   9  12
ATOM     12  C   UNL     1      45.800   2.302   8.322  0.00  0.00    +0.000 A 
ATOM     13  N   UNL     1      46.060   1.008   8.396  0.00  0.00    +0.000 NA
ATOM     14  C   UNL     1      46.900   0.654   7.354  0.00  0.00    +0.000 A 
ATOM     15  C   UNL     1      47.275   1.676   6.509  0.00  0.00    +0.000 A 
ATOM     16  S   UNL     1      46.546   3.140   7.020  0.00  0.00    +0.000 S 
ENDBRANCH   9  12
ENDBRANCH   7  10
ENDBRANCH   1   7
BRANCH   4  17
ATOM     17  C   UNL     1      47.280   8.488  13.680  0.00  0.00    +0.000 C 
BRANCH  17  18
ATOM     18  N   UNL     1      47.679   7.708  14.826  0.00  0.00    +0.000 N 
ATOM     19  C   UNL     1      48.929   7.150  14.905  0.00  0.00    +0.000 C 
ATOM     20  O   UNL     1      49.778   7.330  14.035  0.00  0.00    +0.000 OA
ATOM     21  H   UNL     1      46.938   7.360  15.427  0.00  0.00    +0.000 HD
BRANCH  19  22
ATOM     22  C   UNL     1      49.229   6.374  16.116  0.00  0.00    +0.000 A 
ATOM     23  C   UNL     1      50.271   6.768  16.946  0.00  0.00    +0.000 A 
ATOM     24  S   UNL     1      50.447   5.794  18.334  0.00  0.00    +0.000 S 
ATOM     25  C   UNL     1      49.172   4.778  17.849  0.00  0.00    +0.000 A 
ATOM     26  N   UNL     1      48.813   3.701  18.599  0.00  0.00    +0.000 NA
ATOM     27  C   UNL     1      47.853   2.997  18.098  0.00  0.00    +0.000 A 
ATOM     28  N   UNL     1      47.215   3.276  16.915  0.00  0.00    +0.000 N 
ATOM     29  C   UNL     1      47.529   4.364  16.137  0.00  0.00    +0.000 A 
ATOM     30  O   UNL     1      46.918   4.603  15.100  0.00  0.00    +0.000 OA
ATOM     31  C   UNL     1      48.609   5.184  16.652  0.00  0.00    +0.000 A 
ATOM     32  H   UNL     1      46.469   2.686  16.580  0.00  0.00    +0.000 HD
ENDBRANCH  19  22
ENDBRANCH  17  18
ENDBRANCH   4  17
TORSDOF 6
ENDMDL
MODEL 2
REMARK VINA RESULT:    -7.134      1.751      2.015
REMARK INTER + INTRA:         -10.715
REMARK INTER:                  -9.776
REMARK INTRA:                  -0.938
REMARK UNBOUND:                -1.079
REMARK  Name = 
REMARK  6 active torsions:
REMARK  status: ('A' for Active; 'I' for Inactive)
REMARK    1  A    between atoms: C_2  and  C_25
REMARK    2  A    between atoms: N_3  and  C_4
REMARK    3  A    between atoms: C_4  and  C_5
REMARK    4  A    between atoms: C_8  and  C_9
REMARK    5  A    between atoms: C_9  and  N_10
REMARK    6  A    between atoms: C_11  and  C_13
REMARK                            x       y       z     vdW  Elec       q    Type
REMARK                         _______ _______ _______ _____ _____    ______ ____
ROOT
ATOM      1  C   UNL     1      45.178   4.708  11.997  0.00  0.00    +0.000 A 
ATOM      2  C   UNL     1      46.032   4.422  13.070  0.00  0.00    +0.000 A 
ATOM      3  C   UNL     1      46.840   5.422  13.627  0.00  0.00    +0.000 A 
ATOM      4  C   UNL     1      46.794   6.733  13.134  0.00  0.00    +0.000 A 
ATOM      5  C   UNL     1      45.943   7.016  12.057  0.00  0.00    +0.000 A 
ATOM      6  C   UNL     1      45.136   6.018  11.502  0.00  0.00    +0.000 A 
ENDROOT
BRANCH   1   7
ATOM      7  C   UNL     1      44.340   3.627  11.370  0.00  0.00    +0.000 C 
BRANCH   7  10
ATOM      8  O   UNL     1      44.563   4.221   8.691  0.00  0.00    +0.000 OA
ATOM      9  C   UNL     1      45.135   3.204   9.089  0.00  0.00    +0.000 C 
ATOM     10  N   UNL     1      45.068   2.826  10.420  0.00  0.00    +0.000 N 
ATOM     11  H   UNL     1      45.564   1.987  10.706  0.00  0.00    +0.000 HD
BRANCH   9  12
ATOM     12  C   UNL     1      45.926   2.313   8.244  0.00  0.00    +0.000 A 
ATOM     13  N   UNL     1      46.003   1.006   8.426  0.00  0.00    +0.000 NA
ATOM     14  C   UNL     1      46.831   0.460   7.459  0.00  0.00    +0.000 A 
ATOM     15  C   UNL     1      47.377   1.353   6.562  0.00  0.00    +0.000 A 
ATOM     16  S   UNL     1      46.834   2.937   6.925  0.00  0.00    +0.000 S 
ENDBRANCH   9  12
ENDBRANCH   7  10
ENDBRANCH   1   7
BRANCH   4  17
ATOM     17  C   UNL     1      47.668   7.813  13.717  0.00  0.00    +0.000 C 
BRANCH  17  18
ATOM     18  N   UNL     1      47.863   7.622  15.133  0.00  0.00    +0.000 N 
ATOM     19  C   UNL     1      48.909   8.216  15.793  0.00  0.00    +0.000 C 
ATOM     20  O   UNL     1      49.692   8.973  15.223  0.00  0.00    +0.000 OA
ATOM     21  H   UNL     1      47.384   6.838  15.563  0.00  0.00    +0.000 HD
BRANCH  19  22
ATOM     22  C   UNL     1      49.013   7.953  17.234  0.00  0.00    +0.000 A 
ATOM     23  C   UNL     1      49.081   9.016  18.125  0.00  0.00    +0.000 A 
ATOM     24  S   UNL     1      49.141   8.537  19.760  0.00  0.00    +0.000 S 
ATOM     25  C   UNL     1      49.134   6.891  19.335  0.00  0.00    +0.000 A 
ATOM     26  N   UNL     1      49.197   5.923  20.289  0.00  0.00    +0.000 NA
ATOM     27  C   UNL     1      49.217   4.717  19.825  0.00  0.00    +0.000 A 
ATOM     28  N   UNL     1      49.175   4.391  18.493  0.00  0.00    +0.000 N 
ATOM     29  C   UNL     1      49.088   5.334  17.497  0.00  0.00    +0.000 A 
ATOM     30  O   UNL     1      49.020   5.009  16.316  0.00  0.00    +0.000 OA
ATOM     31  C   UNL     1      49.071   6.708  17.965  0.00  0.00    +0.000 A 
ATOM     32  H   UNL     1      49.191   3.427  18.197  0.00  0.00    +0.000 HD
ENDBRANCH  19  22
ENDBRANCH  17  18
ENDBRANCH   4  17
TORSDOF 6
ENDMDL
MODEL 3
REMARK VINA RESULT:    -7.124      1.976      2.353
REMARK INTER + INTRA:         -10.701
REMARK INTER:                  -9.814
REMARK INTRA:                  -0.888
REMARK UNBOUND:                -1.079
REMARK  Name = 
REMARK  6 active torsions:
REMARK  status: ('A' for Active; 'I' for Inactive)
REMARK    1  A    between atoms: C_2  and  C_25
REMARK    2  A    between atoms: N_3  and  C_4
REMARK    3  A    between atoms: C_4  and  C_5
REMARK    4  A    between atoms: C_8  and  C_9
REMARK    5  A    between atoms: C_9  and  N_10
REMARK    6  A    between atoms: C_11  and  C_13
REMARK                            x       y       z     vdW  Elec       q    Type
REMARK                         _______ _______ _______ _____ _____    ______ ____
ROOT
ATOM      1  C   UNL     1      45.244   4.542  12.267  0.00  0.00    +0.000 A 
ATOM      2  C   UNL     1      46.246   4.212  13.189  0.00  0.00    +0.000 A 
ATOM      3  C   UNL     1      47.034   5.210  13.775  0.00  0.00    +0.000 A 
ATOM      4  C   UNL     1      46.823   6.560  13.465  0.00  0.00    +0.000 A 
ATOM      5  C   UNL     1      45.824   6.888  12.539  0.00  0.00    +0.000 A 
ATOM      6  C   UNL     1      45.036   5.892  11.955  0.00  0.00    +0.000 A 
ENDROOT
BRANCH   1   7
ATOM      7  C   UNL     1      44.422   3.469  11.605  0.00  0.00    +0.000 C 
BRANCH   7  10
ATOM      8  O   UNL     1      44.322   4.159   8.941  0.00  0.00    +0.000 OA
ATOM      9  C   UNL     1      45.030   3.198   9.244  0.00  0.00    +0.000 C 
ATOM     10  N   UNL     1      45.133   2.777  10.560  0.00  0.00    +0.000 N 
ATOM     11  H   UNL     1      45.738   1.987  10.766  0.00  0.00    +0.000 HD
BRANCH   9  12
ATOM     12  C   UNL     1      45.823   2.419   8.295  0.00  0.00    +0.000 A 
ATOM     13  N   UNL     1      46.063   1.126   8.427  0.00  0.00    +0.000 NA
ATOM     14  C   UNL     1      46.840   0.698   7.364  0.00  0.00    +0.000 A 
ATOM     15  C   UNL     1      47.186   1.664   6.444  0.00  0.00    +0.000 A 
ATOM     16  S   UNL     1      46.512   3.169   6.910  0.00  0.00    +0.000 S 
ENDBRANCH   9  12
ENDBRANCH   7  10
ENDBRANCH   1   7
BRANCH   4  17
ATOM     17  C   UNL     1      47.675   7.641  14.079  0.00  0.00    +0.000 C 
BRANCH  17  18
ATOM     18  N   UNL     1      48.914   7.106  14.589  0.00  0.00    +0.000 N 
ATOM     19  C   UNL     1      49.315   7.348  15.878  0.00  0.00    +0.000 C 
ATOM     20  O   UNL     1      48.620   7.982  16.668  0.00  0.00    +0.000 OA
ATOM     21  H   UNL     1      49.594   6.789  13.906  0.00  0.00    +0.000 HD
BRANCH  19  22
ATOM     22  C   UNL     1      50.595   6.755  16.292  0.00  0.00    +0.000 A 
ATOM     23  C   UNL     1      51.785   7.392  15.965  0.00  0.00    +0.000 A 
ATOM     24  S   UNL     1      53.171   6.603  16.568  0.00  0.00    +0.000 S 
ATOM     25  C   UNL     1      52.235   5.353  17.239  0.00  0.00    +0.000 A 
ATOM     26  N   UNL     1      52.822   4.314  17.892  0.00  0.00    +0.000 NA
ATOM     27  C   UNL     1      51.996   3.418  18.323  0.00  0.00    +0.000 A 
ATOM     28  N   UNL     1      50.634   3.471  18.164  0.00  0.00    +0.000 N 
ATOM     29  C   UNL     1      49.996   4.512  17.533  0.00  0.00    +0.000 A 
ATOM     30  O   UNL     1      48.774   4.545  17.435  0.00  0.00    +0.000 OA
ATOM     31  C   UNL     1      50.882   5.542  17.021  0.00  0.00    +0.000 A 
ATOM     32  H   UNL     1      50.044   2.739  18.528  0.00  0.00    +0.000 HD
ENDBRANCH  19  22
ENDBRANCH  17  18
ENDBRANCH   4  17
TORSDOF 6
ENDMDL
MODEL 4
REMARK VINA RESULT:    -7.089      4.737      9.440
REMARK INTER + INTRA:         -10.654
REMARK INTER:                  -9.855
REMARK INTRA:                  -0.799
REMARK UNBOUND:                -1.079
REMARK  Name = 
REMARK  6 active torsions:
REMARK  status: ('A' for Active; 'I' for Inactive)
REMARK    1  A    between atoms: C_2  and  C_25
REMARK    2  A    between atoms: N_3  and  C_4
REMARK    3  A    between atoms: C_4  and  C_5
REMARK    4  A    between atoms: C_8  and  C_9
REMARK    5  A    between atoms: C_9  and  N_10
REMARK    6  A    between atoms: C_11  and  C_13
REMARK                            x       y       z     vdW  Elec       q    Type
REMARK                         _______ _______ _______ _____ _____    ______ ____
ROOT
ATOM      1  C   UNL     1      51.485   3.059  17.749  0.00  0.00    +0.000 A 
ATOM      2  C   UNL     1      50.827   4.260  18.047  0.00  0.00    +0.000 A 
ATOM      3  C   UNL     1      49.460   4.409  17.785  0.00  0.00    +0.000 A 
ATOM      4  C   UNL     1      48.718   3.354  17.238  0.00  0.00    +0.000 A 
ATOM      5  C   UNL     1      49.378   2.156  16.936  0.00  0.00    +0.000 A 
ATOM      6  C   UNL     1      50.743   2.006  17.198  0.00  0.00    +0.000 A 
ENDROOT
BRANCH   1   7
ATOM      7  C   UNL     1      52.963   2.909  17.991  0.00  0.00    +0.000 C 
BRANCH   7  10
ATOM      8  O   UNL     1      54.905   1.322  16.856  0.00  0.00    +0.000 OA
ATOM      9  C   UNL     1      54.323   0.873  17.845  0.00  0.00    +0.000 C 
ATOM     10  N   UNL     1      53.327   1.601  18.475  0.00  0.00    +0.000 N 
ATOM     11  H   UNL     1      52.883   1.198  19.295  0.00  0.00    +0.000 HD
BRANCH   9  12
ATOM     12  C   UNL     1      54.605  -0.424  18.456  0.00  0.00    +0.000 A 
ATOM     13  N   UNL     1      54.582  -0.641  19.760  0.00  0.00    +0.000 NA
ATOM     14  C   UNL     1      54.893  -1.968  20.005  0.00  0.00    +0.000 A 
ATOM     15  C   UNL     1      55.156  -2.739  18.893  0.00  0.00    +0.000 A 
ATOM     16  S   UNL     1      55.002  -1.782  17.480  0.00  0.00    +0.000 S 
ENDBRANCH   9  12
ENDBRANCH   7  10
ENDBRANCH   1   7
BRANCH   4  17
ATOM     17  C   UNL     1      47.249   3.509  16.940  0.00  0.00    +0.000 C 
BRANCH  17  18
ATOM     18  N   UNL     1      47.022   4.525  15.941  0.00  0.00    +0.000 N 
ATOM     19  C   UNL     1      47.091   4.234  14.602  0.00  0.00    +0.000 C 
ATOM     20  O   UNL     1      47.297   3.094  14.194  0.00  0.00    +0.000 OA
ATOM     21  H   UNL     1      47.083   5.492  16.245  0.00  0.00    +0.000 HD
BRANCH  19  22
ATOM     22  C   UNL     1      46.843   5.345  13.673  0.00  0.00    +0.000 A 
ATOM     23  C   UNL     1      47.866   6.237  13.378  0.00  0.00    +0.000 A 
ATOM     24  S   UNL     1      47.428   7.430  12.242  0.00  0.00    +0.000 S 
ATOM     25  C   UNL     1      45.839   6.832  12.145  0.00  0.00    +0.000 A 
ATOM     26  N   UNL     1      44.914   7.432  11.348  0.00  0.00    +0.000 NA
ATOM     27  C   UNL     1      43.740   6.896  11.394  0.00  0.00    +0.000 A 
ATOM     28  N   UNL     1      43.408   5.810  12.164  0.00  0.00    +0.000 N 
ATOM     29  C   UNL     1      44.314   5.158  12.966  0.00  0.00    +0.000 A 
ATOM     30  O   UNL     1      43.992   4.170  13.618  0.00  0.00    +0.000 OA
ATOM     31  C   UNL     1      45.649   5.727  12.956  0.00  0.00    +0.000 A 
ATOM     32  H   UNL     1      42.470   5.437  12.153  0.00  0.00    +0.000 HD
ENDBRANCH  19  22
ENDBRANCH  17  18
ENDBRANCH   4  17
TORSDOF 6
ENDMDL
MODEL 5
REMARK VINA RESULT:    -7.041      2.096      2.428
REMARK INTER + INTRA:         -10.589
REMARK INTER:                  -9.729
REMARK INTRA:                  -0.860
REMARK UNBOUND:                -1.079
REMARK  Name = 
REMARK  6 active torsions:
REMARK  status: ('A' for Active; 'I' for Inactive)
REMARK    1  A    between atoms: C_2  and  C_25
REMARK    2  A    between atoms: N_3  and  C_4
REMARK    3  A    between atoms: C_4  and  C_5
REMARK    4  A    between atoms: C_8  and  C_9
REMARK    5  A    between atoms: C_9  and  N_10
REMARK    6  A    between atoms: C_11  and  C_13
REMARK                            x       y       z     vdW  Elec       q    Type
REMARK                         _______ _______ _______ _____ _____    ______ ____
ROOT
ATOM      1  C   UNL     1      45.108   5.195  11.482  0.00  0.00    +0.000 A 
ATOM      2  C   UNL     1      45.215   6.574  11.251  0.00  0.00    +0.000 A 
ATOM      3  C   UNL     1      46.089   7.359  12.012  0.00  0.00    +0.000 A 
ATOM      4  C   UNL     1      46.888   6.779  13.006  0.00  0.00    +0.000 A 
ATOM      5  C   UNL     1      46.776   5.402  13.240  0.00  0.00    +0.000 A 
ATOM      6  C   UNL     1      45.904   4.617  12.479  0.00  0.00    +0.000 A 
ENDROOT
BRANCH   1   7
ATOM      7  C   UNL     1      44.139   4.355  10.694  0.00  0.00    +0.000 C 
BRANCH   7  10
ATOM      8  O   UNL     1      45.451   4.836   8.322  0.00  0.00    +0.000 OA
ATOM      9  C   UNL     1      45.430   3.671   8.724  0.00  0.00    +0.000 C 
ATOM     10  N   UNL     1      44.785   3.339   9.904  0.00  0.00    +0.000 N 
ATOM     11  H   UNL     1      44.803   2.368  10.204  0.00  0.00    +0.000 HD
BRANCH   9  12
ATOM     12  C   UNL     1      46.061   2.546   8.039  0.00  0.00    +0.000 A 
ATOM     13  N   UNL     1      46.031   1.303   8.489  0.00  0.00    +0.000 NA
ATOM     14  C   UNL     1      46.720   0.485   7.609  0.00  0.00    +0.000 A 
ATOM     15  C   UNL     1      47.269   1.111   6.511  0.00  0.00    +0.000 A 
ATOM     16  S   UNL     1      46.909   2.785   6.563  0.00  0.00    +0.000 S 
ENDBRANCH   9  12
ENDBRANCH   7  10
ENDBRANCH   1   7
BRANCH   4  17
ATOM     17  C   UNL     1      47.822   7.618  13.840  0.00  0.00    +0.000 C 
BRANCH  17  18
ATOM     18  N   UNL     1      47.917   7.114  15.188  0.00  0.00    +0.000 N 
ATOM     19  C   UNL     1      49.122   6.732  15.721  0.00  0.00    +0.000 C 
ATOM     20  O   UNL     1      50.174   6.847  15.099  0.00  0.00    +0.000 OA
ATOM     21  H   UNL     1      47.056   6.798  15.623  0.00  0.00    +0.000 HD
BRANCH  19  22
ATOM     22  C   UNL     1      49.102   6.232  17.103  0.00  0.00    +0.000 A 
ATOM     23  C   UNL     1      49.591   4.963  17.383  0.00  0.00    +0.000 A 
ATOM     24  S   UNL     1      49.547   4.562  19.039  0.00  0.00    +0.000 S 
ATOM     25  C   UNL     1      48.820   6.048  19.435  0.00  0.00    +0.000 A 
ATOM     26  N   UNL     1      48.485   6.341  20.721  0.00  0.00    +0.000 NA
ATOM     27  C   UNL     1      47.912   7.488  20.875  0.00  0.00    +0.000 A 
ATOM     28  N   UNL     1      47.647   8.372  19.860  0.00  0.00    +0.000 N 
ATOM     29  C   UNL     1      47.988   8.128  18.551  0.00  0.00    +0.000 A 
ATOM     30  O   UNL     1      47.766   8.953  17.670  0.00  0.00    +0.000 OA
ATOM     31  C   UNL     1      48.629   6.846  18.322  0.00  0.00    +0.000 A 
ATOM     32  H   UNL     1      47.197   9.255  20.048  0.00  0.00    +0.000 HD
ENDBRANCH  19  22
ENDBRANCH  17  18
ENDBRANCH   4  17
TORSDOF 6
ENDMDL
MODEL 6
REMARK VINA RESULT:    -6.861      4.523      9.230
REMARK INTER + INTRA:         -10.346
REMARK INTER:                  -9.257
REMARK INTRA:                  -1.089
REMARK UNBOUND:                -1.079
REMARK  Name = 
REMARK  6 active torsions:
REMARK  status: ('A' for Active; 'I' for Inactive)
REMARK    1  A    between atoms: C_2  and  C_25
REMARK    2  A    between atoms: N_3  and  C_4
REMARK    3  A    between atoms: C_4  and  C_5
REMARK    4  A    between atoms: C_8  and  C_9
REMARK    5  A    between atoms: C_9  and  N_10
REMARK    6  A    between atoms: C_11  and  C_13
REMARK                            x       y       z     vdW  Elec       q    Type
REMARK                         _______ _______ _______ _____ _____    ______ ____
ROOT
ATOM      1  C   UNL     1      51.370   3.025  17.965  0.00  0.00    +0.000 A 
ATOM      2  C   UNL     1      50.752   4.233  18.315  0.00  0.00    +0.000 A 
ATOM      3  C   UNL     1      49.407   4.464  18.002  0.00  0.00    +0.000 A 
ATOM      4  C   UNL     1      48.647   3.485  17.349  0.00  0.00    +0.000 A 
ATOM      5  C   UNL     1      49.268   2.279  16.994  0.00  0.00    +0.000 A 
ATOM      6  C   UNL     1      50.610   2.048  17.309  0.00  0.00    +0.000 A 
ENDROOT
BRANCH   1   7
ATOM      7  C   UNL     1      52.825   2.789  18.264  0.00  0.00    +0.000 C 
BRANCH   7  10
ATOM      8  O   UNL     1      54.638   1.359  16.765  0.00  0.00    +0.000 OA
ATOM      9  C   UNL     1      54.074   0.760  17.682  0.00  0.00    +0.000 C 
ATOM     10  N   UNL     1      53.141   1.400  18.481  0.00  0.00    +0.000 N 
ATOM     11  H   UNL     1      52.709   0.871  19.233  0.00  0.00    +0.000 HD
BRANCH   9  12
ATOM     12  C   UNL     1      54.312  -0.639  18.030  0.00  0.00    +0.000 A 
ATOM     13  N   UNL     1      53.902  -1.195  19.157  0.00  0.00    +0.000 NA
ATOM     14  C   UNL     1      54.289  -2.524  19.175  0.00  0.00    +0.000 A 
ATOM     15  C   UNL     1      54.992  -2.961  18.073  0.00  0.00    +0.000 A 
ATOM     16  S   UNL     1      55.173  -1.672  16.959  0.00  0.00    +0.000 S 
ENDBRANCH   9  12
ENDBRANCH   7  10
ENDBRANCH   1   7
BRANCH   4  17
ATOM     17  C   UNL     1      47.203   3.729  16.995  0.00  0.00    +0.000 C 
BRANCH  17  18
ATOM     18  N   UNL     1      47.081   4.676  15.913  0.00  0.00    +0.000 N 
ATOM     19  C   UNL     1      47.146   4.272  14.604  0.00  0.00    +0.000 C 
ATOM     20  O   UNL     1      47.257   3.088  14.293  0.00  0.00    +0.000 OA
ATOM     21  H   UNL     1      47.222   5.655  16.140  0.00  0.00    +0.000 HD
BRANCH  19  22
ATOM     22  C   UNL     1      47.011   5.320  13.584  0.00  0.00    +0.000 A 
ATOM     23  C   UNL     1      46.013   5.222  12.622  0.00  0.00    +0.000 A 
ATOM     24  S   UNL     1      45.961   6.547  11.551  0.00  0.00    +0.000 S 
ATOM     25  C   UNL     1      47.304   7.274  12.298  0.00  0.00    +0.000 A 
ATOM     26  N   UNL     1      47.805   8.453  11.840  0.00  0.00    +0.000 NA
ATOM     27  C   UNL     1      48.846   8.875  12.478  0.00  0.00    +0.000 A 
ATOM     28  N   UNL     1      49.428   8.227  13.538  0.00  0.00    +0.000 N 
ATOM     29  C   UNL     1      48.943   7.047  14.049  0.00  0.00    +0.000 A 
ATOM     30  O   UNL     1      49.468   6.509  15.019  0.00  0.00    +0.000 OA
ATOM     31  C   UNL     1      47.777   6.525  13.361  0.00  0.00    +0.000 A 
ATOM     32  H   UNL     1      50.240   8.613  13.996  0.00  0.00    +0.000 HD
ENDBRANCH  19  22
ENDBRANCH  17  18
ENDBRANCH   4  17
TORSDOF 6
ENDMDL
MODEL 7
REMARK VINA RESULT:    -6.606      4.728      7.363
REMARK INTER + INTRA:         -10.002
REMARK INTER:                  -9.119
REMARK INTRA:                  -0.883
REMARK UNBOUND:                -1.079
REMARK  Name = 
REMARK  6 active torsions:
REMARK  status: ('A' for Active; 'I' for Inactive)
REMARK    1  A    between atoms: C_2  and  C_25
REMARK    2  A    between atoms: N_3  and  C_4
REMARK    3  A    between atoms: C_4  and  C_5
REMARK    4  A    between atoms: C_8  and  C_9
REMARK    5  A    between atoms: C_9  and  N_10
REMARK    6  A    between atoms: C_11  and  C_13
REMARK                            x       y       z     vdW  Elec       q    Type
REMARK                         _______ _______ _______ _____ _____    ______ ____
ROOT
ATOM      1  C   UNL     1      50.744   8.710  11.126  0.00  0.00    +0.000 A 
ATOM      2  C   UNL     1      50.188   7.460  11.432  0.00  0.00    +0.000 A 
ATOM      3  C   UNL     1      48.905   7.366  11.985  0.00  0.00    +0.000 A 
ATOM      4  C   UNL     1      48.144   8.518  12.226  0.00  0.00    +0.000 A 
ATOM      5  C   UNL     1      48.704   9.767  11.925  0.00  0.00    +0.000 A 
ATOM      6  C   UNL     1      49.985   9.861  11.372  0.00  0.00    +0.000 A 
ENDROOT
BRANCH   1   7
ATOM      7  C   UNL     1      52.138   8.817  10.570  0.00  0.00    +0.000 C 
BRANCH   7  10
ATOM      8  O   UNL     1      52.906   8.769   7.927  0.00  0.00    +0.000 OA
ATOM      9  C   UNL     1      52.938   7.701   8.538  0.00  0.00    +0.000 C 
ATOM     10  N   UNL     1      52.560   7.632   9.869  0.00  0.00    +0.000 N 
ATOM     11  H   UNL     1      52.614   6.732  10.338  0.00  0.00    +0.000 HD
BRANCH   9  12
ATOM     12  C   UNL     1      53.366   6.428   7.962  0.00  0.00    +0.000 A 
ATOM     13  N   UNL     1      52.716   5.805   6.994  0.00  0.00    +0.000 NA
ATOM     14  C   UNL     1      53.382   4.633   6.681  0.00  0.00    +0.000 A 
ATOM     15  C   UNL     1      54.520   4.373   7.414  0.00  0.00    +0.000 A 
ATOM     16  S   UNL     1      54.784   5.642   8.535  0.00  0.00    +0.000 S 
ENDBRANCH   9  12
ENDBRANCH   7  10
ENDBRANCH   1   7
BRANCH   4  17
ATOM     17  C   UNL     1      46.769   8.428  12.834  0.00  0.00    +0.000 C 
BRANCH  17  18
ATOM     18  N   UNL     1      46.197   7.117  12.646  0.00  0.00    +0.000 N 
ATOM     19  C   UNL     1      45.176   6.908  11.754  0.00  0.00    +0.000 C 
ATOM     20  O   UNL     1      44.738   7.810  11.043  0.00  0.00    +0.000 OA
ATOM     21  H   UNL     1      46.376   6.428  13.370  0.00  0.00    +0.000 HD
BRANCH  19  22
ATOM     22  C   UNL     1      44.668   5.534  11.644  0.00  0.00    +0.000 A 
ATOM     23  C   UNL     1      43.960   4.975  12.700  0.00  0.00    +0.000 A 
ATOM     24  S   UNL     1      43.395   3.397  12.387  0.00  0.00    +0.000 S 
ATOM     25  C   UNL     1      44.124   3.382  10.851  0.00  0.00    +0.000 A 
ATOM     26  N   UNL     1      44.041   2.286  10.049  0.00  0.00    +0.000 NA
ATOM     27  C   UNL     1      44.667   2.399   8.925  0.00  0.00    +0.000 A 
ATOM     28  N   UNL     1      45.365   3.511   8.527  0.00  0.00    +0.000 N 
ATOM     29  C   UNL     1      45.456   4.648   9.294  0.00  0.00    +0.000 A 
ATOM     30  O   UNL     1      46.062   5.638   8.895  0.00  0.00    +0.000 OA
ATOM     31  C   UNL     1      44.776   4.570  10.573  0.00  0.00    +0.000 A 
ATOM     32  H   UNL     1      45.831   3.535   7.632  0.00  0.00    +0.000 HD
ENDBRANCH  19  22
ENDBRANCH  17  18
ENDBRANCH   4  17
TORSDOF 6
ENDMDL
MODEL 8
REMARK VINA RESULT:    -6.543      2.806      8.078
REMARK INTER + INTRA:          -9.917
REMARK INTER:                  -9.059
REMARK INTRA:                  -0.857
REMARK UNBOUND:                -1.079
REMARK  Name = 
REMARK  6 active torsions:
REMARK  status: ('A' for Active; 'I' for Inactive)
REMARK    1  A    between atoms: C_2  and  C_25
REMARK    2  A    between atoms: N_3  and  C_4
REMARK    3  A    between atoms: C_4  and  C_5
REMARK    4  A    between atoms: C_8  and  C_9
REMARK    5  A    between atoms: C_9  and  N_10
REMARK    6  A    between atoms: C_11  and  C_13
REMARK                            x       y       z     vdW  Elec       q    Type
REMARK                         _______ _______ _______ _____ _____    ______ ____
ROOT
ATOM      1  C   UNL     1      49.670   6.555  16.405  0.00  0.00    +0.000 A 
ATOM      2  C   UNL     1      50.383   7.539  15.707  0.00  0.00    +0.000 A 
ATOM      3  C   UNL     1      49.987   7.930  14.421  0.00  0.00    +0.000 A 
ATOM      4  C   UNL     1      48.859   7.360  13.817  0.00  0.00    +0.000 A 
ATOM      5  C   UNL     1      48.150   6.372  14.515  0.00  0.00    +0.000 A 
ATOM      6  C   UNL     1      48.545   5.982  15.798  0.00  0.00    +0.000 A 
ENDROOT
BRANCH   1   7
ATOM      7  C   UNL     1      50.116   6.103  17.769  0.00  0.00    +0.000 C 
BRANCH   7  10
ATOM      8  O   UNL     1      49.315   3.475  17.937  0.00  0.00    +0.000 OA
ATOM      9  C   UNL     1      50.522   3.685  17.810  0.00  0.00    +0.000 C 
ATOM     10  N   UNL     1      51.014   4.977  17.727  0.00  0.00    +0.000 N 
ATOM     11  H   UNL     1      52.015   5.103  17.610  0.00  0.00    +0.000 HD
BRANCH   9  12
ATOM     12  C   UNL     1      51.542   2.641  17.729  0.00  0.00    +0.000 A 
ATOM     13  N   UNL     1      51.290   1.397  17.358  0.00  0.00    +0.000 NA
ATOM     14  C   UNL     1      52.466   0.668  17.389  0.00  0.00    +0.000 A 
ATOM     15  C   UNL     1      53.592   1.357  17.787  0.00  0.00    +0.000 A 
ATOM     16  S   UNL     1      53.178   2.984  18.129  0.00  0.00    +0.000 S 
ENDBRANCH   9  12
ENDBRANCH   7  10
ENDBRANCH   1   7
BRANCH   4  17
ATOM     17  C   UNL     1      48.433   7.764  12.430  0.00  0.00    +0.000 C 
BRANCH  17  18
ATOM     18  N   UNL     1      47.688   6.711  11.782  0.00  0.00    +0.000 N 
ATOM     19  C   UNL     1      46.352   6.851  11.508  0.00  0.00    +0.000 C 
ATOM     20  O   UNL     1      45.743   7.890  11.752  0.00  0.00    +0.000 OA
ATOM     21  H   UNL     1      48.102   5.785  11.787  0.00  0.00    +0.000 HD
BRANCH  19  22
ATOM     22  C   UNL     1      45.693   5.716  10.848  0.00  0.00    +0.000 A 
ATOM     23  C   UNL     1      45.799   5.564   9.472  0.00  0.00    +0.000 A 
ATOM     24  S   UNL     1      45.025   4.167   8.875  0.00  0.00    +0.000 S 
ATOM     25  C   UNL     1      44.473   3.744  10.427  0.00  0.00    +0.000 A 
ATOM     26  N   UNL     1      43.707   2.636  10.618  0.00  0.00    +0.000 NA
ATOM     27  C   UNL     1      43.329   2.451  11.839  0.00  0.00    +0.000 A 
ATOM     28  N   UNL     1      43.653   3.273  12.889  0.00  0.00    +0.000 N 
ATOM     29  C   UNL     1      44.442   4.389  12.747  0.00  0.00    +0.000 A 
ATOM     30  O   UNL     1      44.738   5.087  13.712  0.00  0.00    +0.000 OA
ATOM     31  C   UNL     1      44.886   4.647  11.390  0.00  0.00    +0.000 A 
ATOM     32  H   UNL     1      43.327   3.071  13.822  0.00  0.00    +0.000 HD
ENDBRANCH  19  22
ENDBRANCH  17  18
ENDBRANCH   4  17
TORSDOF 6
ENDMDL
MODEL 9
REMARK VINA RESULT:    -6.486      3.575      8.376
REMARK INTER + INTRA:          -9.840
REMARK INTER:                  -8.949
REMARK INTRA:                  -0.891
REMARK UNBOUND:                -1.079
REMARK  Name = 
REMARK  6 active torsions:
REMARK  status: ('A' for Active; 'I' for Inactive)
REMARK    1  A    between atoms: C_2  and  C_25
REMARK    2  A    between atoms: N_3  and  C_4
REMARK    3  A    between atoms: C_4  and  C_5
REMARK    4  A    between atoms: C_8  and  C_9
REMARK    5  A    between atoms: C_9  and  N_10
REMARK    6  A    between atoms: C_11  and  C_13
REMARK                            x       y       z     vdW  Elec       q    Type
REMARK                         _______ _______ _______ _____ _____    ______ ____
ROOT
ATOM      1  C   UNL     1      49.684   4.638  17.506  0.00  0.00    +0.000 A 
ATOM      2  C   UNL     1      50.508   5.718  17.162  0.00  0.00    +0.000 A 
ATOM      3  C   UNL     1      50.078   6.676  16.235  0.00  0.00    +0.000 A 
ATOM      4  C   UNL     1      48.809   6.584  15.649  0.00  0.00    +0.000 A 
ATOM      5  C   UNL     1      47.989   5.500  15.991  0.00  0.00    +0.000 A 
ATOM      6  C   UNL     1      48.417   4.544  16.917  0.00  0.00    +0.000 A 
ENDROOT
BRANCH   1   7
ATOM      7  C   UNL     1      50.158   3.584  18.470  0.00  0.00    +0.000 C 
BRANCH   7  10
ATOM      8  O   UNL     1      51.026   1.231  17.335  0.00  0.00    +0.000 OA
ATOM      9  C   UNL     1      51.891   2.029  17.700  0.00  0.00    +0.000 C 
ATOM     10  N   UNL     1      51.544   3.234  18.289  0.00  0.00    +0.000 N 
ATOM     11  H   UNL     1      52.290   3.867  18.564  0.00  0.00    +0.000 HD
BRANCH   9  12
ATOM     12  C   UNL     1      53.330   1.816  17.557  0.00  0.00    +0.000 A 
ATOM     13  N   UNL     1      54.236   2.749  17.793  0.00  0.00    +0.000 NA
ATOM     14  C   UNL     1      55.497   2.224  17.565  0.00  0.00    +0.000 A 
ATOM     15  C   UNL     1      55.536   0.910  17.152  0.00  0.00    +0.000 A 
ATOM     16  S   UNL     1      53.942   0.291  17.052  0.00  0.00    +0.000 S 
ENDBRANCH   9  12
ENDBRANCH   7  10
ENDBRANCH   1   7
BRANCH   4  17
ATOM     17  C   UNL     1      48.343   7.602  14.641  0.00  0.00    +0.000 C 
BRANCH  17  18
ATOM     18  N   UNL     1      47.098   7.203  14.031  0.00  0.00    +0.000 N 
ATOM     19  C   UNL     1      47.076   6.532  12.834  0.00  0.00    +0.000 C 
ATOM     20  O   UNL     1      48.107   6.198  12.257  0.00  0.00    +0.000 OA
ATOM     21  H   UNL     1      46.255   7.662  14.360  0.00  0.00    +0.000 HD
BRANCH  19  22
ATOM     22  C   UNL     1      45.753   6.176  12.303  0.00  0.00    +0.000 A 
ATOM     23  C   UNL     1      44.934   7.165  11.774  0.00  0.00    +0.000 A 
ATOM     24  S   UNL     1      43.461   6.575  11.151  0.00  0.00    +0.000 S 
ATOM     25  C   UNL     1      43.840   4.983  11.616  0.00  0.00    +0.000 A 
ATOM     26  N   UNL     1      42.968   3.964  11.392  0.00  0.00    +0.000 NA
ATOM     27  C   UNL     1      43.367   2.814  11.824  0.00  0.00    +0.000 A 
ATOM     28  N   UNL     1      44.564   2.590  12.456  0.00  0.00    +0.000 N 
ATOM     29  C   UNL     1      45.485   3.584  12.683  0.00  0.00    +0.000 A 
ATOM     30  O   UNL     1      46.561   3.345  13.223  0.00  0.00    +0.000 OA
ATOM     31  C   UNL     1      45.080   4.900  12.223  0.00  0.00    +0.000 A 
ATOM     32  H   UNL     1      44.818   1.665  12.768  0.00  0.00    +0.000 HD
ENDBRANCH  19  22
ENDBRANCH  17  18
ENDBRANCH   4  17
TORSDOF 6
ENDMDL
