MODEL 1
REMARK VINA RESULT:    -7.529      0.000      0.000
REMARK INTER + INTRA:         -13.359
REMARK INTER:                 -12.150
REMARK INTRA:                  -1.209
REMARK UNBOUND:                -1.209
REMARK  Name = 
REMARK  11 active torsions:
REMARK  status: ('A' for Active; 'I' for Inactive)
REMARK    1  A    between atoms: N_1  and  C_2
REMARK    2  A    between atoms: C_2  and  C_3
REMARK    3  A    between atoms: C_3  and  N_4
REMARK    4  A    between atoms: N_4  and  C_5
REMARK    5  A    between atoms: C_5  and  C_6
REMARK    6  A    between atoms: C_9  and  C_10
REMARK    7  A    between atoms: C_10  and  O_11
REMARK    8  A    between atoms: O_11  and  C_12
REMARK    9  A    between atoms: C_15  and  C_16
REMARK   10  A    between atoms: C_16  and  N_17
REMARK   11  A    between atoms: C_18  and  C_20
REMARK                            x       y       z     vdW  Elec       q    Type
REMARK                         _______ _______ _______ _____ _____    ______ ____
ROOT
ATOM      1  C   UNL     1      47.156   4.425  15.304  0.00  0.00    +0.000 A 
ATOM      2  C   UNL     1      47.197   3.735  16.504  0.00  0.00    +0.000 A 
ATOM      3  C   UNL     1      48.058   4.192  17.500  0.00  0.00    +0.000 A 
ATOM      4  C   UNL     1      48.880   5.296  17.253  0.00  0.00    +0.000 A 
ATOM      5  C   UNL     1      48.762   5.913  16.013  0.00  0.00    +0.000 A 
ATOM      6  N   UNL     1      47.918   5.505  15.038  0.00  0.00    +0.000 NA
ENDROOT
BRANCH   1   7
ATOM      7  O   UNL     1      46.305   3.937  14.331  0.00  0.00    +0.000 OA
BRANCH   7   8
ATOM      8  C   UNL     1      45.600   4.987  13.664  0.00  0.00    +0.000 C 
BRANCH   8  12
ATOM      9  C   UNL     1      45.163   4.053   9.529  0.00  0.00    +0.000 A 
ATOM     10  C   UNL     1      44.898   3.059  10.466  0.00  0.00    +0.000 A 
ATOM     11  C   UNL     1      45.035   3.358  11.818  0.00  0.00    +0.000 A 
ATOM     12  C   UNL     1      45.429   4.638  12.211  0.00  0.00    +0.000 A 
ATOM     13  C   UNL     1      45.684   5.563  11.206  0.00  0.00    +0.000 A 
ATOM     14  N   UNL     1      45.560   5.304   9.883  0.00  0.00    +0.000 NA
BRANCH   9  15
ATOM     15  C   UNL     1      44.912   3.785   8.057  0.00  0.00    +0.000 C 
BRANCH  15  16
ATOM     16  N   UNL     1      46.087   4.014   7.189  0.00  0.00    +0.000 NA
ATOM     17  H   UNL     1      45.845   4.799   6.578  0.00  0.00    +0.000 HD
BRANCH  16  18
ATOM     18  C   UNL     1      46.343   2.872   6.289  0.00  0.00    +0.000 C 
BRANCH  18  19
ATOM     19  C   UNL     1      47.500   1.962   6.749  0.00  0.00    +0.000 C 
BRANCH  19  20
ATOM     20  N   UNL     1      48.566   1.909   5.741  0.00  0.00    +0.000 NA
ATOM     21  H   UNL     1      48.249   1.332   4.964  0.00  0.00    +0.000 HD
ATOM     22  H   UNL     1      49.371   1.428   6.142  0.00  0.00    +0.000 HD
ENDBRANCH  19  20
ENDBRANCH  18  19
ENDBRANCH  16  18
ENDBRANCH  15  16
ENDBRANCH   9  15
ENDBRANCH   8  12
ENDBRANCH   7   8
ENDBRANCH   1   7
BRANCH   4  23
ATOM     23  C   UNL     1      49.811   5.840  18.296  0.00  0.00    +0.000 C 
BRANCH  23  24
ATOM     24  N   UNL     1      50.875   4.908  18.563  0.00  0.00    +0.000 N 
ATOM     25  C   UNL     1      52.025   4.891  17.815  0.00  0.00    +0.000 C 
ATOM     26  O   UNL     1      52.229   5.705  16.918  0.00  0.00    +0.000 OA
ATOM     27  H   UNL     1      50.641   4.092  19.119  0.00  0.00    +0.000 HD
BRANCH  25  28
ATOM     28  C   UNL     1      53.029   3.888  18.191  0.00  0.00    +0.000 A 
ATOM     29  C   UNL     1      54.270   4.296  18.662  0.00  0.00    +0.000 A 
ATOM     30  S   UNL     1      55.286   3.004  19.120  0.00  0.00    +0.000 S 
ATOM     31  C   UNL     1      54.124   1.851  18.652  0.00  0.00    +0.000 A 
ATOM     32  N   UNL     1      54.371   0.522  18.770  0.00  0.00    +0.000 NA
ATOM     33  C   UNL     1      53.413  -0.240  18.351  0.00  0.00    +0.000 A 
ATOM     34  N   UNL     1      52.231   0.212  17.829  0.00  0.00    +0.000 N 
ATOM     35  C   UNL     1      51.927   1.547  17.714  0.00  0.00    +0.000 A 
ATOM     36  O   UNL     1      50.845   1.915  17.273  0.00  0.00    +0.000 OA
ATOM     37  C   UNL     1      52.973   2.445  18.166  0.00  0.00    +0.000 A 
ATOM     38  H   UNL     1      51.520  -0.437  17.523  0.00  0.00    +0.000 HD
ENDBRANCH  25  28
ENDBRANCH  23  24
ENDBRANCH   4  23
TORSDOF 11
ENDMDL
MODEL 2
REMARK VINA RESULT:    -7.253      1.432      2.444
REMARK INTER + INTRA:         -12.915
REMARK INTER:                 -12.052
REMARK INTRA:                  -0.863
REMARK UNBOUND:                -1.209
REMARK  Name = 
REMARK  11 active torsions:
REMARK  status: ('A' for Active; 'I' for Inactive)
REMARK    1  A    between atoms: N_1  and  C_2
REMARK    2  A    between atoms: C_2  and  C_3
REMARK    3  A    between atoms: C_3  and  N_4
REMARK    4  A    between atoms: N_4  and  C_5
REMARK    5  A    between atoms: C_5  and  C_6
REMARK    6  A    between atoms: C_9  and  C_10
REMARK    7  A    between atoms: C_10  and  O_11
REMARK    8  A    between atoms: O_11  and  C_12
REMARK    9  A    between atoms: C_15  and  C_16
REMARK   10  A    between atoms: C_16  and  N_17
REMARK   11  A    between atoms: C_18  and  C_20
REMARK                            x       y       z     vdW  Elec       q    Type
REMARK                         _______ _______ _______ _____ _____    ______ ____
ROOT
ATOM      1  C   UNL     1      47.514   5.303  14.501  0.00  0.00    +0.000 A 
ATOM      2  C   UNL     1      48.248   5.967  15.470  0.00  0.00    +0.000 A 
ATOM      3  C   UNL     1      48.559   5.286  16.646  0.00  0.00    +0.000 A 
ATOM      4  C   UNL     1      48.092   3.982  16.836  0.00  0.00    +0.000 A 
ATOM      5  C   UNL     1      47.360   3.410  15.801  0.00  0.00    +0.000 A 
ATOM      6  N   UNL     1      47.066   4.039  14.641  0.00  0.00    +0.000 NA
ENDROOT
BRANCH   1   7
ATOM      7  O   UNL     1      47.208   6.010  13.355  0.00  0.00    +0.000 OA
BRANCH   7   8
ATOM      8  C   UNL     1      45.807   5.982  13.069  0.00  0.00    +0.000 C 
BRANCH   8  12
ATOM      9  C   UNL     1      45.209   4.154   9.265  0.00  0.00    +0.000 A 
ATOM     10  C   UNL     1      44.860   3.440  10.408  0.00  0.00    +0.000 A 
ATOM     11  C   UNL     1      45.049   4.032  11.653  0.00  0.00    +0.000 A 
ATOM     12  C   UNL     1      45.577   5.321  11.737  0.00  0.00    +0.000 A 
ATOM     13  C   UNL     1      45.908   5.954  10.546  0.00  0.00    +0.000 A 
ATOM     14  N   UNL     1      45.736   5.406   9.319  0.00  0.00    +0.000 NA
BRANCH   9  15
ATOM     15  C   UNL     1      44.906   3.575   7.896  0.00  0.00    +0.000 C 
BRANCH  15  16
ATOM     16  N   UNL     1      46.002   3.734   6.915  0.00  0.00    +0.000 NA
ATOM     17  H   UNL     1      45.680   3.290   6.051  0.00  0.00    +0.000 HD
BRANCH  16  18
ATOM     18  C   UNL     1      47.216   2.995   7.316  0.00  0.00    +0.000 C 
BRANCH  18  19
ATOM     19  C   UNL     1      47.423   1.672   6.552  0.00  0.00    +0.000 C 
BRANCH  19  20
ATOM     20  N   UNL     1      48.482   1.803   5.543  0.00  0.00    +0.000 NA
ATOM     21  H   UNL     1      48.363   1.066   4.850  0.00  0.00    +0.000 HD
ATOM     22  H   UNL     1      49.381   1.628   5.991  0.00  0.00    +0.000 HD
ENDBRANCH  19  20
ENDBRANCH  18  19
ENDBRANCH  16  18
ENDBRANCH  15  16
ENDBRANCH   9  15
ENDBRANCH   8  12
ENDBRANCH   7   8
ENDBRANCH   1   7
BRANCH   4  23
ATOM     23  C   UNL     1      48.414   3.197  18.074  0.00  0.00    +0.000 C 
BRANCH  23  24
ATOM     24  N   UNL     1      49.834   2.994  18.191  0.00  0.00    +0.000 N 
ATOM     25  C   UNL     1      50.521   2.178  17.330  0.00  0.00    +0.000 C 
ATOM     26  O   UNL     1      49.970   1.621  16.384  0.00  0.00    +0.000 OA
ATOM     27  H   UNL     1      50.260   3.238  19.080  0.00  0.00    +0.000 HD
BRANCH  25  28
ATOM     28  C   UNL     1      51.966   2.057  17.563  0.00  0.00    +0.000 A 
ATOM     29  C   UNL     1      52.542   0.799  17.688  0.00  0.00    +0.000 A 
ATOM     30  S   UNL     1      54.236   0.839  17.881  0.00  0.00    +0.000 S 
ATOM     31  C   UNL     1      54.253   2.541  17.862  0.00  0.00    +0.000 A 
ATOM     32  N   UNL     1      55.415   3.230  18.000  0.00  0.00    +0.000 NA
ATOM     33  C   UNL     1      55.279   4.516  17.995  0.00  0.00    +0.000 A 
ATOM     34  N   UNL     1      54.084   5.172  17.861  0.00  0.00    +0.000 N 
ATOM     35  C   UNL     1      52.888   4.517  17.693  0.00  0.00    +0.000 A 
ATOM     36  O   UNL     1      51.842   5.137  17.541  0.00  0.00    +0.000 OA
ATOM     37  C   UNL     1      52.986   3.070  17.697  0.00  0.00    +0.000 A 
ATOM     38  H   UNL     1      54.046   6.181  17.861  0.00  0.00    +0.000 HD
ENDBRANCH  25  28
ENDBRANCH  23  24
ENDBRANCH   4  23
TORSDOF 11
ENDMDL
MODEL 3
REMARK VINA RESULT:    -7.168      2.997      4.103
REMARK INTER + INTRA:         -12.777
REMARK INTER:                 -11.583
REMARK INTRA:                  -1.194
REMARK UNBOUND:                -1.209
REMARK  Name = 
REMARK  11 active torsions:
REMARK  status: ('A' for Active; 'I' for Inactive)
REMARK    1  A    between atoms: N_1  and  C_2
REMARK    2  A    between atoms: C_2  and  C_3
REMARK    3  A    between atoms: C_3  and  N_4
REMARK    4  A    between atoms: N_4  and  C_5
REMARK    5  A    between atoms: C_5  and  C_6
REMARK    6  A    between atoms: C_9  and  C_10
REMARK    7  A    between atoms: C_10  and  O_11
REMARK    8  A    between atoms: O_11  and  C_12
REMARK    9  A    between atoms: C_15  and  C_16
REMARK   10  A    between atoms: C_16  and  N_17
REMARK   11  A    between atoms: C_18  and  C_20
REMARK                            x       y       z     vdW  Elec       q    Type
REMARK                         _______ _______ _______ _____ _____    ______ ____
ROOT
ATOM      1  C   UNL     1      44.780   5.703  13.288  0.00  0.00    +0.000 A 
ATOM      2  C   UNL     1      45.812   4.804  13.492  0.00  0.00    +0.000 A 
ATOM      3  C   UNL     1      47.120   5.242  13.294  0.00  0.00    +0.000 A 
ATOM      4  C   UNL     1      47.354   6.550  12.857  0.00  0.00    +0.000 A 
ATOM      5  C   UNL     1      46.246   7.370  12.678  0.00  0.00    +0.000 A 
ATOM      6  N   UNL     1      44.969   6.977  12.887  0.00  0.00    +0.000 NA
ENDROOT
BRANCH   1   7
ATOM      7  O   UNL     1      43.495   5.234  13.476  0.00  0.00    +0.000 OA
BRANCH   7   8
ATOM      8  C   UNL     1      42.716   5.317  12.281  0.00  0.00    +0.000 C 
BRANCH   8  12
ATOM      9  C   UNL     1      44.560   3.014   9.204  0.00  0.00    +0.000 A 
ATOM     10  C   UNL     1      44.063   2.352  10.323  0.00  0.00    +0.000 A 
ATOM     11  C   UNL     1      43.456   3.096  11.330  0.00  0.00    +0.000 A 
ATOM     12  C   UNL     1      43.352   4.482  11.203  0.00  0.00    +0.000 A 
ATOM     13  C   UNL     1      43.887   5.060  10.058  0.00  0.00    +0.000 A 
ATOM     14  N   UNL     1      44.483   4.363   9.061  0.00  0.00    +0.000 NA
BRANCH   9  15
ATOM     15  C   UNL     1      45.123   2.213   8.045  0.00  0.00    +0.000 C 
BRANCH  15  16
ATOM     16  N   UNL     1      46.141   1.214   8.436  0.00  0.00    +0.000 NA
ATOM     17  H   UNL     1      46.699   1.647   9.177  0.00  0.00    +0.000 HD
BRANCH  16  18
ATOM     18  C   UNL     1      47.086   0.928   7.338  0.00  0.00    +0.000 C 
BRANCH  18  19
ATOM     19  C   UNL     1      47.818   2.175   6.805  0.00  0.00    +0.000 C 
BRANCH  19  20
ATOM     20  N   UNL     1      48.553   1.870   5.570  0.00  0.00    +0.000 NA
ATOM     21  H   UNL     1      48.317   2.571   4.870  0.00  0.00    +0.000 HD
ATOM     22  H   UNL     1      48.219   0.979   5.203  0.00  0.00    +0.000 HD
ENDBRANCH  19  20
ENDBRANCH  18  19
ENDBRANCH  16  18
ENDBRANCH  15  16
ENDBRANCH   9  15
ENDBRANCH   8  12
ENDBRANCH   7   8
ENDBRANCH   1   7
BRANCH   4  23
ATOM     23  C   UNL     1      48.743   7.079  12.646  0.00  0.00    +0.000 C 
BRANCH  23  24
ATOM     24  N   UNL     1      49.527   6.937  13.845  0.00  0.00    +0.000 N 
ATOM     25  C   UNL     1      49.549   7.907  14.813  0.00  0.00    +0.000 C 
ATOM     26  O   UNL     1      48.861   8.922  14.732  0.00  0.00    +0.000 OA
ATOM     27  H   UNL     1      50.270   6.245  13.827  0.00  0.00    +0.000 HD
BRANCH  25  28
ATOM     28  C   UNL     1      50.393   7.638  15.984  0.00  0.00    +0.000 A 
ATOM     29  C   UNL     1      51.428   8.508  16.304  0.00  0.00    +0.000 A 
ATOM     30  S   UNL     1      52.259   8.085  17.733  0.00  0.00    +0.000 S 
ATOM     31  C   UNL     1      51.302   6.693  17.943  0.00  0.00    +0.000 A 
ATOM     32  N   UNL     1      51.506   5.856  18.993  0.00  0.00    +0.000 NA
ATOM     33  C   UNL     1      50.727   4.824  19.015  0.00  0.00    +0.000 A 
ATOM     34  N   UNL     1      49.761   4.558  18.081  0.00  0.00    +0.000 N 
ATOM     35  C   UNL     1      49.501   5.389  17.018  0.00  0.00    +0.000 A 
ATOM     36  O   UNL     1      48.606   5.137  16.220  0.00  0.00    +0.000 OA
ATOM     37  C   UNL     1      50.354   6.561  16.945  0.00  0.00    +0.000 A 
ATOM     38  H   UNL     1      49.181   3.735  18.158  0.00  0.00    +0.000 HD
ENDBRANCH  25  28
ENDBRANCH  23  24
ENDBRANCH   4  23
TORSDOF 11
ENDMDL
MODEL 4
REMARK VINA RESULT:    -6.768      1.864      2.316
REMARK INTER + INTRA:         -12.132
REMARK INTER:                 -11.180
REMARK INTRA:                  -0.952
REMARK UNBOUND:                -1.209
REMARK  Name = 
REMARK  11 active torsions:
REMARK  status: ('A' for Active; 'I' for Inactive)
REMARK    1  A    between atoms: N_1  and  C_2
REMARK    2  A    between atoms: C_2  and  C_3
REMARK    3  A    between atoms: C_3  and  N_4
REMARK    4  A    between atoms: N_4  and  C_5
REMARK    5  A    between atoms: C_5  and  C_6
REMARK    6  A    between atoms: C_9  and  C_10
REMARK    7  A    between atoms: C_10  and  O_11
REMARK    8  A    between atoms: O_11  and  C_12
REMARK    9  A    between atoms: C_15  and  C_16
REMARK   10  A    between atoms: C_16  and  N_17
REMARK   11  A    between atoms: C_18  and  C_20
REMARK                            x       y       z     vdW  Elec       q    Type
REMARK                         _______ _______ _______ _____ _____    ______ ____
ROOT
ATOM      1  C   UNL     1      47.826   7.335  13.633  0.00  0.00    +0.000 A 
ATOM      2  C   UNL     1      48.177   8.627  13.987  0.00  0.00    +0.000 A 
ATOM      3  C   UNL     1      48.902   8.818  15.162  0.00  0.00    +0.000 A 
ATOM      4  C   UNL     1      49.216   7.719  15.968  0.00  0.00    +0.000 A 
ATOM      5  C   UNL     1      48.813   6.466  15.521  0.00  0.00    +0.000 A 
ATOM      6  N   UNL     1      48.131   6.250  14.374  0.00  0.00    +0.000 NA
ENDROOT
BRANCH   1   7
ATOM      7  O   UNL     1      47.095   7.182  12.472  0.00  0.00    +0.000 OA
BRANCH   7   8
ATOM      8  C   UNL     1      45.780   6.682  12.732  0.00  0.00    +0.000 C 
BRANCH   8  12
ATOM      9  C   UNL     1      45.016   3.402  10.120  0.00  0.00    +0.000 A 
ATOM     10  C   UNL     1      44.970   3.182  11.493  0.00  0.00    +0.000 A 
ATOM     11  C   UNL     1      45.215   4.249  12.352  0.00  0.00    +0.000 A 
ATOM     12  C   UNL     1      45.496   5.512  11.830  0.00  0.00    +0.000 A 
ATOM     13  C   UNL     1      45.534   5.636  10.446  0.00  0.00    +0.000 A 
ATOM     14  N   UNL     1      45.300   4.618   9.584  0.00  0.00    +0.000 NA
BRANCH   9  15
ATOM     15  C   UNL     1      44.642   2.283   9.166  0.00  0.00    +0.000 C 
BRANCH  15  16
ATOM     16  N   UNL     1      45.798   1.535   8.625  0.00  0.00    +0.000 NA
ATOM     17  H   UNL     1      46.467   1.444   9.395  0.00  0.00    +0.000 HD
BRANCH  16  18
ATOM     18  C   UNL     1      46.502   2.291   7.570  0.00  0.00    +0.000 C 
BRANCH  18  19
ATOM     19  C   UNL     1      47.628   1.497   6.880  0.00  0.00    +0.000 C 
BRANCH  19  20
ATOM     20  N   UNL     1      48.683   2.393   6.387  0.00  0.00    +0.000 NA
ATOM     21  H   UNL     1      48.452   3.347   6.660  0.00  0.00    +0.000 HD
ATOM     22  H   UNL     1      48.672   2.380   5.367  0.00  0.00    +0.000 HD
ENDBRANCH  19  20
ENDBRANCH  18  19
ENDBRANCH  16  18
ENDBRANCH  15  16
ENDBRANCH   9  15
ENDBRANCH   8  12
ENDBRANCH   7   8
ENDBRANCH   1   7
BRANCH   4  23
ATOM     23  C   UNL     1      50.010   7.865  17.233  0.00  0.00    +0.000 C 
BRANCH  23  24
ATOM     24  N   UNL     1      50.852   6.716  17.438  0.00  0.00    +0.000 N 
ATOM     25  C   UNL     1      50.892   6.055  18.639  0.00  0.00    +0.000 C 
ATOM     26  O   UNL     1      50.173   6.376  19.582  0.00  0.00    +0.000 OA
ATOM     27  H   UNL     1      51.612   6.581  16.779  0.00  0.00    +0.000 HD
BRANCH  25  28
ATOM     28  C   UNL     1      51.795   4.900  18.715  0.00  0.00    +0.000 A 
ATOM     29  C   UNL     1      53.007   5.015  19.385  0.00  0.00    +0.000 A 
ATOM     30  S   UNL     1      53.898   3.561  19.439  0.00  0.00    +0.000 S 
ATOM     31  C   UNL     1      52.722   2.741  18.522  0.00  0.00    +0.000 A 
ATOM     32  N   UNL     1      52.880   1.434  18.191  0.00  0.00    +0.000 NA
ATOM     33  C   UNL     1      51.925   0.945  17.468  0.00  0.00    +0.000 A 
ATOM     34  N   UNL     1      50.827   1.648  17.051  0.00  0.00    +0.000 N 
ATOM     35  C   UNL     1      50.612   2.965  17.383  0.00  0.00    +0.000 A 
ATOM     36  O   UNL     1      49.600   3.553  17.021  0.00  0.00    +0.000 OA
ATOM     37  C   UNL     1      51.659   3.562  18.190  0.00  0.00    +0.000 A 
ATOM     38  H   UNL     1      50.112   1.206  16.491  0.00  0.00    +0.000 HD
ENDBRANCH  25  28
ENDBRANCH  23  24
ENDBRANCH   4  23
TORSDOF 11
ENDMDL
MODEL 5
REMARK VINA RESULT:    -6.725      3.428      4.422
REMARK INTER + INTRA:         -12.062
REMARK INTER:                 -10.496
REMARK INTRA:                  -1.566
REMARK UNBOUND:                -1.209
REMARK  Name = 
REMARK  11 active torsions:
REMARK  status: ('A' for Active; 'I' for Inactive)
REMARK    1  A    between atoms: N_1  and  C_2
REMARK    2  A    between atoms: C_2  and  C_3
REMARK    3  A    between atoms: C_3  and  N_4
REMARK    4  A    between atoms: N_4  and  C_5
REMARK    5  A    between atoms: C_5  and  C_6
REMARK    6  A    between atoms: C_9  and  C_10
REMARK    7  A    between atoms: C_10  and  O_11
REMARK    8  A    between atoms: O_11  and  C_12
REMARK    9  A    between atoms: C_15  and  C_16
REMARK   10  A    between atoms: C_16  and  N_17
REMARK   11  A    between atoms: C_18  and  C_20
REMARK                            x       y       z     vdW  Elec       q    Type
REMARK                         _______ _______ _______ _____ _____    ______ ____
ROOT
ATOM      1  C   UNL     1      45.789   7.630  11.891  0.00  0.00    +0.000 A 
ATOM      2  C   UNL     1      46.975   6.969  11.620  0.00  0.00    +0.000 A 
ATOM      3  C   UNL     1      48.092   7.269  12.396  0.00  0.00    +0.000 A 
ATOM      4  C   UNL     1      48.003   8.248  13.390  0.00  0.00    +0.000 A 
ATOM      5  C   UNL     1      46.766   8.854  13.578  0.00  0.00    +0.000 A 
ATOM      6  N   UNL     1      45.660   8.565  12.856  0.00  0.00    +0.000 NA
ENDROOT
BRANCH   1   7
ATOM      7  O   UNL     1      44.704   7.323  11.094  0.00  0.00    +0.000 OA
BRANCH   7   8
ATOM      8  C   UNL     1      43.930   6.250  11.636  0.00  0.00    +0.000 C 
BRANCH   8  12
ATOM      9  C   UNL     1      44.773   2.708   9.420  0.00  0.00    +0.000 A 
ATOM     10  C   UNL     1      44.113   2.588  10.639  0.00  0.00    +0.000 A 
ATOM     11  C   UNL     1      43.831   3.740  11.367  0.00  0.00    +0.000 A 
ATOM     12  C   UNL     1      44.207   4.987  10.867  0.00  0.00    +0.000 A 
ATOM     13  C   UNL     1      44.873   5.011   9.647  0.00  0.00    +0.000 A 
ATOM     14  N   UNL     1      45.162   3.909   8.916  0.00  0.00    +0.000 NA
BRANCH   9  15
ATOM     15  C   UNL     1      44.990   1.479   8.558  0.00  0.00    +0.000 C 
BRANCH  15  16
ATOM     16  N   UNL     1      46.411   1.165   8.295  0.00  0.00    +0.000 NA
ATOM     17  H   UNL     1      46.959   1.804   8.878  0.00  0.00    +0.000 HD
BRANCH  16  18
ATOM     18  C   UNL     1      46.796   1.464   6.902  0.00  0.00    +0.000 C 
BRANCH  18  19
ATOM     19  C   UNL     1      47.812   2.616   6.768  0.00  0.00    +0.000 C 
BRANCH  19  20
ATOM     20  N   UNL     1      47.139   3.921   6.799  0.00  0.00    +0.000 NA
ATOM     21  H   UNL     1      46.786   4.126   5.866  0.00  0.00    +0.000 HD
ATOM     22  H   UNL     1      47.833   4.640   7.005  0.00  0.00    +0.000 HD
ENDBRANCH  19  20
ENDBRANCH  18  19
ENDBRANCH  16  18
ENDBRANCH  15  16
ENDBRANCH   9  15
ENDBRANCH   8  12
ENDBRANCH   7   8
ENDBRANCH   1   7
BRANCH   4  23
ATOM     23  C   UNL     1      49.170   8.597  14.267  0.00  0.00    +0.000 C 
BRANCH  23  24
ATOM     24  N   UNL     1      49.268   7.676  15.369  0.00  0.00    +0.000 N 
ATOM     25  C   UNL     1      48.756   7.972  16.606  0.00  0.00    +0.000 C 
ATOM     26  O   UNL     1      48.141   9.013  16.822  0.00  0.00    +0.000 OA
ATOM     27  H   UNL     1      49.962   6.939  15.289  0.00  0.00    +0.000 HD
BRANCH  25  28
ATOM     28  C   UNL     1      48.927   6.946  17.642  0.00  0.00    +0.000 A 
ATOM     29  C   UNL     1      49.455   7.296  18.879  0.00  0.00    +0.000 A 
ATOM     30  S   UNL     1      49.516   6.000  19.987  0.00  0.00    +0.000 S 
ATOM     31  C   UNL     1      48.893   4.913  18.835  0.00  0.00    +0.000 A 
ATOM     32  N   UNL     1      48.705   3.604  19.140  0.00  0.00    +0.000 NA
ATOM     33  C   UNL     1      48.252   2.886  18.164  0.00  0.00    +0.000 A 
ATOM     34  N   UNL     1      47.968   3.365  16.913  0.00  0.00    +0.000 N 
ATOM     35  C   UNL     1      48.118   4.686  16.567  0.00  0.00    +0.000 A 
ATOM     36  O   UNL     1      47.821   5.087  15.447  0.00  0.00    +0.000 OA
ATOM     37  C   UNL     1      48.629   5.534  17.627  0.00  0.00    +0.000 A 
ATOM     38  H   UNL     1      47.612   2.752  16.194  0.00  0.00    +0.000 HD
ENDBRANCH  25  28
ENDBRANCH  23  24
ENDBRANCH   4  23
TORSDOF 11
ENDMDL
MODEL 6
REMARK VINA RESULT:    -6.673      4.247      9.637
REMARK INTER + INTRA:         -11.978
REMARK INTER:                 -10.692
REMARK INTRA:                  -1.286
REMARK UNBOUND:                -1.209
REMARK  Name = 
REMARK  11 active torsions:
REMARK  status: ('A' for Active; 'I' for Inactive)
REMARK    1  A    between atoms: N_1  and  C_2
REMARK    2  A    between atoms: C_2  and  C_3
REMARK    3  A    between atoms: C_3  and  N_4
REMARK    4  A    between atoms: N_4  and  C_5
REMARK    5  A    between atoms: C_5  and  C_6
REMARK    6  A    between atoms: C_9  and  C_10
REMARK    7  A    between atoms: C_10  and  O_11
REMARK    8  A    between atoms: O_11  and  C_12
REMARK    9  A    between atoms: C_15  and  C_16
REMARK   10  A    between atoms: C_16  and  N_17
REMARK   11  A    between atoms: C_18  and  C_20
REMARK                            x       y       z     vdW  Elec       q    Type
REMARK                         _______ _______ _______ _____ _____    ______ ____
ROOT
ATOM      1  C   UNL     1      50.303   8.190  13.895  0.00  0.00    +0.000 A 
ATOM      2  C   UNL     1      49.756   9.426  13.593  0.00  0.00    +0.000 A 
ATOM      3  C   UNL     1      48.519   9.464  12.952  0.00  0.00    +0.000 A 
ATOM      4  C   UNL     1      47.888   8.269  12.594  0.00  0.00    +0.000 A 
ATOM      5  C   UNL     1      48.526   7.083  12.940  0.00  0.00    +0.000 A 
ATOM      6  N   UNL     1      49.713   7.018  13.584  0.00  0.00    +0.000 NA
ENDROOT
BRANCH   1   7
ATOM      7  O   UNL     1      51.536   8.187  14.516  0.00  0.00    +0.000 OA
BRANCH   7   8
ATOM      8  C   UNL     1      51.439   8.538  15.898  0.00  0.00    +0.000 C 
BRANCH   8  12
ATOM      9  C   UNL     1      49.121   5.614  17.957  0.00  0.00    +0.000 A 
ATOM     10  C   UNL     1      50.374   5.249  17.474  0.00  0.00    +0.000 A 
ATOM     11  C   UNL     1      51.138   6.199  16.803  0.00  0.00    +0.000 A 
ATOM     12  C   UNL     1      50.644   7.492  16.631  0.00  0.00    +0.000 A 
ATOM     13  C   UNL     1      49.378   7.764  17.136  0.00  0.00    +0.000 A 
ATOM     14  N   UNL     1      48.610   6.862  17.792  0.00  0.00    +0.000 NA
BRANCH   9  15
ATOM     15  C   UNL     1      48.320   4.629  18.788  0.00  0.00    +0.000 C 
BRANCH  15  16
ATOM     16  N   UNL     1      47.061   4.183  18.153  0.00  0.00    +0.000 NA
ATOM     17  H   UNL     1      46.605   3.560  18.826  0.00  0.00    +0.000 HD
BRANCH  16  18
ATOM     18  C   UNL     1      47.306   3.363  16.951  0.00  0.00    +0.000 C 
BRANCH  18  19
ATOM     19  C   UNL     1      47.039   4.104  15.625  0.00  0.00    +0.000 C 
BRANCH  19  20
ATOM     20  N   UNL     1      47.405   3.273  14.471  0.00  0.00    +0.000 NA
ATOM     21  H   UNL     1      48.284   3.618  14.089  0.00  0.00    +0.000 HD
ATOM     22  H   UNL     1      46.707   3.405  13.740  0.00  0.00    +0.000 HD
ENDBRANCH  19  20
ENDBRANCH  18  19
ENDBRANCH  16  18
ENDBRANCH  15  16
ENDBRANCH   9  15
ENDBRANCH   8  12
ENDBRANCH   7   8
ENDBRANCH   1   7
BRANCH   4  23
ATOM     23  C   UNL     1      46.548   8.251  11.919  0.00  0.00    +0.000 C 
BRANCH  23  24
ATOM     24  N   UNL     1      46.114   6.898  11.687  0.00  0.00    +0.000 N 
ATOM     25  C   UNL     1      44.801   6.592  11.437  0.00  0.00    +0.000 C 
ATOM     26  O   UNL     1      43.939   7.462  11.343  0.00  0.00    +0.000 OA
ATOM     27  H   UNL     1      46.740   6.159  11.991  0.00  0.00    +0.000 HD
BRANCH  25  28
ATOM     28  C   UNL     1      44.495   5.173  11.222  0.00  0.00    +0.000 A 
ATOM     29  C   UNL     1      43.742   4.479  12.162  0.00  0.00    +0.000 A 
ATOM     30  S   UNL     1      43.418   2.864  11.720  0.00  0.00    +0.000 S 
ATOM     31  C   UNL     1      44.319   3.017  10.284  0.00  0.00    +0.000 A 
ATOM     32  N   UNL     1      44.460   1.970   9.432  0.00  0.00    +0.000 NA
ATOM     33  C   UNL     1      45.192   2.217   8.395  0.00  0.00    +0.000 A 
ATOM     34  N   UNL     1      45.793   3.420   8.136  0.00  0.00    +0.000 N 
ATOM     35  C   UNL     1      45.658   4.515   8.956  0.00  0.00    +0.000 A 
ATOM     36  O   UNL     1      46.182   5.586   8.675  0.00  0.00    +0.000 OA
ATOM     37  C   UNL     1      44.848   4.287  10.138  0.00  0.00    +0.000 A 
ATOM     38  H   UNL     1      46.350   3.550   7.304  0.00  0.00    +0.000 HD
ENDBRANCH  25  28
ENDBRANCH  23  24
ENDBRANCH   4  23
TORSDOF 11
ENDMDL
MODEL 7
REMARK VINA RESULT:    -6.399      3.538     10.350
REMARK INTER + INTRA:         -11.537
REMARK INTER:                 -10.434
REMARK INTRA:                  -1.103
REMARK UNBOUND:                -1.209
REMARK  Name = 
REMARK  11 active torsions:
REMARK  status: ('A' for Active; 'I' for Inactive)
REMARK    1  A    between atoms: N_1  and  C_2
REMARK    2  A    between atoms: C_2  and  C_3
REMARK    3  A    between atoms: C_3  and  N_4
REMARK    4  A    between atoms: N_4  and  C_5
REMARK    5  A    between atoms: C_5  and  C_6
REMARK    6  A    between atoms: C_9  and  C_10
REMARK    7  A    between atoms: C_10  and  O_11
REMARK    8  A    between atoms: O_11  and  C_12
REMARK    9  A    between atoms: C_15  and  C_16
REMARK   10  A    between atoms: C_16  and  N_17
REMARK   11  A    between atoms: C_18  and  C_20
REMARK                            x       y       z     vdW  Elec       q    Type
REMARK                         _______ _______ _______ _____ _____    ______ ____
ROOT
ATOM      1  C   UNL     1      49.291   5.519  16.921  0.00  0.00    +0.000 A 
ATOM      2  C   UNL     1      49.982   6.639  16.490  0.00  0.00    +0.000 A 
ATOM      3  C   UNL     1      49.600   7.230  15.287  0.00  0.00    +0.000 A 
ATOM      4  C   UNL     1      48.571   6.660  14.532  0.00  0.00    +0.000 A 
ATOM      5  C   UNL     1      47.945   5.533  15.054  0.00  0.00    +0.000 A 
ATOM      6  N   UNL     1      48.279   4.955  16.230  0.00  0.00    +0.000 NA
ENDROOT
BRANCH   1   7
ATOM      7  O   UNL     1      49.704   4.948  18.109  0.00  0.00    +0.000 OA
BRANCH   7   8
ATOM      8  C   UNL     1      51.121   5.035  18.278  0.00  0.00    +0.000 C 
BRANCH   8  12
ATOM      9  C   UNL     1      52.869   1.152  18.107  0.00  0.00    +0.000 A 
ATOM     10  C   UNL     1      51.710   1.391  17.376  0.00  0.00    +0.000 A 
ATOM     11  C   UNL     1      51.135   2.658  17.424  0.00  0.00    +0.000 A 
ATOM     12  C   UNL     1      51.726   3.660  18.193  0.00  0.00    +0.000 A 
ATOM     13  C   UNL     1      52.875   3.328  18.900  0.00  0.00    +0.000 A 
ATOM     14  N   UNL     1      53.458   2.106  18.875  0.00  0.00    +0.000 NA
BRANCH   9  15
ATOM     15  C   UNL     1      53.575  -0.186  17.980  0.00  0.00    +0.000 C 
BRANCH  15  16
ATOM     16  N   UNL     1      53.075  -1.225  18.906  0.00  0.00    +0.000 NA
ATOM     17  H   UNL     1      53.055  -0.796  19.836  0.00  0.00    +0.000 HD
BRANCH  16  18
ATOM     18  C   UNL     1      54.006  -2.366  19.013  0.00  0.00    +0.000 C 
BRANCH  18  19
ATOM     19  C   UNL     1      53.913  -3.124  20.352  0.00  0.00    +0.000 C 
BRANCH  19  20
ATOM     20  N   UNL     1      52.696  -2.756  21.086  0.00  0.00    +0.000 NA
ATOM     21  H   UNL     1      52.222  -2.012  20.576  0.00  0.00    +0.000 HD
ATOM     22  H   UNL     1      52.965  -2.357  21.985  0.00  0.00    +0.000 HD
ENDBRANCH  19  20
ENDBRANCH  18  19
ENDBRANCH  16  18
ENDBRANCH  15  16
ENDBRANCH   9  15
ENDBRANCH   8  12
ENDBRANCH   7   8
ENDBRANCH   1   7
BRANCH   4  23
ATOM     23  C   UNL     1      48.107   7.265  13.239  0.00  0.00    +0.000 C 
BRANCH  23  24
ATOM     24  N   UNL     1      47.370   6.302  12.464  0.00  0.00    +0.000 N 
ATOM     25  C   UNL     1      46.321   6.670  11.661  0.00  0.00    +0.000 C 
ATOM     26  O   UNL     1      45.993   7.846  11.520  0.00  0.00    +0.000 OA
ATOM     27  H   UNL     1      47.458   5.329  12.739  0.00  0.00    +0.000 HD
BRANCH  25  28
ATOM     28  C   UNL     1      45.654   5.588  10.927  0.00  0.00    +0.000 A 
ATOM     29  C   UNL     1      45.715   5.555   9.539  0.00  0.00    +0.000 A 
ATOM     30  S   UNL     1      44.949   4.193   8.854  0.00  0.00    +0.000 S 
ATOM     31  C   UNL     1      44.461   3.629  10.384  0.00  0.00    +0.000 A 
ATOM     32  N   UNL     1      43.737   2.487  10.509  0.00  0.00    +0.000 NA
ATOM     33  C   UNL     1      43.410   2.191  11.725  0.00  0.00    +0.000 A 
ATOM     34  N   UNL     1      43.746   2.935  12.824  0.00  0.00    +0.000 N 
ATOM     35  C   UNL     1      44.499   4.082  12.748  0.00  0.00    +0.000 A 
ATOM     36  O   UNL     1      44.811   4.704  13.757  0.00  0.00    +0.000 OA
ATOM     37  C   UNL     1      44.887   4.461  11.403  0.00  0.00    +0.000 A 
ATOM     38  H   UNL     1      43.463   2.645  13.749  0.00  0.00    +0.000 HD
ENDBRANCH  25  28
ENDBRANCH  23  24
ENDBRANCH   4  23
TORSDOF 11
ENDMDL
MODEL 8
REMARK VINA RESULT:    -6.269      3.137      4.474
REMARK INTER + INTRA:         -11.326
REMARK INTER:                  -9.537
REMARK INTRA:                  -1.789
REMARK UNBOUND:                -1.209
REMARK  Name = 
REMARK  11 active torsions:
REMARK  status: ('A' for Active; 'I' for Inactive)
REMARK    1  A    between atoms: N_1  and  C_2
REMARK    2  A    between atoms: C_2  and  C_3
REMARK    3  A    between atoms: C_3  and  N_4
REMARK    4  A    between atoms: N_4  and  C_5
REMARK    5  A    between atoms: C_5  and  C_6
REMARK    6  A    between atoms: C_9  and  C_10
REMARK    7  A    between atoms: C_10  and  O_11
REMARK    8  A    between atoms: O_11  and  C_12
REMARK    9  A    between atoms: C_15  and  C_16
REMARK   10  A    between atoms: C_16  and  N_17
REMARK   11  A    between atoms: C_18  and  C_20
REMARK                            x       y       z     vdW  Elec       q    Type
REMARK                         _______ _______ _______ _____ _____    ______ ____
ROOT
ATOM      1  C   UNL     1      47.679   8.948  12.367  0.00  0.00    +0.000 A 
ATOM      2  C   UNL     1      48.649   8.227  11.691  0.00  0.00    +0.000 A 
ATOM      3  C   UNL     1      49.829   7.913  12.364  0.00  0.00    +0.000 A 
ATOM      4  C   UNL     1      50.021   8.364  13.674  0.00  0.00    +0.000 A 
ATOM      5  C   UNL     1      48.984   9.083  14.258  0.00  0.00    +0.000 A 
ATOM      6  N   UNL     1      47.820   9.380  13.637  0.00  0.00    +0.000 NA
ENDROOT
BRANCH   1   7
ATOM      7  O   UNL     1      46.529   9.257  11.668  0.00  0.00    +0.000 OA
BRANCH   7   8
ATOM      8  C   UNL     1      45.351   8.899  12.395  0.00  0.00    +0.000 C 
BRANCH   8  12
ATOM      9  C   UNL     1      44.583   4.738  11.881  0.00  0.00    +0.000 A 
ATOM     10  C   UNL     1      45.498   5.130  12.854  0.00  0.00    +0.000 A 
ATOM     11  C   UNL     1      45.751   6.487  13.030  0.00  0.00    +0.000 A 
ATOM     12  C   UNL     1      45.088   7.426  12.240  0.00  0.00    +0.000 A 
ATOM     13  C   UNL     1      44.200   6.944  11.285  0.00  0.00    +0.000 A 
ATOM     14  N   UNL     1      43.933   5.631  11.089  0.00  0.00    +0.000 NA
BRANCH   9  15
ATOM     15  C   UNL     1      44.208   3.274  11.749  0.00  0.00    +0.000 C 
BRANCH  15  16
ATOM     16  N   UNL     1      43.747   2.886  10.398  0.00  0.00    +0.000 NA
ATOM     17  H   UNL     1      43.236   2.006  10.510  0.00  0.00    +0.000 HD
BRANCH  16  18
ATOM     18  C   UNL     1      44.874   2.581   9.494  0.00  0.00    +0.000 C 
BRANCH  18  19
ATOM     19  C   UNL     1      44.871   3.408   8.193  0.00  0.00    +0.000 C 
BRANCH  19  20
ATOM     20  N   UNL     1      45.361   4.772   8.430  0.00  0.00    +0.000 NA
ATOM     21  H   UNL     1      44.638   5.431   8.146  0.00  0.00    +0.000 HD
ATOM     22  H   UNL     1      46.158   4.943   7.817  0.00  0.00    +0.000 HD
ENDBRANCH  19  20
ENDBRANCH  18  19
ENDBRANCH  16  18
ENDBRANCH  15  16
ENDBRANCH   9  15
ENDBRANCH   8  12
ENDBRANCH   7   8
ENDBRANCH   1   7
BRANCH   4  23
ATOM     23  C   UNL     1      51.264   8.039  14.450  0.00  0.00    +0.000 C 
BRANCH  23  24
ATOM     24  N   UNL     1      50.987   7.048  15.457  0.00  0.00    +0.000 N 
ATOM     25  C   UNL     1      50.809   7.386  16.774  0.00  0.00    +0.000 C 
ATOM     26  O   UNL     1      50.824   8.554  17.152  0.00  0.00    +0.000 OA
ATOM     27  H   UNL     1      51.205   6.084  15.223  0.00  0.00    +0.000 HD
BRANCH  25  28
ATOM     28  C   UNL     1      50.537   6.278  17.697  0.00  0.00    +0.000 A 
ATOM     29  C   UNL     1      51.309   6.128  18.843  0.00  0.00    +0.000 A 
ATOM     30  S   UNL     1      50.810   4.836  19.839  0.00  0.00    +0.000 S 
ATOM     31  C   UNL     1      49.581   4.395  18.747  0.00  0.00    +0.000 A 
ATOM     32  N   UNL     1      48.773   3.334  18.995  0.00  0.00    +0.000 NA
ATOM     33  C   UNL     1      47.902   3.095  18.070  0.00  0.00    +0.000 A 
ATOM     34  N   UNL     1      47.768   3.826  16.920  0.00  0.00    +0.000 N 
ATOM     35  C   UNL     1      48.546   4.923  16.638  0.00  0.00    +0.000 A 
ATOM     36  O   UNL     1      48.376   5.576  15.615  0.00  0.00    +0.000 OA
ATOM     37  C   UNL     1      49.544   5.230  17.645  0.00  0.00    +0.000 A 
ATOM     38  H   UNL     1      47.063   3.590  16.236  0.00  0.00    +0.000 HD
ENDBRANCH  25  28
ENDBRANCH  23  24
ENDBRANCH   4  23
TORSDOF 11
ENDMDL
MODEL 9
REMARK VINA RESULT:    -6.266      3.694      9.884
REMARK INTER + INTRA:         -11.321
REMARK INTER:                 -10.272
REMARK INTRA:                  -1.049
REMARK UNBOUND:                -1.209
REMARK  Name = 
REMARK  11 active torsions:
REMARK  status: ('A' for Active; 'I' for Inactive)
REMARK    1  A    between atoms: N_1  and  C_2
REMARK    2  A    between atoms: C_2  and  C_3
REMARK    3  A    between atoms: C_3  and  N_4
REMARK    4  A    between atoms: N_4  and  C_5
REMARK    5  A    between atoms: C_5  and  C_6
REMARK    6  A    between atoms: C_9  and  C_10
REMARK    7  A    between atoms: C_10  and  O_11
REMARK    8  A    between atoms: O_11  and  C_12
REMARK    9  A    between atoms: C_15  and  C_16
REMARK   10  A    between atoms: C_16  and  N_17
REMARK   11  A    between atoms: C_18  and  C_20
REMARK                            x       y       z     vdW  Elec       q    Type
REMARK                         _______ _______ _______ _____ _____    ______ ____
ROOT
ATOM      1  C   UNL     1      50.569   4.752  17.618  0.00  0.00    +0.000 A 
ATOM      2  C   UNL     1      49.195   4.836  17.466  0.00  0.00    +0.000 A 
ATOM      3  C   UNL     1      48.679   5.851  16.661  0.00  0.00    +0.000 A 
ATOM      4  C   UNL     1      49.547   6.774  16.070  0.00  0.00    +0.000 A 
ATOM      5  C   UNL     1      50.908   6.601  16.290  0.00  0.00    +0.000 A 
ATOM      6  N   UNL     1      51.436   5.611  17.045  0.00  0.00    +0.000 NA
ENDROOT
BRANCH   1   7
ATOM      7  O   UNL     1      51.047   3.746  18.434  0.00  0.00    +0.000 OA
BRANCH   7   8
ATOM      8  C   UNL     1      52.455   3.863  18.656  0.00  0.00    +0.000 C 
BRANCH   8  12
ATOM      9  C   UNL     1      54.304   0.028  18.454  0.00  0.00    +0.000 A 
ATOM     10  C   UNL     1      53.172   0.262  17.678  0.00  0.00    +0.000 A 
ATOM     11  C   UNL     1      52.565   1.513  17.736  0.00  0.00    +0.000 A 
ATOM     12  C   UNL     1      53.096   2.506  18.560  0.00  0.00    +0.000 A 
ATOM     13  C   UNL     1      54.221   2.180  19.308  0.00  0.00    +0.000 A 
ATOM     14  N   UNL     1      54.835   0.973  19.274  0.00  0.00    +0.000 NA
BRANCH   9  15
ATOM     15  C   UNL     1      55.047  -1.288  18.321  0.00  0.00    +0.000 C 
BRANCH  15  16
ATOM     16  N   UNL     1      54.229  -2.395  17.781  0.00  0.00    +0.000 NA
ATOM     17  H   UNL     1      53.740  -2.808  18.580  0.00  0.00    +0.000 HD
BRANCH  16  18
ATOM     18  C   UNL     1      55.061  -3.477  17.218  0.00  0.00    +0.000 C 
BRANCH  18  19
ATOM     19  C   UNL     1      54.992  -3.582  15.682  0.00  0.00    +0.000 C 
BRANCH  19  20
ATOM     20  N   UNL     1      54.183  -2.498  15.112  0.00  0.00    +0.000 NA
ATOM     21  H   UNL     1      54.268  -1.680  15.712  0.00  0.00    +0.000 HD
ATOM     22  H   UNL     1      53.201  -2.772  15.144  0.00  0.00    +0.000 HD
ENDBRANCH  19  20
ENDBRANCH  18  19
ENDBRANCH  16  18
ENDBRANCH  15  16
ENDBRANCH   9  15
ENDBRANCH   8  12
ENDBRANCH   7   8
ENDBRANCH   1   7
BRANCH   4  23
ATOM     23  C   UNL     1      49.047   7.875  15.180  0.00  0.00    +0.000 C 
BRANCH  23  24
ATOM     24  N   UNL     1      47.845   7.469  14.499  0.00  0.00    +0.000 N 
ATOM     25  C   UNL     1      47.883   6.739  13.339  0.00  0.00    +0.000 C 
ATOM     26  O   UNL     1      48.941   6.349  12.851  0.00  0.00    +0.000 OA
ATOM     27  H   UNL     1      46.993   7.968  14.737  0.00  0.00    +0.000 HD
BRANCH  25  28
ATOM     28  C   UNL     1      46.585   6.394  12.746  0.00  0.00    +0.000 A 
ATOM     29  C   UNL     1      45.792   7.392  12.193  0.00  0.00    +0.000 A 
ATOM     30  S   UNL     1      44.354   6.808  11.484  0.00  0.00    +0.000 S 
ATOM     31  C   UNL     1      44.713   5.208  11.941  0.00  0.00    +0.000 A 
ATOM     32  N   UNL     1      43.865   4.190  11.647  0.00  0.00    +0.000 NA
ATOM     33  C   UNL     1      44.248   3.032  12.077  0.00  0.00    +0.000 A 
ATOM     34  N   UNL     1      45.405   2.804  12.772  0.00  0.00    +0.000 N 
ATOM     35  C   UNL     1      46.306   3.799  13.070  0.00  0.00    +0.000 A 
ATOM     36  O   UNL     1      47.349   3.553  13.664  0.00  0.00    +0.000 OA
ATOM     37  C   UNL     1      45.919   5.120  12.613  0.00  0.00    +0.000 A 
ATOM     38  H   UNL     1      45.650   1.873  13.077  0.00  0.00    +0.000 HD
ENDBRANCH  25  28
ENDBRANCH  23  24
ENDBRANCH   4  23
TORSDOF 11
ENDMDL
