MODEL 1
REMARK VINA RESULT:    -7.946      0.000      0.000
REMARK INTER + INTRA:         -11.729
REMARK INTER:                 -10.732
REMARK INTRA:                  -0.997
REMARK UNBOUND:                -0.997
REMARK  Name = 
REMARK  7 active torsions:
REMARK  status: ('A' for Active; 'I' for Inactive)
REMARK    1  A    between atoms: C_1  and  O_2
REMARK    2  A    between atoms: O_2  and  C_3
REMARK    3  A    between atoms: C_8  and  C_9
REMARK    4  A    between atoms: C_9  and  C_10
REMARK    5  A    between atoms: C_13  and  C_14
REMARK    6  A    between atoms: C_14  and  N_15
REMARK    7  A    between atoms: C_16  and  C_18
REMARK                            x       y       z     vdW  Elec       q    Type
REMARK                         _______ _______ _______ _____ _____    ______ ____
ROOT
ATOM      1  C   UNL     1      47.576   8.548  13.882  0.00  0.00    +0.000 C 
ENDROOT
BRANCH   1   5
ATOM      2  C   UNL     1      45.058   6.453  11.147  0.00  0.00    +0.000 A 
ATOM      3  C   UNL     1      46.334   5.949  11.390  0.00  0.00    +0.000 A 
ATOM      4  C   UNL     1      47.188   6.646  12.249  0.00  0.00    +0.000 A 
ATOM      5  C   UNL     1      46.760   7.832  12.845  0.00  0.00    +0.000 A 
ATOM      6  C   UNL     1      45.511   8.311  12.465  0.00  0.00    +0.000 A 
ATOM      7  N   UNL     1      44.655   7.651  11.646  0.00  0.00    +0.000 NA
BRANCH   2   8
ATOM      8  C   UNL     1      44.020   5.606  10.435  0.00  0.00    +0.000 C 
BRANCH   8  14
ATOM      9  C   UNL     1      44.149   3.077  10.055  0.00  0.00    +0.000 A 
ATOM     10  C   UNL     1      44.676   1.990   9.344  0.00  0.00    +0.000 A 
ATOM     11  C   UNL     1      45.576   2.192   8.296  0.00  0.00    +0.000 A 
ATOM     12  C   UNL     1      45.949   3.481   7.937  0.00  0.00    +0.000 A 
ATOM     13  C   UNL     1      45.438   4.570   8.642  0.00  0.00    +0.000 A 
ATOM     14  C   UNL     1      44.539   4.385   9.709  0.00  0.00    +0.000 A 
BRANCH   9  16
ATOM     15  C   UNL     1      43.734   2.824  12.382  0.00  0.00    +0.000 C 
ATOM     16  O   UNL     1      43.223   2.957  11.059  0.00  0.00    +0.000 OA
ENDBRANCH   9  16
ENDBRANCH   8  14
ENDBRANCH   2   8
ENDBRANCH   1   5
BRANCH   1  17
ATOM     17  N   UNL     1      47.870   7.725  15.026  0.00  0.00    +0.000 N 
ATOM     18  C   UNL     1      49.106   7.140  15.173  0.00  0.00    +0.000 C 
ATOM     19  O   UNL     1      50.018   7.342  14.374  0.00  0.00    +0.000 OA
ATOM     20  H   UNL     1      47.083   7.355  15.550  0.00  0.00    +0.000 HD
BRANCH  18  21
ATOM     21  C   UNL     1      49.304   6.313  16.367  0.00  0.00    +0.000 A 
ATOM     22  C   UNL     1      50.292   6.647  17.285  0.00  0.00    +0.000 A 
ATOM     23  S   UNL     1      50.347   5.610  18.640  0.00  0.00    +0.000 S 
ATOM     24  C   UNL     1      49.090   4.642  18.020  0.00  0.00    +0.000 A 
ATOM     25  N   UNL     1      48.654   3.545  18.691  0.00  0.00    +0.000 NA
ATOM     26  C   UNL     1      47.719   2.888  18.089  0.00  0.00    +0.000 A 
ATOM     27  N   UNL     1      47.177   3.233  16.879  0.00  0.00    +0.000 N 
ATOM     28  C   UNL     1      47.563   4.352  16.181  0.00  0.00    +0.000 A 
ATOM     29  O   UNL     1      47.029   4.662  15.121  0.00  0.00    +0.000 OA
ATOM     30  C   UNL     1      48.622   5.119  16.806  0.00  0.00    +0.000 A 
ATOM     31  H   UNL     1      46.439   2.680  16.462  0.00  0.00    +0.000 HD
ENDBRANCH  18  21
ENDBRANCH   1  17
TORSDOF 6
ENDMDL
MODEL 2
REMARK VINA RESULT:    -7.433      1.365      1.668
REMARK INTER + INTRA:         -11.037
REMARK INTER:                 -10.221
REMARK INTRA:                  -0.817
REMARK UNBOUND:                -0.997
REMARK  Name = 
REMARK  7 active torsions:
REMARK  status: ('A' for Active; 'I' for Inactive)
REMARK    1  A    between atoms: C_1  and  O_2
REMARK    2  A    between atoms: O_2  and  C_3
REMARK    3  A    between atoms: C_8  and  C_9
REMARK    4  A    between atoms: C_9  and  C_10
REMARK    5  A    between atoms: C_13  and  C_14
REMARK    6  A    between atoms: C_14  and  N_15
REMARK    7  A    between atoms: C_16  and  C_18
REMARK                            x       y       z     vdW  Elec       q    Type
REMARK                         _______ _______ _______ _____ _____    ______ ____
ROOT
ATOM      1  C   UNL     1      48.112   8.003  13.688  0.00  0.00    +0.000 C 
ENDROOT
BRANCH   1   5
ATOM      2  C   UNL     1      44.838   6.171  11.654  0.00  0.00    +0.000 A 
ATOM      3  C   UNL     1      44.946   7.559  11.616  0.00  0.00    +0.000 A 
ATOM      4  C   UNL     1      45.987   8.180  12.313  0.00  0.00    +0.000 A 
ATOM      5  C   UNL     1      46.896   7.409  13.038  0.00  0.00    +0.000 A 
ATOM      6  C   UNL     1      46.649   6.042  13.102  0.00  0.00    +0.000 A 
ATOM      7  N   UNL     1      45.658   5.410  12.425  0.00  0.00    +0.000 NA
BRANCH   2   8
ATOM      8  C   UNL     1      43.890   5.448  10.715  0.00  0.00    +0.000 C 
BRANCH   8  14
ATOM      9  C   UNL     1      44.149   2.985  10.066  0.00  0.00    +0.000 A 
ATOM     10  C   UNL     1      44.751   2.006   9.263  0.00  0.00    +0.000 A 
ATOM     11  C   UNL     1      45.680   2.360   8.283  0.00  0.00    +0.000 A 
ATOM     12  C   UNL     1      46.007   3.696   8.085  0.00  0.00    +0.000 A 
ATOM     13  C   UNL     1      45.421   4.677   8.882  0.00  0.00    +0.000 A 
ATOM     14  C   UNL     1      44.492   4.338   9.883  0.00  0.00    +0.000 A 
BRANCH   9  16
ATOM     15  C   UNL     1      43.654   2.498  12.340  0.00  0.00    +0.000 C 
ATOM     16  O   UNL     1      43.191   2.716  11.011  0.00  0.00    +0.000 OA
ENDBRANCH   9  16
ENDBRANCH   8  14
ENDBRANCH   2   8
ENDBRANCH   1   5
BRANCH   1  17
ATOM     17  N   UNL     1      48.097   7.874  15.122  0.00  0.00    +0.000 N 
ATOM     18  C   UNL     1      49.073   7.159  15.775  0.00  0.00    +0.000 C 
ATOM     19  O   UNL     1      50.021   6.658  15.173  0.00  0.00    +0.000 OA
ATOM     20  H   UNL     1      47.220   8.061  15.599  0.00  0.00    +0.000 HD
BRANCH  18  21
ATOM     21  C   UNL     1      48.965   7.078  17.234  0.00  0.00    +0.000 A 
ATOM     22  C   UNL     1      48.923   8.243  17.992  0.00  0.00    +0.000 A 
ATOM     23  S   UNL     1      48.740   7.965  19.665  0.00  0.00    +0.000 S 
ATOM     24  C   UNL     1      48.768   6.276  19.445  0.00  0.00    +0.000 A 
ATOM     25  N   UNL     1      48.677   5.430  20.503  0.00  0.00    +0.000 NA
ATOM     26  C   UNL     1      48.744   4.177  20.192  0.00  0.00    +0.000 A 
ATOM     27  N   UNL     1      48.888   3.697  18.917  0.00  0.00    +0.000 N 
ATOM     28  C   UNL     1      48.949   4.514  17.814  0.00  0.00    +0.000 A 
ATOM     29  O   UNL     1      49.032   4.055  16.679  0.00  0.00    +0.000 OA
ATOM     30  C   UNL     1      48.894   5.932  18.108  0.00  0.00    +0.000 A 
ATOM     31  H   UNL     1      48.925   2.701  18.736  0.00  0.00    +0.000 HD
ENDBRANCH  18  21
ENDBRANCH   1  17
TORSDOF 6
ENDMDL
MODEL 3
REMARK VINA RESULT:    -7.120      3.810      5.341
REMARK INTER + INTRA:         -10.613
REMARK INTER:                 -10.136
REMARK INTRA:                  -0.477
REMARK UNBOUND:                -0.997
REMARK  Name = 
REMARK  7 active torsions:
REMARK  status: ('A' for Active; 'I' for Inactive)
REMARK    1  A    between atoms: C_1  and  O_2
REMARK    2  A    between atoms: O_2  and  C_3
REMARK    3  A    between atoms: C_8  and  C_9
REMARK    4  A    between atoms: C_9  and  C_10
REMARK    5  A    between atoms: C_13  and  C_14
REMARK    6  A    between atoms: C_14  and  N_15
REMARK    7  A    between atoms: C_16  and  C_18
REMARK                            x       y       z     vdW  Elec       q    Type
REMARK                         _______ _______ _______ _____ _____    ______ ____
ROOT
ATOM      1  C   UNL     1      44.948   6.200  13.272  0.00  0.00    +0.000 C 
ENDROOT
BRANCH   1   5
ATOM      2  C   UNL     1      44.491   3.187  10.284  0.00  0.00    +0.000 A 
ATOM      3  C   UNL     1      43.826   4.398  10.109  0.00  0.00    +0.000 A 
ATOM      4  C   UNL     1      43.928   5.381  11.098  0.00  0.00    +0.000 A 
ATOM      5  C   UNL     1      44.685   5.137  12.244  0.00  0.00    +0.000 A 
ATOM      6  C   UNL     1      45.229   3.864  12.379  0.00  0.00    +0.000 A 
ATOM      7  N   UNL     1      45.159   2.897  11.432  0.00  0.00    +0.000 NA
BRANCH   2   8
ATOM      8  C   UNL     1      44.616   2.205   9.134  0.00  0.00    +0.000 C 
BRANCH   8  14
ATOM      9  C   UNL     1      46.632   1.378   7.789  0.00  0.00    +0.000 A 
ATOM     10  C   UNL     1      47.696   1.653   6.920  0.00  0.00    +0.000 A 
ATOM     11  C   UNL     1      47.915   2.948   6.448  0.00  0.00    +0.000 A 
ATOM     12  C   UNL     1      47.066   3.980   6.828  0.00  0.00    +0.000 A 
ATOM     13  C   UNL     1      46.008   3.720   7.697  0.00  0.00    +0.000 A 
ATOM     14  C   UNL     1      45.780   2.423   8.193  0.00  0.00    +0.000 A 
BRANCH   9  16
ATOM     15  C   UNL     1      46.490  -0.951   7.330  0.00  0.00    +0.000 C 
ATOM     16  O   UNL     1      46.326   0.123   8.251  0.00  0.00    +0.000 OA
ENDBRANCH   9  16
ENDBRANCH   8  14
ENDBRANCH   2   8
ENDBRANCH   1   5
BRANCH   1  17
ATOM     17  N   UNL     1      46.082   7.024  12.944  0.00  0.00    +0.000 N 
ATOM     18  C   UNL     1      45.909   8.305  12.473  0.00  0.00    +0.000 C 
ATOM     19  O   UNL     1      44.794   8.812  12.370  0.00  0.00    +0.000 OA
ATOM     20  H   UNL     1      46.970   6.557  12.789  0.00  0.00    +0.000 HD
BRANCH  18  21
ATOM     21  C   UNL     1      47.125   9.060  12.159  0.00  0.00    +0.000 A 
ATOM     22  C   UNL     1      47.040  10.410  11.843  0.00  0.00    +0.000 A 
ATOM     23  S   UNL     1      48.554  11.144  11.560  0.00  0.00    +0.000 S 
ATOM     24  C   UNL     1      49.376   9.670  11.792  0.00  0.00    +0.000 A 
ATOM     25  N   UNL     1      50.725   9.592  11.666  0.00  0.00    +0.000 NA
ATOM     26  C   UNL     1      51.209   8.407  11.838  0.00  0.00    +0.000 A 
ATOM     27  N   UNL     1      50.465   7.294  12.130  0.00  0.00    +0.000 N 
ATOM     28  C   UNL     1      49.102   7.332  12.299  0.00  0.00    +0.000 A 
ATOM     29  O   UNL     1      48.466   6.329  12.605  0.00  0.00    +0.000 OA
ATOM     30  C   UNL     1      48.504   8.638  12.102  0.00  0.00    +0.000 A 
ATOM     31  H   UNL     1      50.905   6.392  12.261  0.00  0.00    +0.000 HD
ENDBRANCH  18  21
ENDBRANCH   1  17
TORSDOF 6
ENDMDL
MODEL 4
REMARK VINA RESULT:    -7.033      3.009      4.629
REMARK INTER + INTRA:         -10.497
REMARK INTER:                  -9.668
REMARK INTRA:                  -0.828
REMARK UNBOUND:                -0.997
REMARK  Name = 
REMARK  7 active torsions:
REMARK  status: ('A' for Active; 'I' for Inactive)
REMARK    1  A    between atoms: C_1  and  O_2
REMARK    2  A    between atoms: O_2  and  C_3
REMARK    3  A    between atoms: C_8  and  C_9
REMARK    4  A    between atoms: C_9  and  C_10
REMARK    5  A    between atoms: C_13  and  C_14
REMARK    6  A    between atoms: C_14  and  N_15
REMARK    7  A    between atoms: C_16  and  C_18
REMARK                            x       y       z     vdW  Elec       q    Type
REMARK                         _______ _______ _______ _____ _____    ______ ____
ROOT
ATOM      1  C   UNL     1      45.089   5.516  13.349  0.00  0.00    +0.000 C 
ENDROOT
BRANCH   1   5
ATOM      2  C   UNL     1      44.442   3.091   9.897  0.00  0.00    +0.000 A 
ATOM      3  C   UNL     1      44.125   4.446   9.822  0.00  0.00    +0.000 A 
ATOM      4  C   UNL     1      44.289   5.247  10.956  0.00  0.00    +0.000 A 
ATOM      5  C   UNL     1      44.759   4.685  12.143  0.00  0.00    +0.000 A 
ATOM      6  C   UNL     1      44.952   3.307  12.152  0.00  0.00    +0.000 A 
ATOM      7  N   UNL     1      44.815   2.508  11.066  0.00  0.00    +0.000 NA
BRANCH   2   8
ATOM      8  C   UNL     1      44.522   2.251   8.637  0.00  0.00    +0.000 C 
BRANCH   8  14
ATOM      9  C   UNL     1      46.714   1.396   7.623  0.00  0.00    +0.000 A 
ATOM     10  C   UNL     1      47.850   1.629   6.837  0.00  0.00    +0.000 A 
ATOM     11  C   UNL     1      48.049   2.865   6.220  0.00  0.00    +0.000 A 
ATOM     12  C   UNL     1      47.109   3.878   6.371  0.00  0.00    +0.000 A 
ATOM     13  C   UNL     1      45.979   3.660   7.157  0.00  0.00    +0.000 A 
ATOM     14  C   UNL     1      45.768   2.425   7.796  0.00  0.00    +0.000 A 
BRANCH   9  16
ATOM     15  C   UNL     1      46.415  -0.949   7.364  0.00  0.00    +0.000 C 
ATOM     16  O   UNL     1      46.427   0.192   8.216  0.00  0.00    +0.000 OA
ENDBRANCH   9  16
ENDBRANCH   8  14
ENDBRANCH   2   8
ENDBRANCH   1   5
BRANCH   1  17
ATOM     17  N   UNL     1      46.207   6.397  13.130  0.00  0.00    +0.000 N 
ATOM     18  C   UNL     1      47.496   5.958  13.318  0.00  0.00    +0.000 C 
ATOM     19  O   UNL     1      47.747   4.792  13.618  0.00  0.00    +0.000 OA
ATOM     20  H   UNL     1      46.021   7.395  13.125  0.00  0.00    +0.000 HD
BRANCH  18  21
ATOM     21  C   UNL     1      48.565   6.932  13.079  0.00  0.00    +0.000 A 
ATOM     22  C   UNL     1      48.651   7.579  11.851  0.00  0.00    +0.000 A 
ATOM     23  S   UNL     1      49.918   8.719  11.765  0.00  0.00    +0.000 S 
ATOM     24  C   UNL     1      50.434   8.348  13.346  0.00  0.00    +0.000 A 
ATOM     25  N   UNL     1      51.513   8.964  13.893  0.00  0.00    +0.000 NA
ATOM     26  C   UNL     1      51.809   8.562  15.085  0.00  0.00    +0.000 A 
ATOM     27  N   UNL     1      51.120   7.603  15.779  0.00  0.00    +0.000 N 
ATOM     28  C   UNL     1      50.003   6.978  15.278  0.00  0.00    +0.000 A 
ATOM     29  O   UNL     1      49.378   6.156  15.941  0.00  0.00    +0.000 OA
ATOM     30  C   UNL     1      49.635   7.382  13.936  0.00  0.00    +0.000 A 
ATOM     31  H   UNL     1      51.397   7.337  16.716  0.00  0.00    +0.000 HD
ENDBRANCH  18  21
ENDBRANCH   1  17
TORSDOF 6
ENDMDL
MODEL 5
REMARK VINA RESULT:    -7.013      2.031      2.226
REMARK INTER + INTRA:         -10.470
REMARK INTER:                  -9.249
REMARK INTRA:                  -1.221
REMARK UNBOUND:                -0.997
REMARK  Name = 
REMARK  7 active torsions:
REMARK  status: ('A' for Active; 'I' for Inactive)
REMARK    1  A    between atoms: C_1  and  O_2
REMARK    2  A    between atoms: O_2  and  C_3
REMARK    3  A    between atoms: C_8  and  C_9
REMARK    4  A    between atoms: C_9  and  C_10
REMARK    5  A    between atoms: C_13  and  C_14
REMARK    6  A    between atoms: C_14  and  N_15
REMARK    7  A    between atoms: C_16  and  C_18
REMARK                            x       y       z     vdW  Elec       q    Type
REMARK                         _______ _______ _______ _____ _____    ______ ____
ROOT
ATOM      1  C   UNL     1      48.552   7.415  15.241  0.00  0.00    +0.000 C 
ENDROOT
BRANCH   1   5
ATOM      2  C   UNL     1      45.955   6.280  12.050  0.00  0.00    +0.000 A 
ATOM      3  C   UNL     1      46.326   5.309  12.978  0.00  0.00    +0.000 A 
ATOM      4  C   UNL     1      47.210   5.651  14.004  0.00  0.00    +0.000 A 
ATOM      5  C   UNL     1      47.713   6.950  14.085  0.00  0.00    +0.000 A 
ATOM      6  C   UNL     1      47.368   7.822  13.058  0.00  0.00    +0.000 A 
ATOM      7  N   UNL     1      46.501   7.524  12.059  0.00  0.00    +0.000 NA
BRANCH   2   8
ATOM      8  C   UNL     1      44.813   6.023  11.085  0.00  0.00    +0.000 C 
BRANCH   8  14
ATOM      9  C   UNL     1      44.282   3.651  10.279  0.00  0.00    +0.000 A 
ATOM     10  C   UNL     1      44.501   2.611   9.366  0.00  0.00    +0.000 A 
ATOM     11  C   UNL     1      45.406   2.764   8.314  0.00  0.00    +0.000 A 
ATOM     12  C   UNL     1      46.093   3.961   8.156  0.00  0.00    +0.000 A 
ATOM     13  C   UNL     1      45.889   5.000   9.062  0.00  0.00    +0.000 A 
ATOM     14  C   UNL     1      44.989   4.860  10.135  0.00  0.00    +0.000 A 
BRANCH   9  16
ATOM     15  C   UNL     1      43.634   2.644  12.333  0.00  0.00    +0.000 C 
ATOM     16  O   UNL     1      43.371   3.591  11.303  0.00  0.00    +0.000 OA
ENDBRANCH   9  16
ENDBRANCH   8  14
ENDBRANCH   2   8
ENDBRANCH   1   5
BRANCH   1  17
ATOM     17  N   UNL     1      49.532   6.441  15.644  0.00  0.00    +0.000 N 
ATOM     18  C   UNL     1      49.960   6.372  16.949  0.00  0.00    +0.000 C 
ATOM     19  O   UNL     1      49.483   7.089  17.826  0.00  0.00    +0.000 OA
ATOM     20  H   UNL     1      50.102   6.022  14.915  0.00  0.00    +0.000 HD
BRANCH  18  21
ATOM     21  C   UNL     1      50.968   5.353  17.258  0.00  0.00    +0.000 A 
ATOM     22  C   UNL     1      52.253   5.738  17.620  0.00  0.00    +0.000 A 
ATOM     23  S   UNL     1      53.279   4.428  17.998  0.00  0.00    +0.000 S 
ATOM     24  C   UNL     1      52.060   3.295  17.635  0.00  0.00    +0.000 A 
ATOM     25  N   UNL     1      52.292   1.961  17.729  0.00  0.00    +0.000 NA
ATOM     26  C   UNL     1      51.289   1.219  17.393  0.00  0.00    +0.000 A 
ATOM     27  N   UNL     1      50.073   1.694  16.977  0.00  0.00    +0.000 N 
ATOM     28  C   UNL     1      49.782   3.034  16.900  0.00  0.00    +0.000 A 
ATOM     29  O   UNL     1      48.669   3.431  16.567  0.00  0.00    +0.000 OA
ATOM     30  C   UNL     1      50.880   3.913  17.252  0.00  0.00    +0.000 A 
ATOM     31  H   UNL     1      49.321   1.060  16.735  0.00  0.00    +0.000 HD
ENDBRANCH  18  21
ENDBRANCH   1  17
TORSDOF 6
ENDMDL
MODEL 6
REMARK VINA RESULT:    -6.978      2.341      3.161
REMARK INTER + INTRA:         -10.422
REMARK INTER:                  -9.375
REMARK INTRA:                  -1.047
REMARK UNBOUND:                -0.997
REMARK  Name = 
REMARK  7 active torsions:
REMARK  status: ('A' for Active; 'I' for Inactive)
REMARK    1  A    between atoms: C_1  and  O_2
REMARK    2  A    between atoms: O_2  and  C_3
REMARK    3  A    between atoms: C_8  and  C_9
REMARK    4  A    between atoms: C_9  and  C_10
REMARK    5  A    between atoms: C_13  and  C_14
REMARK    6  A    between atoms: C_14  and  N_15
REMARK    7  A    between atoms: C_16  and  C_18
REMARK                            x       y       z     vdW  Elec       q    Type
REMARK                         _______ _______ _______ _____ _____    ______ ____
ROOT
ATOM      1  C   UNL     1      48.433   7.479  14.095  0.00  0.00    +0.000 C 
ENDROOT
BRANCH   1   5
ATOM      2  C   UNL     1      45.168   6.132  11.699  0.00  0.00    +0.000 A 
ATOM      3  C   UNL     1      45.272   7.495  11.968  0.00  0.00    +0.000 A 
ATOM      4  C   UNL     1      46.310   7.950  12.787  0.00  0.00    +0.000 A 
ATOM      5  C   UNL     1      47.220   7.040  13.326  0.00  0.00    +0.000 A 
ATOM      6  C   UNL     1      46.977   5.692  13.086  0.00  0.00    +0.000 A 
ATOM      7  N   UNL     1      45.989   5.222  12.285  0.00  0.00    +0.000 NA
BRANCH   2   8
ATOM      8  C   UNL     1      44.224   5.633  10.621  0.00  0.00    +0.000 C 
BRANCH   8  14
ATOM      9  C   UNL     1      44.236   3.155   9.974  0.00  0.00    +0.000 A 
ATOM     10  C   UNL     1      44.741   2.121   9.174  0.00  0.00    +0.000 A 
ATOM     11  C   UNL     1      45.704   2.379   8.197  0.00  0.00    +0.000 A 
ATOM     12  C   UNL     1      46.165   3.675   8.000  0.00  0.00    +0.000 A 
ATOM     13  C   UNL     1      45.676   4.711   8.794  0.00  0.00    +0.000 A 
ATOM     14  C   UNL     1      44.714   4.467   9.792  0.00  0.00    +0.000 A 
BRANCH   9  16
ATOM     15  C   UNL     1      43.675   2.542  12.201  0.00  0.00    +0.000 C 
ATOM     16  O   UNL     1      43.253   2.984  10.915  0.00  0.00    +0.000 OA
ENDBRANCH   9  16
ENDBRANCH   8  14
ENDBRANCH   2   8
ENDBRANCH   1   5
BRANCH   1  17
ATOM     17  N   UNL     1      48.202   7.539  15.514  0.00  0.00    +0.000 N 
ATOM     18  C   UNL     1      48.823   6.657  16.367  0.00  0.00    +0.000 C 
ATOM     19  O   UNL     1      49.637   5.829  15.962  0.00  0.00    +0.000 OA
ATOM     20  H   UNL     1      47.373   8.032  15.833  0.00  0.00    +0.000 HD
BRANCH  18  21
ATOM     21  C   UNL     1      48.516   6.793  17.793  0.00  0.00    +0.000 A 
ATOM     22  C   UNL     1      47.985   5.717  18.494  0.00  0.00    +0.000 A 
ATOM     23  S   UNL     1      47.740   6.033  20.153  0.00  0.00    +0.000 S 
ATOM     24  C   UNL     1      48.281   7.639  19.984  0.00  0.00    +0.000 A 
ATOM     25  N   UNL     1      48.303   8.486  21.045  0.00  0.00    +0.000 NA
ATOM     26  C   UNL     1      48.706   9.682  20.765  0.00  0.00    +0.000 A 
ATOM     27  N   UNL     1      49.094  10.103  19.520  0.00  0.00    +0.000 N 
ATOM     28  C   UNL     1      49.120   9.272  18.426  0.00  0.00    +0.000 A 
ATOM     29  O   UNL     1      49.516   9.664  17.333  0.00  0.00    +0.000 OA
ATOM     30  C   UNL     1      48.663   7.921  18.682  0.00  0.00    +0.000 A 
ATOM     31  H   UNL     1      49.409  11.053  19.366  0.00  0.00    +0.000 HD
ENDBRANCH  18  21
ENDBRANCH   1  17
TORSDOF 6
ENDMDL
MODEL 7
REMARK VINA RESULT:    -6.967      3.971      9.417
REMARK INTER + INTRA:         -10.407
REMARK INTER:                  -9.360
REMARK INTRA:                  -1.047
REMARK UNBOUND:                -0.997
REMARK  Name = 
REMARK  7 active torsions:
REMARK  status: ('A' for Active; 'I' for Inactive)
REMARK    1  A    between atoms: C_1  and  O_2
REMARK    2  A    between atoms: O_2  and  C_3
REMARK    3  A    between atoms: C_8  and  C_9
REMARK    4  A    between atoms: C_9  and  C_10
REMARK    5  A    between atoms: C_13  and  C_14
REMARK    6  A    between atoms: C_14  and  N_15
REMARK    7  A    between atoms: C_16  and  C_18
REMARK                            x       y       z     vdW  Elec       q    Type
REMARK                         _______ _______ _______ _____ _____    ______ ____
ROOT
ATOM      1  C   UNL     1      47.154   3.376  16.783  0.00  0.00    +0.000 C 
ENDROOT
BRANCH   1   5
ATOM      2  C   UNL     1      51.313   3.797  17.643  0.00  0.00    +0.000 A 
ATOM      3  C   UNL     1      50.812   2.517  17.413  0.00  0.00    +0.000 A 
ATOM      4  C   UNL     1      49.444   2.355  17.173  0.00  0.00    +0.000 A 
ATOM      5  C   UNL     1      48.602   3.467  17.172  0.00  0.00    +0.000 A 
ATOM      6  C   UNL     1      49.173   4.689  17.512  0.00  0.00    +0.000 A 
ATOM      7  N   UNL     1      50.497   4.879  17.735  0.00  0.00    +0.000 NA
BRANCH   2   8
ATOM      8  C   UNL     1      52.810   4.045  17.652  0.00  0.00    +0.000 C 
BRANCH   8  14
ATOM      9  C   UNL     1      54.425   2.277  18.561  0.00  0.00    +0.000 A 
ATOM     10  C   UNL     1      55.111   1.715  19.646  0.00  0.00    +0.000 A 
ATOM     11  C   UNL     1      54.980   2.252  20.928  0.00  0.00    +0.000 A 
ATOM     12  C   UNL     1      54.172   3.362  21.138  0.00  0.00    +0.000 A 
ATOM     13  C   UNL     1      53.478   3.925  20.068  0.00  0.00    +0.000 A 
ATOM     14  C   UNL     1      53.589   3.390  18.771  0.00  0.00    +0.000 A 
BRANCH   9  16
ATOM     15  C   UNL     1      54.128   0.499  17.009  0.00  0.00    +0.000 C 
ATOM     16  O   UNL     1      54.546   1.836  17.267  0.00  0.00    +0.000 OA
ENDBRANCH   9  16
ENDBRANCH   8  14
ENDBRANCH   2   8
ENDBRANCH   1   5
BRANCH   1  17
ATOM     17  N   UNL     1      46.769   4.383  15.829  0.00  0.00    +0.000 N 
ATOM     18  C   UNL     1      46.860   4.145  14.478  0.00  0.00    +0.000 C 
ATOM     19  O   UNL     1      47.214   3.055  14.035  0.00  0.00    +0.000 OA
ATOM     20  H   UNL     1      46.714   5.342  16.159  0.00  0.00    +0.000 HD
BRANCH  18  21
ATOM     21  C   UNL     1      46.453   5.237  13.589  0.00  0.00    +0.000 A 
ATOM     22  C   UNL     1      47.327   6.287  13.335  0.00  0.00    +0.000 A 
ATOM     23  S   UNL     1      46.713   7.439  12.237  0.00  0.00    +0.000 S 
ATOM     24  C   UNL     1      45.232   6.608  12.105  0.00  0.00    +0.000 A 
ATOM     25  N   UNL     1      44.228   7.082  11.324  0.00  0.00    +0.000 NA
ATOM     26  C   UNL     1      43.152   6.367  11.344  0.00  0.00    +0.000 A 
ATOM     27  N   UNL     1      42.993   5.217  12.072  0.00  0.00    +0.000 N 
ATOM     28  C   UNL     1      43.992   4.682  12.849  0.00  0.00    +0.000 A 
ATOM     29  O   UNL     1      43.837   3.626  13.455  0.00  0.00    +0.000 OA
ATOM     30  C   UNL     1      45.218   5.454  12.874  0.00  0.00    +0.000 A 
ATOM     31  H   UNL     1      42.126   4.695  12.039  0.00  0.00    +0.000 HD
ENDBRANCH  18  21
ENDBRANCH   1  17
TORSDOF 6
ENDMDL
MODEL 8
REMARK VINA RESULT:    -6.834      3.027      8.568
REMARK INTER + INTRA:         -10.228
REMARK INTER:                  -9.120
REMARK INTRA:                  -1.108
REMARK UNBOUND:                -0.997
REMARK  Name = 
REMARK  7 active torsions:
REMARK  status: ('A' for Active; 'I' for Inactive)
REMARK    1  A    between atoms: C_1  and  O_2
REMARK    2  A    between atoms: O_2  and  C_3
REMARK    3  A    between atoms: C_8  and  C_9
REMARK    4  A    between atoms: C_9  and  C_10
REMARK    5  A    between atoms: C_13  and  C_14
REMARK    6  A    between atoms: C_14  and  N_15
REMARK    7  A    between atoms: C_16  and  C_18
REMARK                            x       y       z     vdW  Elec       q    Type
REMARK                         _______ _______ _______ _____ _____    ______ ____
ROOT
ATOM      1  C   UNL     1      47.361   3.442  16.547  0.00  0.00    +0.000 C 
ENDROOT
BRANCH   1   5
ATOM      2  C   UNL     1      50.976   5.025  18.173  0.00  0.00    +0.000 A 
ATOM      3  C   UNL     1      50.951   3.683  17.798  0.00  0.00    +0.000 A 
ATOM      4  C   UNL     1      49.764   3.136  17.305  0.00  0.00    +0.000 A 
ATOM      5  C   UNL     1      48.622   3.932  17.199  0.00  0.00    +0.000 A 
ATOM      6  C   UNL     1      48.713   5.229  17.692  0.00  0.00    +0.000 A 
ATOM      7  N   UNL     1      49.854   5.791  18.162  0.00  0.00    +0.000 NA
BRANCH   2   8
ATOM      8  C   UNL     1      52.294   5.716  18.467  0.00  0.00    +0.000 C 
BRANCH   8  14
ATOM      9  C   UNL     1      53.165   6.713  16.275  0.00  0.00    +0.000 A 
ATOM     10  C   UNL     1      54.114   6.713  15.243  0.00  0.00    +0.000 A 
ATOM     11  C   UNL     1      55.175   5.806  15.251  0.00  0.00    +0.000 A 
ATOM     12  C   UNL     1      55.308   4.898  16.295  0.00  0.00    +0.000 A 
ATOM     13  C   UNL     1      54.366   4.884  17.322  0.00  0.00    +0.000 A 
ATOM     14  C   UNL     1      53.283   5.782  17.324  0.00  0.00    +0.000 A 
BRANCH   9  16
ATOM     15  C   UNL     1      51.163   7.562  15.313  0.00  0.00    +0.000 C 
ATOM     16  O   UNL     1      52.128   7.607  16.359  0.00  0.00    +0.000 OA
ENDBRANCH   9  16
ENDBRANCH   8  14
ENDBRANCH   2   8
ENDBRANCH   1   5
BRANCH   1  17
ATOM     17  N   UNL     1      46.779   4.413  15.659  0.00  0.00    +0.000 N 
ATOM     18  C   UNL     1      46.790   4.218  14.297  0.00  0.00    +0.000 C 
ATOM     19  O   UNL     1      47.239   3.190  13.794  0.00  0.00    +0.000 OA
ATOM     20  H   UNL     1      46.633   5.351  16.022  0.00  0.00    +0.000 HD
BRANCH  18  21
ATOM     21  C   UNL     1      46.181   5.269  13.477  0.00  0.00    +0.000 A 
ATOM     22  C   UNL     1      46.859   6.464  13.266  0.00  0.00    +0.000 A 
ATOM     23  S   UNL     1      46.031   7.551  12.245  0.00  0.00    +0.000 S 
ATOM     24  C   UNL     1      44.708   6.488  12.093  0.00  0.00    +0.000 A 
ATOM     25  N   UNL     1      43.619   6.825  11.357  0.00  0.00    +0.000 NA
ATOM     26  C   UNL     1      42.679   5.937  11.356  0.00  0.00    +0.000 A 
ATOM     27  N   UNL     1      42.735   4.741  12.022  0.00  0.00    +0.000 N 
ATOM     28  C   UNL     1      43.830   4.344  12.751  0.00  0.00    +0.000 A 
ATOM     29  O   UNL     1      43.872   3.247  13.300  0.00  0.00    +0.000 OA
ATOM     30  C   UNL     1      44.909   5.311  12.797  0.00  0.00    +0.000 A 
ATOM     31  H   UNL     1      41.968   4.083  11.975  0.00  0.00    +0.000 HD
ENDBRANCH  18  21
ENDBRANCH   1  17
TORSDOF 6
ENDMDL
MODEL 9
REMARK VINA RESULT:    -6.774      3.384      5.168
REMARK INTER + INTRA:         -10.147
REMARK INTER:                  -9.127
REMARK INTRA:                  -1.020
REMARK UNBOUND:                -0.997
REMARK  Name = 
REMARK  7 active torsions:
REMARK  status: ('A' for Active; 'I' for Inactive)
REMARK    1  A    between atoms: C_1  and  O_2
REMARK    2  A    between atoms: O_2  and  C_3
REMARK    3  A    between atoms: C_8  and  C_9
REMARK    4  A    between atoms: C_9  and  C_10
REMARK    5  A    between atoms: C_13  and  C_14
REMARK    6  A    between atoms: C_14  and  N_15
REMARK    7  A    between atoms: C_16  and  C_18
REMARK                            x       y       z     vdW  Elec       q    Type
REMARK                         _______ _______ _______ _____ _____    ______ ____
ROOT
ATOM      1  C   UNL     1      48.836   4.818  19.022  0.00  0.00    +0.000 C 
ENDROOT
BRANCH   1   5
ATOM      2  C   UNL     1      47.220   4.453  15.089  0.00  0.00    +0.000 A 
ATOM      3  C   UNL     1      48.060   5.531  15.361  0.00  0.00    +0.000 A 
ATOM      4  C   UNL     1      48.564   5.691  16.655  0.00  0.00    +0.000 A 
ATOM      5  C   UNL     1      48.218   4.780  17.654  0.00  0.00    +0.000 A 
ATOM      6  C   UNL     1      47.294   3.797  17.315  0.00  0.00    +0.000 A 
ATOM      7  N   UNL     1      46.800   3.608  16.067  0.00  0.00    +0.000 NA
BRANCH   2   8
ATOM      8  C   UNL     1      46.862   4.100  13.658  0.00  0.00    +0.000 C 
BRANCH   8  14
ATOM      9  C   UNL     1      44.634   4.921  12.698  0.00  0.00    +0.000 A 
ATOM     10  C   UNL     1      43.910   5.892  11.992  0.00  0.00    +0.000 A 
ATOM     11  C   UNL     1      44.540   7.041  11.510  0.00  0.00    +0.000 A 
ATOM     12  C   UNL     1      45.896   7.239  11.737  0.00  0.00    +0.000 A 
ATOM     13  C   UNL     1      46.628   6.277  12.430  0.00  0.00    +0.000 A 
ATOM     14  C   UNL     1      46.013   5.107  12.913  0.00  0.00    +0.000 A 
BRANCH   9  16
ATOM     15  C   UNL     1      43.539   2.843  12.331  0.00  0.00    +0.000 C 
ATOM     16  O   UNL     1      44.073   3.796  13.245  0.00  0.00    +0.000 OA
ENDBRANCH   9  16
ENDBRANCH   8  14
ENDBRANCH   2   8
ENDBRANCH   1   5
BRANCH   1  17
ATOM     17  N   UNL     1      50.052   4.052  19.105  0.00  0.00    +0.000 N 
ATOM     18  C   UNL     1      51.275   4.645  18.895  0.00  0.00    +0.000 C 
ATOM     19  O   UNL     1      51.382   5.852  18.690  0.00  0.00    +0.000 OA
ATOM     20  H   UNL     1      49.974   3.042  19.029  0.00  0.00    +0.000 HD
BRANCH  18  21
ATOM     21  C   UNL     1      52.453   3.779  18.993  0.00  0.00    +0.000 A 
ATOM     22  C   UNL     1      53.551   4.184  19.741  0.00  0.00    +0.000 A 
ATOM     23  S   UNL     1      54.808   3.032  19.792  0.00  0.00    +0.000 S 
ATOM     24  C   UNL     1      53.955   1.972  18.767  0.00  0.00    +0.000 A 
ATOM     25  N   UNL     1      54.489   0.785  18.385  0.00  0.00    +0.000 NA
ATOM     26  C   UNL     1      53.745   0.098  17.582  0.00  0.00    +0.000 A 
ATOM     27  N   UNL     1      52.512   0.491  17.133  0.00  0.00    +0.000 N 
ATOM     28  C   UNL     1      51.918   1.668  17.520  0.00  0.00    +0.000 A 
ATOM     29  O   UNL     1      50.792   1.973  17.138  0.00  0.00    +0.000 OA
ATOM     30  C   UNL     1      52.717   2.485  18.411  0.00  0.00    +0.000 A 
ATOM     31  H   UNL     1      51.972  -0.097  16.510  0.00  0.00    +0.000 HD
ENDBRANCH  18  21
ENDBRANCH   1  17
TORSDOF 6
ENDMDL
