MODEL 1
REMARK VINA RESULT:    -8.346      0.000      0.000
REMARK INTER + INTRA:         -13.105
REMARK INTER:                 -12.250
REMARK INTRA:                  -0.855
REMARK UNBOUND:                -0.855
REMARK  Name = 
REMARK  10 active torsions:
REMARK  status: ('A' for Active; 'I' for Inactive)
REMARK    1  A    between atoms: C_1  and  C_2
REMARK    2  A    between atoms: C_2  and  N_3
REMARK    3  A    between atoms: C_2  and  C_20
REMARK    4  A    between atoms: N_3  and  C_4
REMARK    5  A    between atoms: C_4  and  C_5
REMARK    6  A    between atoms: C_8  and  C_9
REMARK    7  A    between atoms: C_9  and  N_10
REMARK    8  A    between atoms: N_10  and  C_11
REMARK    9  A    between atoms: C_11  and  C_12
REMARK   10  A    between atoms: N_15  and  C_16
REMARK                            x       y       z     vdW  Elec       q    Type
REMARK                         _______ _______ _______ _____ _____    ______ ____
ROOT
ATOM      1  C   UNL     1      47.534   5.398  14.715  0.00  0.00    +0.000 C 
ENDROOT
BRANCH   1   2
ATOM      2  C   UNL     1      46.478   4.986  13.726  0.00  0.00    +0.000 A 
ATOM      3  C   UNL     1      46.317   3.671  13.288  0.00  0.00    +0.000 A 
ATOM      4  C   UNL     1      45.347   3.372  12.334  0.00  0.00    +0.000 A 
ATOM      5  C   UNL     1      44.495   4.370  11.825  0.00  0.00    +0.000 A 
ATOM      6  C   UNL     1      44.655   5.684  12.271  0.00  0.00    +0.000 A 
ATOM      7  C   UNL     1      45.629   5.985  13.215  0.00  0.00    +0.000 A 
BRANCH   5   8
ATOM      8  C   UNL     1      43.466   4.082  10.757  0.00  0.00    +0.000 C 
BRANCH   8   9
ATOM      9  N   UNL     1      43.765   4.805   9.528  0.00  0.00    +0.000 NA
ATOM     10  H   UNL     1      43.653   5.807   9.678  0.00  0.00    +0.000 HD
BRANCH   9  11
ATOM     11  C   UNL     1      45.079   4.485   8.990  0.00  0.00    +0.000 C 
BRANCH  11  12
ATOM     12  C   UNL     1      44.993   3.244   8.086  0.00  0.00    +0.000 C 
ATOM     13  C   UNL     1      45.374   1.921   8.781  0.00  0.00    +0.000 C 
ATOM     14  C   UNL     1      46.513   1.348   7.954  0.00  0.00    +0.000 C 
ATOM     15  N   UNL     1      47.114   2.548   7.376  0.00  0.00    +0.000 NA
ATOM     16  C   UNL     1      48.061   2.236   6.322  0.00  0.00    +0.000 C 
ATOM     17  C   UNL     1      45.978   3.349   6.917  0.00  0.00    +0.000 C 
ENDBRANCH  11  12
ENDBRANCH   9  11
ENDBRANCH   8   9
ENDBRANCH   5   8
ENDBRANCH   1   2
BRANCH   1  18
ATOM     18  N   UNL     1      47.218   5.032  16.100  0.00  0.00    +0.000 NA
ATOM     19  H   UNL     1      47.424   5.840  16.684  0.00  0.00    +0.000 HD
BRANCH  18  21
ATOM     20  C   UNL     1      47.197   3.025  17.552  0.00  0.00    +0.000 C 
ATOM     21  C   UNL     1      48.030   3.895  16.588  0.00  0.00    +0.000 C 
BRANCH  21  22
ATOM     22  C   UNL     1      49.307   4.448  17.250  0.00  0.00    +0.000 A 
ATOM     23  C   UNL     1      49.484   5.766  17.659  0.00  0.00    +0.000 A 
ATOM     24  S   UNL     1      50.983   6.068  18.421  0.00  0.00    +0.000 S 
ATOM     25  C   UNL     1      51.463   4.447  18.249  0.00  0.00    +0.000 A 
ATOM     26  N   UNL     1      52.648   4.014  18.752  0.00  0.00    +0.000 NA
ATOM     27  C   UNL     1      52.848   2.742  18.623  0.00  0.00    +0.000 A 
ATOM     28  N   UNL     1      51.980   1.881  18.001  0.00  0.00    +0.000 N 
ATOM     29  C   UNL     1      50.914   2.333  17.275  0.00  0.00    +0.000 A 
ATOM     30  O   UNL     1      50.396   1.619  16.401  0.00  0.00    +0.000 OA
ATOM     31  C   UNL     1      50.524   3.701  17.550  0.00  0.00    +0.000 A 
ATOM     32  H   UNL     1      52.250   0.918  17.843  0.00  0.00    +0.000 HD
ENDBRANCH  21  22
ENDBRANCH  18  21
ENDBRANCH   1  18
TORSDOF 8
ENDMDL
MODEL 2
REMARK VINA RESULT:    -7.520      2.526      4.085
REMARK INTER + INTRA:         -11.892
REMARK INTER:                  -9.730
REMARK INTRA:                  -2.162
REMARK UNBOUND:                -0.855
REMARK  Name = 
REMARK  10 active torsions:
REMARK  status: ('A' for Active; 'I' for Inactive)
REMARK    1  A    between atoms: C_1  and  C_2
REMARK    2  A    between atoms: C_2  and  N_3
REMARK    3  A    between atoms: C_2  and  C_20
REMARK    4  A    between atoms: N_3  and  C_4
REMARK    5  A    between atoms: C_4  and  C_5
REMARK    6  A    between atoms: C_8  and  C_9
REMARK    7  A    between atoms: C_9  and  N_10
REMARK    8  A    between atoms: N_10  and  C_11
REMARK    9  A    between atoms: C_11  and  C_12
REMARK   10  A    between atoms: N_15  and  C_16
REMARK                            x       y       z     vdW  Elec       q    Type
REMARK                         _______ _______ _______ _____ _____    ______ ____
ROOT
ATOM      1  C   UNL     1      49.435   7.829  13.119  0.00  0.00    +0.000 C 
ENDROOT
BRANCH   1   2
ATOM      2  C   UNL     1      47.997   7.864  12.679  0.00  0.00    +0.000 A 
ATOM      3  C   UNL     1      47.099   8.851  13.086  0.00  0.00    +0.000 A 
ATOM      4  C   UNL     1      45.769   8.791  12.675  0.00  0.00    +0.000 A 
ATOM      5  C   UNL     1      45.317   7.768  11.823  0.00  0.00    +0.000 A 
ATOM      6  C   UNL     1      46.220   6.785  11.412  0.00  0.00    +0.000 A 
ATOM      7  C   UNL     1      47.545   6.838  11.829  0.00  0.00    +0.000 A 
BRANCH   5   8
ATOM      8  C   UNL     1      43.871   7.653  11.399  0.00  0.00    +0.000 C 
BRANCH   8   9
ATOM      9  N   UNL     1      43.533   6.280  11.043  0.00  0.00    +0.000 NA
ATOM     10  H   UNL     1      44.384   5.733  10.921  0.00  0.00    +0.000 HD
BRANCH   9  11
ATOM     11  C   UNL     1      42.624   5.659  11.995  0.00  0.00    +0.000 C 
BRANCH  11  12
ATOM     12  C   UNL     1      43.098   4.234  12.326  0.00  0.00    +0.000 C 
ATOM     13  C   UNL     1      44.466   4.165  13.033  0.00  0.00    +0.000 C 
ATOM     14  C   UNL     1      45.334   3.292  12.142  0.00  0.00    +0.000 C 
ATOM     15  N   UNL     1      44.739   3.503  10.824  0.00  0.00    +0.000 NA
ATOM     16  C   UNL     1      45.229   2.554   9.841  0.00  0.00    +0.000 C 
ATOM     17  C   UNL     1      43.296   3.412  11.048  0.00  0.00    +0.000 C 
ENDBRANCH  11  12
ENDBRANCH   9  11
ENDBRANCH   8   9
ENDBRANCH   5   8
ENDBRANCH   1   2
BRANCH   1  18
ATOM     18  N   UNL     1      49.694   6.882  14.209  0.00  0.00    +0.000 NA
ATOM     19  H   UNL     1      49.123   6.057  14.039  0.00  0.00    +0.000 HD
BRANCH  18  21
ATOM     20  C   UNL     1      50.191   8.665  15.855  0.00  0.00    +0.000 C 
ATOM     21  C   UNL     1      49.329   7.426  15.536  0.00  0.00    +0.000 C 
BRANCH  21  22
ATOM     22  C   UNL     1      49.489   6.312  16.588  0.00  0.00    +0.000 A 
ATOM     23  C   UNL     1      50.440   6.307  17.603  0.00  0.00    +0.000 A 
ATOM     24  S   UNL     1      50.332   4.968  18.659  0.00  0.00    +0.000 S 
ATOM     25  C   UNL     1      49.000   4.336  17.814  0.00  0.00    +0.000 A 
ATOM     26  N   UNL     1      48.376   3.208  18.240  0.00  0.00    +0.000 NA
ATOM     27  C   UNL     1      47.328   2.887  17.552  0.00  0.00    +0.000 A 
ATOM     28  N   UNL     1      46.879   3.579  16.456  0.00  0.00    +0.000 N 
ATOM     29  C   UNL     1      47.628   4.558  15.867  0.00  0.00    +0.000 A 
ATOM     30  O   UNL     1      47.431   4.880  14.685  0.00  0.00    +0.000 OA
ATOM     31  C   UNL     1      48.689   5.097  16.695  0.00  0.00    +0.000 A 
ATOM     32  H   UNL     1      46.115   3.210  15.904  0.00  0.00    +0.000 HD
ENDBRANCH  21  22
ENDBRANCH  18  21
ENDBRANCH   1  18
TORSDOF 8
ENDMDL
MODEL 3
REMARK VINA RESULT:    -7.087      1.943      3.053
REMARK INTER + INTRA:         -11.256
REMARK INTER:                  -9.852
REMARK INTRA:                  -1.404
REMARK UNBOUND:                -0.855
REMARK  Name = 
REMARK  10 active torsions:
REMARK  status: ('A' for Active; 'I' for Inactive)
REMARK    1  A    between atoms: C_1  and  C_2
REMARK    2  A    between atoms: C_2  and  N_3
REMARK    3  A    between atoms: C_2  and  C_20
REMARK    4  A    between atoms: N_3  and  C_4
REMARK    5  A    between atoms: C_4  and  C_5
REMARK    6  A    between atoms: C_8  and  C_9
REMARK    7  A    between atoms: C_9  and  N_10
REMARK    8  A    between atoms: N_10  and  C_11
REMARK    9  A    between atoms: C_11  and  C_12
REMARK   10  A    between atoms: N_15  and  C_16
REMARK                            x       y       z     vdW  Elec       q    Type
REMARK                         _______ _______ _______ _____ _____    ______ ____
ROOT
ATOM      1  C   UNL     1      49.407   6.941  15.456  0.00  0.00    +0.000 C 
ENDROOT
BRANCH   1   2
ATOM      2  C   UNL     1      48.271   7.118  14.485  0.00  0.00    +0.000 A 
ATOM      3  C   UNL     1      47.737   6.068  13.738  0.00  0.00    +0.000 A 
ATOM      4  C   UNL     1      46.716   6.316  12.824  0.00  0.00    +0.000 A 
ATOM      5  C   UNL     1      46.184   7.608  12.662  0.00  0.00    +0.000 A 
ATOM      6  C   UNL     1      46.716   8.656  13.415  0.00  0.00    +0.000 A 
ATOM      7  C   UNL     1      47.741   8.411  14.321  0.00  0.00    +0.000 A 
BRANCH   5   8
ATOM      8  C   UNL     1      45.109   7.913  11.645  0.00  0.00    +0.000 C 
BRANCH   8   9
ATOM      9  N   UNL     1      44.567   6.689  11.067  0.00  0.00    +0.000 NA
ATOM     10  H   UNL     1      45.180   5.903  11.278  0.00  0.00    +0.000 HD
BRANCH   9  11
ATOM     11  C   UNL     1      43.196   6.429  11.481  0.00  0.00    +0.000 C 
BRANCH  11  12
ATOM     12  C   UNL     1      42.945   4.914  11.561  0.00  0.00    +0.000 C 
ATOM     13  C   UNL     1      43.695   4.204  12.706  0.00  0.00    +0.000 C 
ATOM     14  C   UNL     1      44.534   3.132  12.032  0.00  0.00    +0.000 C 
ATOM     15  N   UNL     1      44.753   3.697  10.702  0.00  0.00    +0.000 NA
ATOM     16  C   UNL     1      45.305   2.727   9.775  0.00  0.00    +0.000 C 
ATOM     17  C   UNL     1      43.444   4.209  10.295  0.00  0.00    +0.000 C 
ENDBRANCH  11  12
ENDBRANCH   9  11
ENDBRANCH   8   9
ENDBRANCH   5   8
ENDBRANCH   1   2
BRANCH   1  18
ATOM     18  N   UNL     1      48.975   6.542  16.801  0.00  0.00    +0.000 NA
ATOM     19  H   UNL     1      49.635   6.943  17.464  0.00  0.00    +0.000 HD
BRANCH  18  21
ATOM     20  C   UNL     1      47.855   4.665  17.965  0.00  0.00    +0.000 C 
ATOM     21  C   UNL     1      48.974   5.074  16.986  0.00  0.00    +0.000 C 
BRANCH  21  22
ATOM     22  C   UNL     1      50.369   4.636  17.471  0.00  0.00    +0.000 A 
ATOM     23  C   UNL     1      51.316   5.482  18.040  0.00  0.00    +0.000 A 
ATOM     24  S   UNL     1      52.747   4.697  18.542  0.00  0.00    +0.000 S 
ATOM     25  C   UNL     1      52.165   3.185  18.031  0.00  0.00    +0.000 A 
ATOM     26  N   UNL     1      52.894   2.055  18.227  0.00  0.00    +0.000 NA
ATOM     27  C   UNL     1      52.295   0.966  17.865  0.00  0.00    +0.000 A 
ATOM     28  N   UNL     1      51.050   0.921  17.293  0.00  0.00    +0.000 N 
ATOM     29  C   UNL     1      50.414   2.051  16.861  0.00  0.00    +0.000 A 
ATOM     30  O   UNL     1      49.522   1.985  16.001  0.00  0.00    +0.000 OA
ATOM     31  C   UNL     1      50.925   3.288  17.416  0.00  0.00    +0.000 A 
ATOM     32  H   UNL     1      50.689   0.044  16.938  0.00  0.00    +0.000 HD
ENDBRANCH  21  22
ENDBRANCH  18  21
ENDBRANCH   1  18
TORSDOF 8
ENDMDL
MODEL 4
REMARK VINA RESULT:    -6.937      2.214      2.495
REMARK INTER + INTRA:         -11.036
REMARK INTER:                 -10.166
REMARK INTRA:                  -0.870
REMARK UNBOUND:                -0.855
REMARK  Name = 
REMARK  10 active torsions:
REMARK  status: ('A' for Active; 'I' for Inactive)
REMARK    1  A    between atoms: C_1  and  C_2
REMARK    2  A    between atoms: C_2  and  N_3
REMARK    3  A    between atoms: C_2  and  C_20
REMARK    4  A    between atoms: N_3  and  C_4
REMARK    5  A    between atoms: C_4  and  C_5
REMARK    6  A    between atoms: C_8  and  C_9
REMARK    7  A    between atoms: C_9  and  N_10
REMARK    8  A    between atoms: N_10  and  C_11
REMARK    9  A    between atoms: C_11  and  C_12
REMARK   10  A    between atoms: N_15  and  C_16
REMARK                            x       y       z     vdW  Elec       q    Type
REMARK                         _______ _______ _______ _____ _____    ______ ____
ROOT
ATOM      1  C   UNL     1      47.416   4.034  14.727  0.00  0.00    +0.000 C 
ENDROOT
BRANCH   1   2
ATOM      2  C   UNL     1      46.417   4.399  13.662  0.00  0.00    +0.000 A 
ATOM      3  C   UNL     1      45.554   3.471  13.078  0.00  0.00    +0.000 A 
ATOM      4  C   UNL     1      44.688   3.873  12.064  0.00  0.00    +0.000 A 
ATOM      5  C   UNL     1      44.640   5.213  11.638  0.00  0.00    +0.000 A 
ATOM      6  C   UNL     1      45.501   6.140  12.229  0.00  0.00    +0.000 A 
ATOM      7  C   UNL     1      46.372   5.738  13.234  0.00  0.00    +0.000 A 
BRANCH   5   8
ATOM      8  C   UNL     1      43.743   5.666  10.509  0.00  0.00    +0.000 C 
BRANCH   8   9
ATOM      9  N   UNL     1      43.686   4.669   9.447  0.00  0.00    +0.000 NA
ATOM     10  H   UNL     1      42.936   4.897   8.796  0.00  0.00    +0.000 HD
BRANCH   9  11
ATOM     11  C   UNL     1      44.961   4.500   8.764  0.00  0.00    +0.000 C 
BRANCH  11  12
ATOM     12  C   UNL     1      44.948   3.206   7.933  0.00  0.00    +0.000 C 
ATOM     13  C   UNL     1      45.275   1.931   8.736  0.00  0.00    +0.000 C 
ATOM     14  C   UNL     1      46.476   1.315   8.039  0.00  0.00    +0.000 C 
ATOM     15  N   UNL     1      47.119   2.482   7.437  0.00  0.00    +0.000 NA
ATOM     16  C   UNL     1      48.148   2.112   6.483  0.00  0.00    +0.000 C 
ATOM     17  C   UNL     1      46.023   3.246   6.842  0.00  0.00    +0.000 C 
ENDBRANCH  11  12
ENDBRANCH   9  11
ENDBRANCH   8   9
ENDBRANCH   5   8
ENDBRANCH   1   2
BRANCH   1  18
ATOM     18  N   UNL     1      47.136   4.646  16.031  0.00  0.00    +0.000 NA
ATOM     19  H   UNL     1      47.276   5.649  15.934  0.00  0.00    +0.000 HD
BRANCH  18  21
ATOM     20  C   UNL     1      47.446   2.901  17.762  0.00  0.00    +0.000 C 
ATOM     21  C   UNL     1      48.042   4.158  17.095  0.00  0.00    +0.000 C 
BRANCH  21  22
ATOM     22  C   UNL     1      48.282   5.300  18.101  0.00  0.00    +0.000 A 
ATOM     23  C   UNL     1      47.534   5.514  19.255  0.00  0.00    +0.000 A 
ATOM     24  S   UNL     1      48.078   6.822  20.210  0.00  0.00    +0.000 S 
ATOM     25  C   UNL     1      49.346   7.159  19.131  0.00  0.00    +0.000 A 
ATOM     26  N   UNL     1      50.241   8.146  19.393  0.00  0.00    +0.000 NA
ATOM     27  C   UNL     1      51.200   8.238  18.529  0.00  0.00    +0.000 A 
ATOM     28  N   UNL     1      51.314   7.451  17.412  0.00  0.00    +0.000 N 
ATOM     29  C   UNL     1      50.300   6.631  17.002  0.00  0.00    +0.000 A 
ATOM     30  O   UNL     1      50.229   6.256  15.821  0.00  0.00    +0.000 OA
ATOM     31  C   UNL     1      49.310   6.332  18.016  0.00  0.00    +0.000 A 
ATOM     32  H   UNL     1      52.031   7.649  16.726  0.00  0.00    +0.000 HD
ENDBRANCH  21  22
ENDBRANCH  18  21
ENDBRANCH   1  18
TORSDOF 8
ENDMDL
MODEL 5
REMARK VINA RESULT:    -6.923      3.501      9.326
REMARK INTER + INTRA:         -11.015
REMARK INTER:                  -9.568
REMARK INTRA:                  -1.447
REMARK UNBOUND:                -0.855
REMARK  Name = 
REMARK  10 active torsions:
REMARK  status: ('A' for Active; 'I' for Inactive)
REMARK    1  A    between atoms: C_1  and  C_2
REMARK    2  A    between atoms: C_2  and  N_3
REMARK    3  A    between atoms: C_2  and  C_20
REMARK    4  A    between atoms: N_3  and  C_4
REMARK    5  A    between atoms: C_4  and  C_5
REMARK    6  A    between atoms: C_8  and  C_9
REMARK    7  A    between atoms: C_9  and  N_10
REMARK    8  A    between atoms: N_10  and  C_11
REMARK    9  A    between atoms: C_11  and  C_12
REMARK   10  A    between atoms: N_15  and  C_16
REMARK                            x       y       z     vdW  Elec       q    Type
REMARK                         _______ _______ _______ _____ _____    ______ ____
ROOT
ATOM      1  C   UNL     1      48.527   7.183  14.636  0.00  0.00    +0.000 C 
ENDROOT
BRANCH   1   2
ATOM      2  C   UNL     1      49.045   6.822  16.002  0.00  0.00    +0.000 A 
ATOM      3  C   UNL     1      50.015   7.569  16.670  0.00  0.00    +0.000 A 
ATOM      4  C   UNL     1      50.480   7.148  17.913  0.00  0.00    +0.000 A 
ATOM      5  C   UNL     1      49.963   5.994  18.530  0.00  0.00    +0.000 A 
ATOM      6  C   UNL     1      48.987   5.252  17.861  0.00  0.00    +0.000 A 
ATOM      7  C   UNL     1      48.529   5.667  16.617  0.00  0.00    +0.000 A 
BRANCH   5   8
ATOM      8  C   UNL     1      50.481   5.490  19.857  0.00  0.00    +0.000 C 
BRANCH   8   9
ATOM      9  N   UNL     1      51.045   4.151  19.728  0.00  0.00    +0.000 NA
ATOM     10  H   UNL     1      50.456   3.582  19.121  0.00  0.00    +0.000 HD
BRANCH   9  11
ATOM     11  C   UNL     1      52.429   4.164  19.277  0.00  0.00    +0.000 C 
BRANCH  11  12
ATOM     12  C   UNL     1      52.565   3.376  17.963  0.00  0.00    +0.000 C 
ATOM     13  C   UNL     1      51.329   2.530  17.597  0.00  0.00    +0.000 C 
ATOM     14  C   UNL     1      51.843   1.105  17.469  0.00  0.00    +0.000 C 
ATOM     15  N   UNL     1      53.000   1.109  18.361  0.00  0.00    +0.000 NA
ATOM     16  C   UNL     1      53.825  -0.074  18.198  0.00  0.00    +0.000 C 
ATOM     17  C   UNL     1      53.704   2.354  18.053  0.00  0.00    +0.000 C 
ENDBRANCH  11  12
ENDBRANCH   9  11
ENDBRANCH   8   9
ENDBRANCH   5   8
ENDBRANCH   1   2
BRANCH   1  18
ATOM     18  N   UNL     1      47.532   6.238  14.115  0.00  0.00    +0.000 NA
ATOM     19  H   UNL     1      47.811   5.306  14.414  0.00  0.00    +0.000 HD
BRANCH  18  21
ATOM     20  C   UNL     1      48.100   7.533  12.081  0.00  0.00    +0.000 C 
ATOM     21  C   UNL     1      47.460   6.244  12.637  0.00  0.00    +0.000 C 
BRANCH  21  22
ATOM     22  C   UNL     1      45.987   6.088  12.213  0.00  0.00    +0.000 A 
ATOM     23  C   UNL     1      45.184   7.118  11.733  0.00  0.00    +0.000 A 
ATOM     24  S   UNL     1      43.611   6.628  11.282  0.00  0.00    +0.000 S 
ATOM     25  C   UNL     1      43.932   5.013  11.698  0.00  0.00    +0.000 A 
ATOM     26  N   UNL     1      43.001   4.044  11.498  0.00  0.00    +0.000 NA
ATOM     27  C   UNL     1      43.409   2.848  11.782  0.00  0.00    +0.000 A 
ATOM     28  N   UNL     1      44.651   2.551  12.280  0.00  0.00    +0.000 N 
ATOM     29  C   UNL     1      45.502   3.526  12.721  0.00  0.00    +0.000 A 
ATOM     30  O   UNL     1      46.408   3.258  13.525  0.00  0.00    +0.000 OA
ATOM     31  C   UNL     1      45.198   4.861  12.246  0.00  0.00    +0.000 A 
ATOM     32  H   UNL     1      44.863   1.608  12.579  0.00  0.00    +0.000 HD
ENDBRANCH  21  22
ENDBRANCH  18  21
ENDBRANCH   1  18
TORSDOF 8
ENDMDL
MODEL 6
REMARK VINA RESULT:    -6.908      2.756      3.765
REMARK INTER + INTRA:         -10.994
REMARK INTER:                  -9.748
REMARK INTRA:                  -1.245
REMARK UNBOUND:                -0.855
REMARK  Name = 
REMARK  10 active torsions:
REMARK  status: ('A' for Active; 'I' for Inactive)
REMARK    1  A    between atoms: C_1  and  C_2
REMARK    2  A    between atoms: C_2  and  N_3
REMARK    3  A    between atoms: C_2  and  C_20
REMARK    4  A    between atoms: N_3  and  C_4
REMARK    5  A    between atoms: C_4  and  C_5
REMARK    6  A    between atoms: C_8  and  C_9
REMARK    7  A    between atoms: C_9  and  N_10
REMARK    8  A    between atoms: N_10  and  C_11
REMARK    9  A    between atoms: C_11  and  C_12
REMARK   10  A    between atoms: N_15  and  C_16
REMARK                            x       y       z     vdW  Elec       q    Type
REMARK                         _______ _______ _______ _____ _____    ______ ____
ROOT
ATOM      1  C   UNL     1      47.971   8.782  14.309  0.00  0.00    +0.000 C 
ENDROOT
BRANCH   1   2
ATOM      2  C   UNL     1      47.143   7.804  13.521  0.00  0.00    +0.000 A 
ATOM      3  C   UNL     1      46.103   8.194  12.677  0.00  0.00    +0.000 A 
ATOM      4  C   UNL     1      45.348   7.228  12.015  0.00  0.00    +0.000 A 
ATOM      5  C   UNL     1      45.637   5.859  12.153  0.00  0.00    +0.000 A 
ATOM      6  C   UNL     1      46.683   5.472  12.994  0.00  0.00    +0.000 A 
ATOM      7  C   UNL     1      47.431   6.434  13.662  0.00  0.00    +0.000 A 
BRANCH   5   8
ATOM      8  C   UNL     1      44.807   4.789  11.483  0.00  0.00    +0.000 C 
BRANCH   8   9
ATOM      9  N   UNL     1      44.473   5.161  10.113  0.00  0.00    +0.000 NA
ATOM     10  H   UNL     1      44.220   6.148  10.072  0.00  0.00    +0.000 HD
BRANCH   9  11
ATOM     11  C   UNL     1      45.531   4.837   9.167  0.00  0.00    +0.000 C 
BRANCH  11  12
ATOM     12  C   UNL     1      45.115   3.637   8.299  0.00  0.00    +0.000 C 
ATOM     13  C   UNL     1      45.202   2.273   9.013  0.00  0.00    +0.000 C 
ATOM     14  C   UNL     1      46.136   1.433   8.159  0.00  0.00    +0.000 C 
ATOM     15  N   UNL     1      46.978   2.447   7.527  0.00  0.00    +0.000 NA
ATOM     16  C   UNL     1      47.779   1.902   6.447  0.00  0.00    +0.000 C 
ATOM     17  C   UNL     1      46.046   3.487   7.091  0.00  0.00    +0.000 C 
ENDBRANCH  11  12
ENDBRANCH   9  11
ENDBRANCH   8   9
ENDBRANCH   5   8
ENDBRANCH   1   2
BRANCH   1  18
ATOM     18  N   UNL     1      47.889   8.587  15.761  0.00  0.00    +0.000 NA
ATOM     19  H   UNL     1      47.530   9.449  16.165  0.00  0.00    +0.000 HD
BRANCH  18  21
ATOM     20  C   UNL     1      50.304   8.307  15.289  0.00  0.00    +0.000 C 
ATOM     21  C   UNL     1      49.207   8.308  16.374  0.00  0.00    +0.000 C 
BRANCH  21  22
ATOM     22  C   UNL     1      49.127   6.969  17.131  0.00  0.00    +0.000 A 
ATOM     23  C   UNL     1      49.680   5.771  16.690  0.00  0.00    +0.000 A 
ATOM     24  S   UNL     1      49.485   4.467  17.776  0.00  0.00    +0.000 S 
ATOM     25  C   UNL     1      48.660   5.445  18.893  0.00  0.00    +0.000 A 
ATOM     26  N   UNL     1      48.257   4.947  20.091  0.00  0.00    +0.000 NA
ATOM     27  C   UNL     1      47.715   5.822  20.876  0.00  0.00    +0.000 A 
ATOM     28  N   UNL     1      47.513   7.138  20.546  0.00  0.00    +0.000 N 
ATOM     29  C   UNL     1      47.678   7.594  19.268  0.00  0.00    +0.000 A 
ATOM     30  O   UNL     1      47.116   8.633  18.890  0.00  0.00    +0.000 OA
ATOM     31  C   UNL     1      48.468   6.733  18.411  0.00  0.00    +0.000 A 
ATOM     32  H   UNL     1      46.987   7.739  21.168  0.00  0.00    +0.000 HD
ENDBRANCH  21  22
ENDBRANCH  18  21
ENDBRANCH   1  18
TORSDOF 8
ENDMDL
MODEL 7
REMARK VINA RESULT:    -6.839      2.758      3.304
REMARK INTER + INTRA:         -10.892
REMARK INTER:                 -10.017
REMARK INTRA:                  -0.874
REMARK UNBOUND:                -0.855
REMARK  Name = 
REMARK  10 active torsions:
REMARK  status: ('A' for Active; 'I' for Inactive)
REMARK    1  A    between atoms: C_1  and  C_2
REMARK    2  A    between atoms: C_2  and  N_3
REMARK    3  A    between atoms: C_2  and  C_20
REMARK    4  A    between atoms: N_3  and  C_4
REMARK    5  A    between atoms: C_4  and  C_5
REMARK    6  A    between atoms: C_8  and  C_9
REMARK    7  A    between atoms: C_9  and  N_10
REMARK    8  A    between atoms: N_10  and  C_11
REMARK    9  A    between atoms: C_11  and  C_12
REMARK   10  A    between atoms: N_15  and  C_16
REMARK                            x       y       z     vdW  Elec       q    Type
REMARK                         _______ _______ _______ _____ _____    ______ ____
ROOT
ATOM      1  C   UNL     1      48.410   6.414  14.261  0.00  0.00    +0.000 C 
ENDROOT
BRANCH   1   2
ATOM      2  C   UNL     1      47.162   6.098  13.482  0.00  0.00    +0.000 A 
ATOM      3  C   UNL     1      46.475   4.890  13.603  0.00  0.00    +0.000 A 
ATOM      4  C   UNL     1      45.352   4.649  12.814  0.00  0.00    +0.000 A 
ATOM      5  C   UNL     1      44.872   5.620  11.917  0.00  0.00    +0.000 A 
ATOM      6  C   UNL     1      45.559   6.831  11.803  0.00  0.00    +0.000 A 
ATOM      7  C   UNL     1      46.685   7.069  12.582  0.00  0.00    +0.000 A 
BRANCH   5   8
ATOM      8  C   UNL     1      43.685   5.368  11.017  0.00  0.00    +0.000 C 
BRANCH   8   9
ATOM      9  N   UNL     1      43.886   4.178  10.199  0.00  0.00    +0.000 NA
ATOM     10  H   UNL     1      42.996   3.864   9.815  0.00  0.00    +0.000 HD
BRANCH   9  11
ATOM     11  C   UNL     1      44.884   4.372   9.157  0.00  0.00    +0.000 C 
BRANCH  11  12
ATOM     12  C   UNL     1      44.862   3.187   8.177  0.00  0.00    +0.000 C 
ATOM     13  C   UNL     1      45.222   1.829   8.810  0.00  0.00    +0.000 C 
ATOM     14  C   UNL     1      46.411   1.318   8.014  0.00  0.00    +0.000 C 
ATOM     15  N   UNL     1      47.027   2.556   7.542  0.00  0.00    +0.000 NA
ATOM     16  C   UNL     1      48.033   2.319   6.524  0.00  0.00    +0.000 C 
ATOM     17  C   UNL     1      45.907   3.372   7.071  0.00  0.00    +0.000 C 
ENDBRANCH  11  12
ENDBRANCH   9  11
ENDBRANCH   8   9
ENDBRANCH   5   8
ENDBRANCH   1   2
BRANCH   1  18
ATOM     18  N   UNL     1      48.152   7.091  15.537  0.00  0.00    +0.000 NA
ATOM     19  H   UNL     1      47.450   7.808  15.365  0.00  0.00    +0.000 HD
BRANCH  18  21
ATOM     20  C   UNL     1      50.593   6.851  15.883  0.00  0.00    +0.000 C 
ATOM     21  C   UNL     1      49.358   7.752  16.085  0.00  0.00    +0.000 C 
BRANCH  21  22
ATOM     22  C   UNL     1      49.108   8.082  17.569  0.00  0.00    +0.000 A 
ATOM     23  C   UNL     1      49.430   9.289  18.181  0.00  0.00    +0.000 A 
ATOM     24  S   UNL     1      48.972   9.387  19.824  0.00  0.00    +0.000 S 
ATOM     25  C   UNL     1      48.312   7.822  19.793  0.00  0.00    +0.000 A 
ATOM     26  N   UNL     1      47.694   7.304  20.886  0.00  0.00    +0.000 NA
ATOM     27  C   UNL     1      47.166   6.138  20.697  0.00  0.00    +0.000 A 
ATOM     28  N   UNL     1      47.237   5.438  19.520  0.00  0.00    +0.000 N 
ATOM     29  C   UNL     1      48.060   5.826  18.500  0.00  0.00    +0.000 A 
ATOM     30  O   UNL     1      48.434   5.009  17.644  0.00  0.00    +0.000 OA
ATOM     31  C   UNL     1      48.506   7.203  18.566  0.00  0.00    +0.000 A 
ATOM     32  H   UNL     1      46.892   4.487  19.476  0.00  0.00    +0.000 HD
ENDBRANCH  21  22
ENDBRANCH  18  21
ENDBRANCH   1  18
TORSDOF 8
ENDMDL
MODEL 8
REMARK VINA RESULT:    -6.838      2.131      2.800
REMARK INTER + INTRA:         -10.891
REMARK INTER:                  -9.730
REMARK INTRA:                  -1.161
REMARK UNBOUND:                -0.855
REMARK  Name = 
REMARK  10 active torsions:
REMARK  status: ('A' for Active; 'I' for Inactive)
REMARK    1  A    between atoms: C_1  and  C_2
REMARK    2  A    between atoms: C_2  and  N_3
REMARK    3  A    between atoms: C_2  and  C_20
REMARK    4  A    between atoms: N_3  and  C_4
REMARK    5  A    between atoms: C_4  and  C_5
REMARK    6  A    between atoms: C_8  and  C_9
REMARK    7  A    between atoms: C_9  and  N_10
REMARK    8  A    between atoms: N_10  and  C_11
REMARK    9  A    between atoms: C_11  and  C_12
REMARK   10  A    between atoms: N_15  and  C_16
REMARK                            x       y       z     vdW  Elec       q    Type
REMARK                         _______ _______ _______ _____ _____    ______ ____
ROOT
ATOM      1  C   UNL     1      47.376   4.172  15.808  0.00  0.00    +0.000 C 
ENDROOT
BRANCH   1   2
ATOM      2  C   UNL     1      46.920   4.730  14.486  0.00  0.00    +0.000 A 
ATOM      3  C   UNL     1      45.961   4.106  13.687  0.00  0.00    +0.000 A 
ATOM      4  C   UNL     1      45.623   4.656  12.453  0.00  0.00    +0.000 A 
ATOM      5  C   UNL     1      46.206   5.857  12.008  0.00  0.00    +0.000 A 
ATOM      6  C   UNL     1      47.160   6.482  12.814  0.00  0.00    +0.000 A 
ATOM      7  C   UNL     1      47.505   5.928  14.041  0.00  0.00    +0.000 A 
BRANCH   5   8
ATOM      8  C   UNL     1      45.891   6.451  10.655  0.00  0.00    +0.000 C 
BRANCH   8   9
ATOM      9  N   UNL     1      45.100   5.532   9.846  0.00  0.00    +0.000 NA
ATOM     10  H   UNL     1      44.259   6.000   9.510  0.00  0.00    +0.000 HD
BRANCH   9  11
ATOM     11  C   UNL     1      45.862   4.942   8.755  0.00  0.00    +0.000 C 
BRANCH  11  12
ATOM     12  C   UNL     1      45.087   3.762   8.145  0.00  0.00    +0.000 C 
ATOM     13  C   UNL     1      44.552   2.750   9.178  0.00  0.00    +0.000 C 
ATOM     14  C   UNL     1      45.150   1.412   8.774  0.00  0.00    +0.000 C 
ATOM     15  N   UNL     1      46.383   1.812   8.100  0.00  0.00    +0.000 NA
ATOM     16  C   UNL     1      47.000   0.713   7.381  0.00  0.00    +0.000 C 
ATOM     17  C   UNL     1      45.991   2.925   7.235  0.00  0.00    +0.000 C 
ENDBRANCH  11  12
ENDBRANCH   9  11
ENDBRANCH   8   9
ENDBRANCH   5   8
ENDBRANCH   1   2
BRANCH   1  18
ATOM     18  N   UNL     1      47.629   5.200  16.824  0.00  0.00    +0.000 NA
ATOM     19  H   UNL     1      48.221   5.910  16.399  0.00  0.00    +0.000 HD
BRANCH  18  21
ATOM     20  C   UNL     1      47.875   5.411  19.280  0.00  0.00    +0.000 C 
ATOM     21  C   UNL     1      48.335   4.666  18.010  0.00  0.00    +0.000 C 
BRANCH  21  22
ATOM     22  C   UNL     1      49.853   4.785  17.777  0.00  0.00    +0.000 A 
ATOM     23  C   UNL     1      50.800   3.861  18.206  0.00  0.00    +0.000 A 
ATOM     24  S   UNL     1      52.402   4.230  17.741  0.00  0.00    +0.000 S 
ATOM     25  C   UNL     1      51.905   5.640  16.935  0.00  0.00    +0.000 A 
ATOM     26  N   UNL     1      52.798   6.408  16.258  0.00  0.00    +0.000 NA
ATOM     27  C   UNL     1      52.269   7.404  15.623  0.00  0.00    +0.000 A 
ATOM     28  N   UNL     1      50.933   7.712  15.640  0.00  0.00    +0.000 N 
ATOM     29  C   UNL     1      50.066   7.109  16.508  0.00  0.00    +0.000 A 
ATOM     30  O   UNL     1      48.994   7.655  16.811  0.00  0.00    +0.000 OA
ATOM     31  C   UNL     1      50.543   5.868  17.082  0.00  0.00    +0.000 A 
ATOM     32  H   UNL     1      50.607   8.567  15.207  0.00  0.00    +0.000 HD
ENDBRANCH  21  22
ENDBRANCH  18  21
ENDBRANCH   1  18
TORSDOF 8
ENDMDL
MODEL 9
REMARK VINA RESULT:    -6.831      1.753      2.317
REMARK INTER + INTRA:         -10.881
REMARK INTER:                 -10.005
REMARK INTRA:                  -0.876
REMARK UNBOUND:                -0.855
REMARK  Name = 
REMARK  10 active torsions:
REMARK  status: ('A' for Active; 'I' for Inactive)
REMARK    1  A    between atoms: C_1  and  C_2
REMARK    2  A    between atoms: C_2  and  N_3
REMARK    3  A    between atoms: C_2  and  C_20
REMARK    4  A    between atoms: N_3  and  C_4
REMARK    5  A    between atoms: C_4  and  C_5
REMARK    6  A    between atoms: C_8  and  C_9
REMARK    7  A    between atoms: C_9  and  N_10
REMARK    8  A    between atoms: N_10  and  C_11
REMARK    9  A    between atoms: C_11  and  C_12
REMARK   10  A    between atoms: N_15  and  C_16
REMARK                            x       y       z     vdW  Elec       q    Type
REMARK                         _______ _______ _______ _____ _____    ______ ____
ROOT
ATOM      1  C   UNL     1      48.321   6.633  13.647  0.00  0.00    +0.000 C 
ENDROOT
BRANCH   1   2
ATOM      2  C   UNL     1      47.067   6.220  12.924  0.00  0.00    +0.000 A 
ATOM      3  C   UNL     1      46.767   6.632  11.626  0.00  0.00    +0.000 A 
ATOM      4  C   UNL     1      45.564   6.247  11.037  0.00  0.00    +0.000 A 
ATOM      5  C   UNL     1      44.655   5.417  11.717  0.00  0.00    +0.000 A 
ATOM      6  C   UNL     1      44.962   5.002  13.015  0.00  0.00    +0.000 A 
ATOM      7  C   UNL     1      46.157   5.392  13.606  0.00  0.00    +0.000 A 
BRANCH   5   8
ATOM      8  C   UNL     1      43.324   5.023  11.121  0.00  0.00    +0.000 C 
BRANCH   8   9
ATOM      9  N   UNL     1      43.231   3.578  10.948  0.00  0.00    +0.000 NA
ATOM     10  H   UNL     1      42.487   3.354  10.289  0.00  0.00    +0.000 HD
BRANCH   9  11
ATOM     11  C   UNL     1      44.497   2.974  10.557  0.00  0.00    +0.000 C 
BRANCH  11  12
ATOM     12  C   UNL     1      44.458   2.578   9.072  0.00  0.00    +0.000 C 
ATOM     13  C   UNL     1      45.337   1.363   8.714  0.00  0.00    +0.000 C 
ATOM     14  C   UNL     1      46.290   1.861   7.640  0.00  0.00    +0.000 C 
ATOM     15  N   UNL     1      46.383   3.288   7.942  0.00  0.00    +0.000 NA
ATOM     16  C   UNL     1      47.029   4.035   6.879  0.00  0.00    +0.000 C 
ATOM     17  C   UNL     1      45.003   3.706   8.190  0.00  0.00    +0.000 C 
ENDBRANCH  11  12
ENDBRANCH   9  11
ENDBRANCH   8   9
ENDBRANCH   5   8
ENDBRANCH   1   2
BRANCH   1  18
ATOM     18  N   UNL     1      48.450   6.043  14.985  0.00  0.00    +0.000 NA
ATOM     19  H   UNL     1      47.518   5.772  15.290  0.00  0.00    +0.000 HD
BRANCH  18  21
ATOM     20  C   UNL     1      48.855   8.441  15.456  0.00  0.00    +0.000 C 
ATOM     21  C   UNL     1      48.998   6.996  15.977  0.00  0.00    +0.000 C 
BRANCH  21  22
ATOM     22  C   UNL     1      50.463   6.618  16.267  0.00  0.00    +0.000 A 
ATOM     23  C   UNL     1      51.572   7.326  15.817  0.00  0.00    +0.000 A 
ATOM     24  S   UNL     1      53.069   6.702  16.354  0.00  0.00    +0.000 S 
ATOM     25  C   UNL     1      52.304   5.459  17.224  0.00  0.00    +0.000 A 
ATOM     26  N   UNL     1      53.026   4.586  17.972  0.00  0.00    +0.000 NA
ATOM     27  C   UNL     1      52.311   3.744  18.646  0.00  0.00    +0.000 A 
ATOM     28  N   UNL     1      50.942   3.683  18.603  0.00  0.00    +0.000 N 
ATOM     29  C   UNL     1      50.219   4.377  17.673  0.00  0.00    +0.000 A 
ATOM     30  O   UNL     1      49.072   4.017  17.367  0.00  0.00    +0.000 OA
ATOM     31  C   UNL     1      50.928   5.474  17.044  0.00  0.00    +0.000 A 
ATOM     32  H   UNL     1      50.455   2.930  19.073  0.00  0.00    +0.000 HD
ENDBRANCH  21  22
ENDBRANCH  18  21
ENDBRANCH   1  18
TORSDOF 8
ENDMDL
