MODEL 1
REMARK VINA RESULT:    -8.175      0.000      0.000
REMARK INTER + INTRA:         -13.642
REMARK INTER:                 -12.714
REMARK INTRA:                  -0.928
REMARK UNBOUND:                -0.928
REMARK  Name = 
REMARK  10 active torsions:
REMARK  status: ('A' for Active; 'I' for Inactive)
REMARK    1  A    between atoms: C_2  and  C_23
REMARK    2  A    between atoms: N_3  and  C_4
REMARK    3  A    between atoms: C_4  and  C_5
REMARK    4  A    between atoms: C_8  and  C_9
REMARK    5  A    between atoms: C_9  and  N_10
REMARK    6  A    between atoms: N_10  and  CA_11
REMARK    7  A    between atoms: CA_11  and  C_12
REMARK    8  A    between atoms: CA_11  and  C_14
REMARK    9  A    between atoms: C_12  and  O_13
REMARK   10  A    between atoms: C_14  and  C_15
REMARK                            x       y       z     vdW  Elec       q    Type
REMARK                         _______ _______ _______ _____ _____    ______ ____
ROOT
ATOM      1  C   UNL     1      48.366   6.268  15.009  0.00  0.00    +0.000 A 
ATOM      2  C   UNL     1      47.711   5.151  15.544  0.00  0.00    +0.000 A 
ATOM      3  C   UNL     1      46.825   4.408  14.763  0.00  0.00    +0.000 A 
ATOM      4  C   UNL     1      46.583   4.763  13.429  0.00  0.00    +0.000 A 
ATOM      5  C   UNL     1      47.261   5.863  12.886  0.00  0.00    +0.000 A 
ATOM      6  C   UNL     1      48.151   6.604  13.665  0.00  0.00    +0.000 A 
ENDROOT
BRANCH   1   7
ATOM      7  C   UNL     1      49.317   7.068  15.857  0.00  0.00    +0.000 C 
BRANCH   7  10
ATOM      8  O   UNL     1      49.514   6.063  18.477  0.00  0.00    +0.000 OA
ATOM      9  C   UNL     1      50.356   5.733  17.646  0.00  0.00    +0.000 C 
ATOM     10  N   UNL     1      50.372   6.236  16.371  0.00  0.00    +0.000 N 
ATOM     11  H   UNL     1      50.961   5.792  15.675  0.00  0.00    +0.000 HD
BRANCH   9  12
ATOM     12  C   UNL     1      51.446   4.809  17.990  0.00  0.00    +0.000 A 
ATOM     13  C   UNL     1      52.604   5.300  18.574  0.00  0.00    +0.000 A 
ATOM     14  S   UNL     1      53.771   4.099  18.892  0.00  0.00    +0.000 S 
ATOM     15  C   UNL     1      52.747   2.873  18.304  0.00  0.00    +0.000 A 
ATOM     16  N   UNL     1      53.140   1.571  18.323  0.00  0.00    +0.000 NA
ATOM     17  C   UNL     1      52.253   0.742  17.886  0.00  0.00    +0.000 A 
ATOM     18  N   UNL     1      51.013   1.098  17.424  0.00  0.00    +0.000 N 
ATOM     19  C   UNL     1      50.604   2.403  17.312  0.00  0.00    +0.000 A 
ATOM     20  O   UNL     1      49.543   2.691  16.769  0.00  0.00    +0.000 OA
ATOM     21  C   UNL     1      51.545   3.375  17.843  0.00  0.00    +0.000 A 
ATOM     22  H   UNL     1      50.373   0.400  17.068  0.00  0.00    +0.000 HD
ENDBRANCH   9  12
ENDBRANCH   7  10
ENDBRANCH   1   7
BRANCH   4  23
ATOM     23  C   UNL     1      45.611   3.968  12.592  0.00  0.00    +0.000 C 
BRANCH  23  24
ATOM     24  N   UNL     1      45.575   4.465  11.219  0.00  0.00    +0.000 NA
ATOM     25  H   UNL     1      46.433   4.165  10.749  0.00  0.00    +0.000 HD
BRANCH  24  26
ATOM     26  CA  UNL     1      44.428   3.950  10.433  0.00  0.00    +0.000 C 
BRANCH  26  27
ATOM     27  C   UNL     1      43.137   3.908  11.286  0.00  0.00    +0.000 C 
BRANCH  27  28
ATOM     28  O   UNL     1      42.730   2.551  11.481  0.00  0.00    +0.000 OA
ATOM     29  H   UNL     1      43.501   1.989  11.298  0.00  0.00    +0.000 HD
ENDBRANCH  27  28
ENDBRANCH  26  27
BRANCH  26  30
ATOM     30  C   UNL     1      44.717   2.515   9.926  0.00  0.00    +0.000 C 
BRANCH  30  31
ATOM     31  C   UNL     1      45.583   2.452   8.693  0.00  0.00    +0.000 A 
ATOM     32  C   UNL     1      45.717   3.576   7.880  0.00  0.00    +0.000 A 
ATOM     33  C   UNL     1      46.522   3.501   6.748  0.00  0.00    +0.000 A 
ATOM     34  C   UNL     1      47.172   2.310   6.460  0.00  0.00    +0.000 A 
ATOM     35  C   UNL     1      46.991   1.240   7.322  0.00  0.00    +0.000 A 
ATOM     36  N   UNL     1      46.217   1.282   8.430  0.00  0.00    +0.000 NA
ENDBRANCH  30  31
ENDBRANCH  26  30
ENDBRANCH  24  26
ENDBRANCH  23  24
ENDBRANCH   4  23
TORSDOF 10
ENDMDL
MODEL 2
REMARK VINA RESULT:    -8.092      2.574      3.087
REMARK INTER + INTRA:         -13.514
REMARK INTER:                 -11.877
REMARK INTRA:                  -1.637
REMARK UNBOUND:                -0.928
REMARK  Name = 
REMARK  10 active torsions:
REMARK  status: ('A' for Active; 'I' for Inactive)
REMARK    1  A    between atoms: C_2  and  C_23
REMARK    2  A    between atoms: N_3  and  C_4
REMARK    3  A    between atoms: C_4  and  C_5
REMARK    4  A    between atoms: C_8  and  C_9
REMARK    5  A    between atoms: C_9  and  N_10
REMARK    6  A    between atoms: N_10  and  CA_11
REMARK    7  A    between atoms: CA_11  and  C_12
REMARK    8  A    between atoms: CA_11  and  C_14
REMARK    9  A    between atoms: C_12  and  O_13
REMARK   10  A    between atoms: C_14  and  C_15
REMARK                            x       y       z     vdW  Elec       q    Type
REMARK                         _______ _______ _______ _____ _____    ______ ____
ROOT
ATOM      1  C   UNL     1      47.919   8.193  13.250  0.00  0.00    +0.000 A 
ATOM      2  C   UNL     1      48.144   7.107  12.393  0.00  0.00    +0.000 A 
ATOM      3  C   UNL     1      47.098   6.567  11.644  0.00  0.00    +0.000 A 
ATOM      4  C   UNL     1      45.807   7.107  11.733  0.00  0.00    +0.000 A 
ATOM      5  C   UNL     1      45.589   8.211  12.568  0.00  0.00    +0.000 A 
ATOM      6  C   UNL     1      46.637   8.755  13.313  0.00  0.00    +0.000 A 
ENDROOT
BRANCH   1   7
ATOM      7  C   UNL     1      49.051   8.768  14.057  0.00  0.00    +0.000 C 
BRANCH   7  10
ATOM      8  O   UNL     1      47.951   9.239  16.603  0.00  0.00    +0.000 OA
ATOM      9  C   UNL     1      48.655   8.248  16.431  0.00  0.00    +0.000 C 
ATOM     10  N   UNL     1      49.287   7.988  15.242  0.00  0.00    +0.000 N 
ATOM     11  H   UNL     1      49.692   7.071  15.091  0.00  0.00    +0.000 HD
BRANCH   9  12
ATOM     12  C   UNL     1      48.913   7.297  17.521  0.00  0.00    +0.000 A 
ATOM     13  C   UNL     1      49.407   7.758  18.732  0.00  0.00    +0.000 A 
ATOM     14  S   UNL     1      49.665   6.524  19.879  0.00  0.00    +0.000 S 
ATOM     15  C   UNL     1      49.078   5.335  18.811  0.00  0.00    +0.000 A 
ATOM     16  N   UNL     1      48.999   4.033  19.196  0.00  0.00    +0.000 NA
ATOM     17  C   UNL     1      48.499   3.245  18.305  0.00  0.00    +0.000 A 
ATOM     18  N   UNL     1      48.080   3.640  17.062  0.00  0.00    +0.000 N 
ATOM     19  C   UNL     1      48.213   4.926  16.602  0.00  0.00    +0.000 A 
ATOM     20  O   UNL     1      47.953   5.213  15.438  0.00  0.00    +0.000 OA
ATOM     21  C   UNL     1      48.720   5.866  17.587  0.00  0.00    +0.000 A 
ATOM     22  H   UNL     1      47.722   2.965  16.398  0.00  0.00    +0.000 HD
ENDBRANCH   9  12
ENDBRANCH   7  10
ENDBRANCH   1   7
BRANCH   4  23
ATOM     23  C   UNL     1      44.673   6.509  10.936  0.00  0.00    +0.000 C 
BRANCH  23  24
ATOM     24  N   UNL     1      45.143   5.403  10.105  0.00  0.00    +0.000 NA
ATOM     25  H   UNL     1      45.959   4.988  10.560  0.00  0.00    +0.000 HD
BRANCH  24  26
ATOM     26  CA  UNL     1      44.135   4.332   9.922  0.00  0.00    +0.000 C 
BRANCH  26  27
ATOM     27  C   UNL     1      43.155   4.271  11.119  0.00  0.00    +0.000 C 
BRANCH  27  28
ATOM     28  O   UNL     1      42.853   2.908  11.428  0.00  0.00    +0.000 OA
ATOM     29  H   UNL     1      43.646   2.523  11.839  0.00  0.00    +0.000 HD
ENDBRANCH  27  28
ENDBRANCH  26  27
BRANCH  26  30
ATOM     30  C   UNL     1      44.827   2.952   9.795  0.00  0.00    +0.000 C 
BRANCH  30  31
ATOM     31  C   UNL     1      45.630   2.770   8.531  0.00  0.00    +0.000 A 
ATOM     32  C   UNL     1      46.211   1.535   8.250  0.00  0.00    +0.000 A 
ATOM     33  C   UNL     1      46.946   1.384   7.078  0.00  0.00    +0.000 A 
ATOM     34  C   UNL     1      47.077   2.466   6.220  0.00  0.00    +0.000 A 
ATOM     35  C   UNL     1      46.462   3.657   6.570  0.00  0.00    +0.000 A 
ATOM     36  N   UNL     1      45.742   3.835   7.700  0.00  0.00    +0.000 NA
ENDBRANCH  30  31
ENDBRANCH  26  30
ENDBRANCH  24  26
ENDBRANCH  23  24
ENDBRANCH   4  23
TORSDOF 10
ENDMDL
MODEL 3
REMARK VINA RESULT:    -7.405      1.921      2.646
REMARK INTER + INTRA:         -12.446
REMARK INTER:                 -11.105
REMARK INTRA:                  -1.341
REMARK UNBOUND:                -0.928
REMARK  Name = 
REMARK  10 active torsions:
REMARK  status: ('A' for Active; 'I' for Inactive)
REMARK    1  A    between atoms: C_2  and  C_23
REMARK    2  A    between atoms: N_3  and  C_4
REMARK    3  A    between atoms: C_4  and  C_5
REMARK    4  A    between atoms: C_8  and  C_9
REMARK    5  A    between atoms: C_9  and  N_10
REMARK    6  A    between atoms: N_10  and  CA_11
REMARK    7  A    between atoms: CA_11  and  C_12
REMARK    8  A    between atoms: CA_11  and  C_14
REMARK    9  A    between atoms: C_12  and  O_13
REMARK   10  A    between atoms: C_14  and  C_15
REMARK                            x       y       z     vdW  Elec       q    Type
REMARK                         _______ _______ _______ _____ _____    ______ ____
ROOT
ATOM      1  C   UNL     1      47.164   6.932  13.314  0.00  0.00    +0.000 A 
ATOM      2  C   UNL     1      45.846   7.203  12.924  0.00  0.00    +0.000 A 
ATOM      3  C   UNL     1      44.916   6.170  12.805  0.00  0.00    +0.000 A 
ATOM      4  C   UNL     1      45.284   4.846  13.082  0.00  0.00    +0.000 A 
ATOM      5  C   UNL     1      46.594   4.579  13.500  0.00  0.00    +0.000 A 
ATOM      6  C   UNL     1      47.525   5.613  13.624  0.00  0.00    +0.000 A 
ENDROOT
BRANCH   1   7
ATOM      7  C   UNL     1      48.164   8.050  13.437  0.00  0.00    +0.000 C 
BRANCH   7  10
ATOM      8  O   UNL     1      49.108   8.765  15.989  0.00  0.00    +0.000 OA
ATOM      9  C   UNL     1      49.732   7.934  15.332  0.00  0.00    +0.000 C 
ATOM     10  N   UNL     1      49.379   7.588  14.054  0.00  0.00    +0.000 N 
ATOM     11  H   UNL     1      49.802   6.769  13.632  0.00  0.00    +0.000 HD
BRANCH   9  12
ATOM     12  C   UNL     1      50.944   7.295  15.863  0.00  0.00    +0.000 A 
ATOM     13  C   UNL     1      52.174   7.914  15.700  0.00  0.00    +0.000 A 
ATOM     14  S   UNL     1      53.475   7.033  16.359  0.00  0.00    +0.000 S 
ATOM     15  C   UNL     1      52.431   5.815  16.930  0.00  0.00    +0.000 A 
ATOM     16  N   UNL     1      52.917   4.755  17.628  0.00  0.00    +0.000 NA
ATOM     17  C   UNL     1      52.013   3.928  18.036  0.00  0.00    +0.000 A 
ATOM     18  N   UNL     1      50.670   4.062  17.798  0.00  0.00    +0.000 N 
ATOM     19  C   UNL     1      50.144   5.071  17.032  0.00  0.00    +0.000 A 
ATOM     20  O   UNL     1      48.956   5.083  16.729  0.00  0.00    +0.000 OA
ATOM     21  C   UNL     1      51.113   6.061  16.595  0.00  0.00    +0.000 A 
ATOM     22  H   UNL     1      50.015   3.362  18.122  0.00  0.00    +0.000 HD
ENDBRANCH   9  12
ENDBRANCH   7  10
ENDBRANCH   1   7
BRANCH   4  23
ATOM     23  C   UNL     1      44.280   3.728  12.934  0.00  0.00    +0.000 C 
BRANCH  23  24
ATOM     24  N   UNL     1      44.733   2.745  11.954  0.00  0.00    +0.000 NA
ATOM     25  H   UNL     1      44.120   1.929  12.014  0.00  0.00    +0.000 HD
BRANCH  24  26
ATOM     26  CA  UNL     1      44.690   3.240  10.557  0.00  0.00    +0.000 C 
BRANCH  26  27
ATOM     27  C   UNL     1      43.411   4.071  10.295  0.00  0.00    +0.000 C 
BRANCH  27  28
ATOM     28  O   UNL     1      43.675   5.066   9.304  0.00  0.00    +0.000 OA
ATOM     29  H   UNL     1      42.840   5.536   9.137  0.00  0.00    +0.000 HD
ENDBRANCH  27  28
ENDBRANCH  26  27
BRANCH  26  30
ATOM     30  C   UNL     1      44.707   2.055   9.560  0.00  0.00    +0.000 C 
BRANCH  30  31
ATOM     31  C   UNL     1      45.691   2.206   8.428  0.00  0.00    +0.000 A 
ATOM     32  C   UNL     1      46.457   1.115   8.023  0.00  0.00    +0.000 A 
ATOM     33  C   UNL     1      47.358   1.271   6.974  0.00  0.00    +0.000 A 
ATOM     34  C   UNL     1      47.467   2.509   6.358  0.00  0.00    +0.000 A 
ATOM     35  C   UNL     1      46.666   3.541   6.816  0.00  0.00    +0.000 A 
ATOM     36  N   UNL     1      45.780   3.421   7.832  0.00  0.00    +0.000 NA
ENDBRANCH  30  31
ENDBRANCH  26  30
ENDBRANCH  24  26
ENDBRANCH  23  24
ENDBRANCH   4  23
TORSDOF 10
ENDMDL
MODEL 4
REMARK VINA RESULT:    -7.352      2.915      4.294
REMARK INTER + INTRA:         -12.363
REMARK INTER:                 -10.623
REMARK INTRA:                  -1.740
REMARK UNBOUND:                -0.928
REMARK  Name = 
REMARK  10 active torsions:
REMARK  status: ('A' for Active; 'I' for Inactive)
REMARK    1  A    between atoms: C_2  and  C_23
REMARK    2  A    between atoms: N_3  and  C_4
REMARK    3  A    between atoms: C_4  and  C_5
REMARK    4  A    between atoms: C_8  and  C_9
REMARK    5  A    between atoms: C_9  and  N_10
REMARK    6  A    between atoms: N_10  and  CA_11
REMARK    7  A    between atoms: CA_11  and  C_12
REMARK    8  A    between atoms: CA_11  and  C_14
REMARK    9  A    between atoms: C_12  and  O_13
REMARK   10  A    between atoms: C_14  and  C_15
REMARK                            x       y       z     vdW  Elec       q    Type
REMARK                         _______ _______ _______ _____ _____    ______ ____
ROOT
ATOM      1  C   UNL     1      47.882   4.045  16.587  0.00  0.00    +0.000 A 
ATOM      2  C   UNL     1      48.478   5.311  16.661  0.00  0.00    +0.000 A 
ATOM      3  C   UNL     1      48.365   6.211  15.602  0.00  0.00    +0.000 A 
ATOM      4  C   UNL     1      47.646   5.866  14.449  0.00  0.00    +0.000 A 
ATOM      5  C   UNL     1      47.025   4.612  14.387  0.00  0.00    +0.000 A 
ATOM      6  C   UNL     1      47.134   3.712  15.448  0.00  0.00    +0.000 A 
ENDROOT
BRANCH   1   7
ATOM      7  C   UNL     1      48.011   3.077  17.731  0.00  0.00    +0.000 C 
BRANCH   7  10
ATOM      8  O   UNL     1      49.809   1.609  16.141  0.00  0.00    +0.000 OA
ATOM      9  C   UNL     1      50.220   2.147  17.166  0.00  0.00    +0.000 C 
ATOM     10  N   UNL     1      49.394   2.816  18.031  0.00  0.00    +0.000 N 
ATOM     11  H   UNL     1      49.805   3.400  18.751  0.00  0.00    +0.000 HD
BRANCH   9  12
ATOM     12  C   UNL     1      51.632   2.056  17.562  0.00  0.00    +0.000 A 
ATOM     13  C   UNL     1      52.291   0.839  17.480  0.00  0.00    +0.000 A 
ATOM     14  S   UNL     1      53.915   0.905  17.992  0.00  0.00    +0.000 S 
ATOM     15  C   UNL     1      53.807   2.576  18.295  0.00  0.00    +0.000 A 
ATOM     16  N   UNL     1      54.888   3.274  18.736  0.00  0.00    +0.000 NA
ATOM     17  C   UNL     1      54.680   4.538  18.886  0.00  0.00    +0.000 A 
ATOM     18  N   UNL     1      53.485   5.166  18.646  0.00  0.00    +0.000 N 
ATOM     19  C   UNL     1      52.348   4.492  18.278  0.00  0.00    +0.000 A 
ATOM     20  O   UNL     1      51.267   5.065  18.203  0.00  0.00    +0.000 OA
ATOM     21  C   UNL     1      52.543   3.071  18.040  0.00  0.00    +0.000 A 
ATOM     22  H   UNL     1      53.379   6.158  18.811  0.00  0.00    +0.000 HD
ENDBRANCH   9  12
ENDBRANCH   7  10
ENDBRANCH   1   7
BRANCH   4  23
ATOM     23  C   UNL     1      47.540   6.836  13.297  0.00  0.00    +0.000 C 
BRANCH  23  24
ATOM     24  N   UNL     1      46.213   7.444  13.246  0.00  0.00    +0.000 NA
ATOM     25  H   UNL     1      46.187   8.210  13.922  0.00  0.00    +0.000 HD
BRANCH  24  26
ATOM     26  CA  UNL     1      45.871   8.005  11.917  0.00  0.00    +0.000 C 
BRANCH  26  27
ATOM     27  C   UNL     1      45.638   9.533  11.995  0.00  0.00    +0.000 C 
BRANCH  27  28
ATOM     28  O   UNL     1      44.520   9.809  12.843  0.00  0.00    +0.000 OA
ATOM     29  H   UNL     1      44.590   9.221  13.614  0.00  0.00    +0.000 HD
ENDBRANCH  27  28
ENDBRANCH  26  27
BRANCH  26  30
ATOM     30  C   UNL     1      44.581   7.349  11.365  0.00  0.00    +0.000 C 
BRANCH  30  31
ATOM     31  C   UNL     1      44.434   5.885  11.700  0.00  0.00    +0.000 A 
ATOM     32  C   UNL     1      45.026   4.924  10.884  0.00  0.00    +0.000 A 
ATOM     33  C   UNL     1      44.883   3.579  11.210  0.00  0.00    +0.000 A 
ATOM     34  C   UNL     1      44.157   3.231  12.340  0.00  0.00    +0.000 A 
ATOM     35  C   UNL     1      43.605   4.249  13.101  0.00  0.00    +0.000 A 
ATOM     36  N   UNL     1      43.727   5.564  12.812  0.00  0.00    +0.000 NA
ENDBRANCH  30  31
ENDBRANCH  26  30
ENDBRANCH  24  26
ENDBRANCH  23  24
ENDBRANCH   4  23
TORSDOF 10
ENDMDL
MODEL 5
REMARK VINA RESULT:    -7.336      3.480      9.188
REMARK INTER + INTRA:         -12.338
REMARK INTER:                 -10.046
REMARK INTRA:                  -2.293
REMARK UNBOUND:                -0.928
REMARK  Name = 
REMARK  10 active torsions:
REMARK  status: ('A' for Active; 'I' for Inactive)
REMARK    1  A    between atoms: C_2  and  C_23
REMARK    2  A    between atoms: N_3  and  C_4
REMARK    3  A    between atoms: C_4  and  C_5
REMARK    4  A    between atoms: C_8  and  C_9
REMARK    5  A    between atoms: C_9  and  N_10
REMARK    6  A    between atoms: N_10  and  CA_11
REMARK    7  A    between atoms: CA_11  and  C_12
REMARK    8  A    between atoms: CA_11  and  C_14
REMARK    9  A    between atoms: C_12  and  O_13
REMARK   10  A    between atoms: C_14  and  C_15
REMARK                            x       y       z     vdW  Elec       q    Type
REMARK                         _______ _______ _______ _____ _____    ______ ____
ROOT
ATOM      1  C   UNL     1      47.914   7.866  13.394  0.00  0.00    +0.000 A 
ATOM      2  C   UNL     1      47.960   9.094  14.069  0.00  0.00    +0.000 A 
ATOM      3  C   UNL     1      48.489   9.176  15.356  0.00  0.00    +0.000 A 
ATOM      4  C   UNL     1      48.991   8.033  15.993  0.00  0.00    +0.000 A 
ATOM      5  C   UNL     1      48.972   6.811  15.308  0.00  0.00    +0.000 A 
ATOM      6  C   UNL     1      48.447   6.729  14.017  0.00  0.00    +0.000 A 
ENDROOT
BRANCH   1   7
ATOM      7  C   UNL     1      47.338   7.784  12.007  0.00  0.00    +0.000 C 
BRANCH   7  10
ATOM      8  O   UNL     1      44.555   7.380  11.955  0.00  0.00    +0.000 OA
ATOM      9  C   UNL     1      45.300   6.431  11.724  0.00  0.00    +0.000 C 
ATOM     10  N   UNL     1      46.665   6.528  11.803  0.00  0.00    +0.000 N 
ATOM     11  H   UNL     1      47.234   5.782  11.420  0.00  0.00    +0.000 HD
BRANCH   9  12
ATOM     12  C   UNL     1      44.765   5.102  11.401  0.00  0.00    +0.000 A 
ATOM     13  C   UNL     1      43.980   4.434  12.330  0.00  0.00    +0.000 A 
ATOM     14  S   UNL     1      43.456   2.900  11.803  0.00  0.00    +0.000 S 
ATOM     15  C   UNL     1      44.220   3.097  10.295  0.00  0.00    +0.000 A 
ATOM     16  N   UNL     1      44.131   2.134   9.339  0.00  0.00    +0.000 NA
ATOM     17  C   UNL     1      44.721   2.429   8.231  0.00  0.00    +0.000 A 
ATOM     18  N   UNL     1      45.401   3.595   7.995  0.00  0.00    +0.000 N 
ATOM     19  C   UNL     1      45.585   4.559   8.954  0.00  0.00    +0.000 A 
ATOM     20  O   UNL     1      46.312   5.526   8.751  0.00  0.00    +0.000 OA
ATOM     21  C   UNL     1      44.892   4.301  10.205  0.00  0.00    +0.000 A 
ATOM     22  H   UNL     1      45.867   3.753   7.111  0.00  0.00    +0.000 HD
ENDBRANCH   9  12
ENDBRANCH   7  10
ENDBRANCH   1   7
BRANCH   4  23
ATOM     23  C   UNL     1      49.547   8.121  17.394  0.00  0.00    +0.000 C 
BRANCH  23  24
ATOM     24  N   UNL     1      49.263   6.902  18.147  0.00  0.00    +0.000 NA
ATOM     25  H   UNL     1      50.080   6.684  18.721  0.00  0.00    +0.000 HD
BRANCH  24  26
ATOM     26  CA  UNL     1      48.096   7.026  19.053  0.00  0.00    +0.000 C 
BRANCH  26  27
ATOM     27  C   UNL     1      48.542   7.141  20.531  0.00  0.00    +0.000 C 
BRANCH  27  28
ATOM     28  O   UNL     1      49.327   6.002  20.890  0.00  0.00    +0.000 OA
ATOM     29  H   UNL     1      49.201   5.334  20.194  0.00  0.00    +0.000 HD
ENDBRANCH  27  28
ENDBRANCH  26  27
BRANCH  26  30
ATOM     30  C   UNL     1      47.173   5.789  18.924  0.00  0.00    +0.000 C 
BRANCH  30  31
ATOM     31  C   UNL     1      47.768   4.647  18.138  0.00  0.00    +0.000 A 
ATOM     32  C   UNL     1      47.176   4.244  16.943  0.00  0.00    +0.000 A 
ATOM     33  C   UNL     1      47.740   3.191  16.229  0.00  0.00    +0.000 A 
ATOM     34  C   UNL     1      48.879   2.573  16.725  0.00  0.00    +0.000 A 
ATOM     35  C   UNL     1      49.409   3.038  17.917  0.00  0.00    +0.000 A 
ATOM     36  N   UNL     1      48.885   4.058  18.634  0.00  0.00    +0.000 NA
ENDBRANCH  30  31
ENDBRANCH  26  30
ENDBRANCH  24  26
ENDBRANCH  23  24
ENDBRANCH   4  23
TORSDOF 10
ENDMDL
MODEL 6
REMARK VINA RESULT:    -7.154      3.263      4.022
REMARK INTER + INTRA:         -12.056
REMARK INTER:                 -10.595
REMARK INTRA:                  -1.461
REMARK UNBOUND:                -0.928
REMARK  Name = 
REMARK  10 active torsions:
REMARK  status: ('A' for Active; 'I' for Inactive)
REMARK    1  A    between atoms: C_2  and  C_23
REMARK    2  A    between atoms: N_3  and  C_4
REMARK    3  A    between atoms: C_4  and  C_5
REMARK    4  A    between atoms: C_8  and  C_9
REMARK    5  A    between atoms: C_9  and  N_10
REMARK    6  A    between atoms: N_10  and  CA_11
REMARK    7  A    between atoms: CA_11  and  C_12
REMARK    8  A    between atoms: CA_11  and  C_14
REMARK    9  A    between atoms: C_12  and  O_13
REMARK   10  A    between atoms: C_14  and  C_15
REMARK                            x       y       z     vdW  Elec       q    Type
REMARK                         _______ _______ _______ _____ _____    ______ ____
ROOT
ATOM      1  C   UNL     1      47.860   7.418  12.846  0.00  0.00    +0.000 A 
ATOM      2  C   UNL     1      46.499   7.699  12.673  0.00  0.00    +0.000 A 
ATOM      3  C   UNL     1      45.549   6.679  12.746  0.00  0.00    +0.000 A 
ATOM      4  C   UNL     1      45.943   5.358  13.001  0.00  0.00    +0.000 A 
ATOM      5  C   UNL     1      47.302   5.082  13.203  0.00  0.00    +0.000 A 
ATOM      6  C   UNL     1      48.252   6.103  13.135  0.00  0.00    +0.000 A 
ENDROOT
BRANCH   1   7
ATOM      7  C   UNL     1      48.879   8.521  12.762  0.00  0.00    +0.000 C 
BRANCH   7  10
ATOM      8  O   UNL     1      48.723  10.762  14.456  0.00  0.00    +0.000 OA
ATOM      9  C   UNL     1      49.377   9.786  14.816  0.00  0.00    +0.000 C 
ATOM     10  N   UNL     1      49.563   8.687  14.018  0.00  0.00    +0.000 N 
ATOM     11  H   UNL     1      49.940   7.840  14.428  0.00  0.00    +0.000 HD
BRANCH   9  12
ATOM     12  C   UNL     1      50.057   9.761  16.118  0.00  0.00    +0.000 A 
ATOM     13  C   UNL     1      50.872  10.820  16.488  0.00  0.00    +0.000 A 
ATOM     14  S   UNL     1      51.595  10.624  18.018  0.00  0.00    +0.000 S 
ATOM     15  C   UNL     1      50.804   9.137  18.261  0.00  0.00    +0.000 A 
ATOM     16  N   UNL     1      50.970   8.442  19.418  0.00  0.00    +0.000 NA
ATOM     17  C   UNL     1      50.281   7.353  19.488  0.00  0.00    +0.000 A 
ATOM     18  N   UNL     1      49.450   6.892  18.501  0.00  0.00    +0.000 N 
ATOM     19  C   UNL     1      49.312   7.517  17.287  0.00  0.00    +0.000 A 
ATOM     20  O   UNL     1      48.665   7.005  16.379  0.00  0.00    +0.000 OA
ATOM     21  C   UNL     1      50.024   8.779  17.178  0.00  0.00    +0.000 A 
ATOM     22  H   UNL     1      48.958   6.013  18.606  0.00  0.00    +0.000 HD
ENDBRANCH   9  12
ENDBRANCH   7  10
ENDBRANCH   1   7
BRANCH   4  23
ATOM     23  C   UNL     1      44.916   4.254  13.061  0.00  0.00    +0.000 C 
BRANCH  23  24
ATOM     24  N   UNL     1      45.189   3.230  12.055  0.00  0.00    +0.000 NA
ATOM     25  H   UNL     1      44.711   2.371  12.336  0.00  0.00    +0.000 HD
BRANCH  24  26
ATOM     26  CA  UNL     1      44.709   3.591  10.700  0.00  0.00    +0.000 C 
BRANCH  26  27
ATOM     27  C   UNL     1      43.308   4.249  10.757  0.00  0.00    +0.000 C 
BRANCH  27  28
ATOM     28  O   UNL     1      43.345   5.522  10.107  0.00  0.00    +0.000 OA
ATOM     29  H   UNL     1      43.972   5.450   9.367  0.00  0.00    +0.000 HD
ENDBRANCH  27  28
ENDBRANCH  26  27
BRANCH  26  30
ATOM     30  C   UNL     1      44.612   2.331   9.805  0.00  0.00    +0.000 C 
BRANCH  30  31
ATOM     31  C   UNL     1      45.560   2.324   8.632  0.00  0.00    +0.000 A 
ATOM     32  C   UNL     1      45.762   3.490   7.897  0.00  0.00    +0.000 A 
ATOM     33  C   UNL     1      46.644   3.468   6.820  0.00  0.00    +0.000 A 
ATOM     34  C   UNL     1      47.299   2.285   6.510  0.00  0.00    +0.000 A 
ATOM     35  C   UNL     1      47.047   1.172   7.294  0.00  0.00    +0.000 A 
ATOM     36  N   UNL     1      46.198   1.162   8.347  0.00  0.00    +0.000 NA
ENDBRANCH  30  31
ENDBRANCH  26  30
ENDBRANCH  24  26
ENDBRANCH  23  24
ENDBRANCH   4  23
TORSDOF 10
ENDMDL
MODEL 7
REMARK VINA RESULT:    -6.453      2.898      3.756
REMARK INTER + INTRA:         -10.965
REMARK INTER:                  -9.490
REMARK INTRA:                  -1.475
REMARK UNBOUND:                -0.928
REMARK  Name = 
REMARK  10 active torsions:
REMARK  status: ('A' for Active; 'I' for Inactive)
REMARK    1  A    between atoms: C_2  and  C_23
REMARK    2  A    between atoms: N_3  and  C_4
REMARK    3  A    between atoms: C_4  and  C_5
REMARK    4  A    between atoms: C_8  and  C_9
REMARK    5  A    between atoms: C_9  and  N_10
REMARK    6  A    between atoms: N_10  and  CA_11
REMARK    7  A    between atoms: CA_11  and  C_12
REMARK    8  A    between atoms: CA_11  and  C_14
REMARK    9  A    between atoms: C_12  and  O_13
REMARK   10  A    between atoms: C_14  and  C_15
REMARK                            x       y       z     vdW  Elec       q    Type
REMARK                         _______ _______ _______ _____ _____    ______ ____
ROOT
ATOM      1  C   UNL     1      48.306   4.699  16.244  0.00  0.00    +0.000 A 
ATOM      2  C   UNL     1      48.951   5.934  16.100  0.00  0.00    +0.000 A 
ATOM      3  C   UNL     1      48.653   6.767  15.021  0.00  0.00    +0.000 A 
ATOM      4  C   UNL     1      47.698   6.385  14.069  0.00  0.00    +0.000 A 
ATOM      5  C   UNL     1      47.032   5.162  14.230  0.00  0.00    +0.000 A 
ATOM      6  C   UNL     1      47.326   4.330  15.311  0.00  0.00    +0.000 A 
ENDROOT
BRANCH   1   7
ATOM      7  C   UNL     1      48.633   3.803  17.407  0.00  0.00    +0.000 C 
BRANCH   7  10
ATOM      8  O   UNL     1      50.422   4.789  19.343  0.00  0.00    +0.000 OA
ATOM      9  C   UNL     1      50.835   4.006  18.491  0.00  0.00    +0.000 C 
ATOM     10  N   UNL     1      50.047   3.539  17.472  0.00  0.00    +0.000 N 
ATOM     11  H   UNL     1      50.373   2.756  16.917  0.00  0.00    +0.000 HD
BRANCH   9  12
ATOM     12  C   UNL     1      52.235   3.561  18.480  0.00  0.00    +0.000 A 
ATOM     13  C   UNL     1      53.239   4.443  18.852  0.00  0.00    +0.000 A 
ATOM     14  S   UNL     1      54.804   3.772  18.767  0.00  0.00    +0.000 S 
ATOM     15  C   UNL     1      54.188   2.263  18.276  0.00  0.00    +0.000 A 
ATOM     16  N   UNL     1      55.021   1.210  18.057  0.00  0.00    +0.000 NA
ATOM     17  C   UNL     1      54.421   0.116  17.730  0.00  0.00    +0.000 A 
ATOM     18  N   UNL     1      53.064  -0.017  17.592  0.00  0.00    +0.000 N 
ATOM     19  C   UNL     1      52.192   1.034  17.725  0.00  0.00    +0.000 A 
ATOM     20  O   UNL     1      51.001   0.908  17.462  0.00  0.00    +0.000 OA
ATOM     21  C   UNL     1      52.812   2.278  18.149  0.00  0.00    +0.000 A 
ATOM     22  H   UNL     1      52.657  -0.898  17.304  0.00  0.00    +0.000 HD
ENDBRANCH   9  12
ENDBRANCH   7  10
ENDBRANCH   1   7
BRANCH   4  23
ATOM     23  C   UNL     1      47.391   7.280  12.893  0.00  0.00    +0.000 C 
BRANCH  23  24
ATOM     24  N   UNL     1      46.242   6.781  12.143  0.00  0.00    +0.000 NA
ATOM     25  H   UNL     1      45.701   6.169  12.758  0.00  0.00    +0.000 HD
BRANCH  24  26
ATOM     26  CA  UNL     1      45.337   7.854  11.666  0.00  0.00    +0.000 C 
BRANCH  26  27
ATOM     27  C   UNL     1      45.154   8.953  12.741  0.00  0.00    +0.000 C 
BRANCH  27  28
ATOM     28  O   UNL     1      44.152   9.882  12.318  0.00  0.00    +0.000 OA
ATOM     29  H   UNL     1      44.599  10.728  12.142  0.00  0.00    +0.000 HD
ENDBRANCH  27  28
ENDBRANCH  26  27
BRANCH  26  30
ATOM     30  C   UNL     1      43.941   7.277  11.325  0.00  0.00    +0.000 C 
BRANCH  30  31
ATOM     31  C   UNL     1      43.789   5.804  11.611  0.00  0.00    +0.000 A 
ATOM     32  C   UNL     1      43.819   4.887  10.562  0.00  0.00    +0.000 A 
ATOM     33  C   UNL     1      43.681   3.531  10.844  0.00  0.00    +0.000 A 
ATOM     34  C   UNL     1      43.520   3.129  12.162  0.00  0.00    +0.000 A 
ATOM     35  C   UNL     1      43.507   4.103  13.146  0.00  0.00    +0.000 A 
ATOM     36  N   UNL     1      43.639   5.427  12.905  0.00  0.00    +0.000 NA
ENDBRANCH  30  31
ENDBRANCH  26  30
ENDBRANCH  24  26
ENDBRANCH  23  24
ENDBRANCH   4  23
TORSDOF 10
ENDMDL
MODEL 8
REMARK VINA RESULT:    -6.443      5.084      6.272
REMARK INTER + INTRA:         -10.949
REMARK INTER:                  -9.832
REMARK INTRA:                  -1.117
REMARK UNBOUND:                -0.928
REMARK  Name = 
REMARK  10 active torsions:
REMARK  status: ('A' for Active; 'I' for Inactive)
REMARK    1  A    between atoms: C_2  and  C_23
REMARK    2  A    between atoms: N_3  and  C_4
REMARK    3  A    between atoms: C_4  and  C_5
REMARK    4  A    between atoms: C_8  and  C_9
REMARK    5  A    between atoms: C_9  and  N_10
REMARK    6  A    between atoms: N_10  and  CA_11
REMARK    7  A    between atoms: CA_11  and  C_12
REMARK    8  A    between atoms: CA_11  and  C_14
REMARK    9  A    between atoms: C_12  and  O_13
REMARK   10  A    between atoms: C_14  and  C_15
REMARK                            x       y       z     vdW  Elec       q    Type
REMARK                         _______ _______ _______ _____ _____    ______ ____
ROOT
ATOM      1  C   UNL     1      46.777   7.861  13.216  0.00  0.00    +0.000 A 
ATOM      2  C   UNL     1      45.424   7.764  12.865  0.00  0.00    +0.000 A 
ATOM      3  C   UNL     1      44.821   6.517  12.704  0.00  0.00    +0.000 A 
ATOM      4  C   UNL     1      45.558   5.340  12.896  0.00  0.00    +0.000 A 
ATOM      5  C   UNL     1      46.904   5.437  13.276  0.00  0.00    +0.000 A 
ATOM      6  C   UNL     1      47.507   6.685  13.443  0.00  0.00    +0.000 A 
ENDROOT
BRANCH   1   7
ATOM      7  C   UNL     1      47.423   9.209  13.386  0.00  0.00    +0.000 C 
BRANCH   7  10
ATOM      8  O   UNL     1      49.595  10.993  13.487  0.00  0.00    +0.000 OA
ATOM      9  C   UNL     1      49.433  10.306  12.482  0.00  0.00    +0.000 C 
ATOM     10  N   UNL     1      48.360   9.468  12.325  0.00  0.00    +0.000 N 
ATOM     11  H   UNL     1      48.373   8.787  11.574  0.00  0.00    +0.000 HD
BRANCH   9  12
ATOM     12  C   UNL     1      50.363  10.383  11.347  0.00  0.00    +0.000 A 
ATOM     13  C   UNL     1      50.135  11.302  10.333  0.00  0.00    +0.000 A 
ATOM     14  S   UNL     1      51.296  11.249   9.088  0.00  0.00    +0.000 S 
ATOM     15  C   UNL     1      52.173  10.027   9.885  0.00  0.00    +0.000 A 
ATOM     16  N   UNL     1      53.326   9.539   9.354  0.00  0.00    +0.000 NA
ATOM     17  C   UNL     1      53.910   8.647  10.080  0.00  0.00    +0.000 A 
ATOM     18  N   UNL     1      53.441   8.192  11.284  0.00  0.00    +0.000 N 
ATOM     19  C   UNL     1      52.244   8.597  11.821  0.00  0.00    +0.000 A 
ATOM     20  O   UNL     1      51.791   8.069  12.831  0.00  0.00    +0.000 OA
ATOM     21  C   UNL     1      51.573   9.643  11.069  0.00  0.00    +0.000 A 
ATOM     22  H   UNL     1      53.933   7.468  11.792  0.00  0.00    +0.000 HD
ENDBRANCH   9  12
ENDBRANCH   7  10
ENDBRANCH   1   7
BRANCH   4  23
ATOM     23  C   UNL     1      44.908   3.991  12.703  0.00  0.00    +0.000 C 
BRANCH  23  24
ATOM     24  N   UNL     1      45.603   3.219  11.676  0.00  0.00    +0.000 NA
ATOM     25  H   UNL     1      45.455   2.226  11.870  0.00  0.00    +0.000 HD
BRANCH  24  26
ATOM     26  CA  UNL     1      45.115   3.488  10.303  0.00  0.00    +0.000 C 
BRANCH  26  27
ATOM     27  C   UNL     1      43.666   4.034  10.318  0.00  0.00    +0.000 C 
BRANCH  27  28
ATOM     28  O   UNL     1      43.458   4.885   9.188  0.00  0.00    +0.000 OA
ATOM     29  H   UNL     1      42.529   5.171   9.210  0.00  0.00    +0.000 HD
ENDBRANCH  27  28
ENDBRANCH  26  27
BRANCH  26  30
ATOM     30  C   UNL     1      45.131   2.191   9.456  0.00  0.00    +0.000 C 
BRANCH  30  31
ATOM     31  C   UNL     1      45.923   2.290   8.177  0.00  0.00    +0.000 A 
ATOM     32  C   UNL     1      46.774   1.252   7.805  0.00  0.00    +0.000 A 
ATOM     33  C   UNL     1      47.494   1.359   6.619  0.00  0.00    +0.000 A 
ATOM     34  C   UNL     1      47.344   2.496   5.838  0.00  0.00    +0.000 A 
ATOM     35  C   UNL     1      46.473   3.480   6.276  0.00  0.00    +0.000 A 
ATOM     36  N   UNL     1      45.758   3.405   7.422  0.00  0.00    +0.000 NA
ENDBRANCH  30  31
ENDBRANCH  26  30
ENDBRANCH  24  26
ENDBRANCH  23  24
ENDBRANCH   4  23
TORSDOF 10
ENDMDL
MODEL 9
REMARK VINA RESULT:    -5.753      3.584      9.647
REMARK INTER + INTRA:          -9.876
REMARK INTER:                  -8.341
REMARK INTRA:                  -1.535
REMARK UNBOUND:                -0.928
REMARK  Name = 
REMARK  10 active torsions:
REMARK  status: ('A' for Active; 'I' for Inactive)
REMARK    1  A    between atoms: C_2  and  C_23
REMARK    2  A    between atoms: N_3  and  C_4
REMARK    3  A    between atoms: C_4  and  C_5
REMARK    4  A    between atoms: C_8  and  C_9
REMARK    5  A    between atoms: C_9  and  N_10
REMARK    6  A    between atoms: N_10  and  CA_11
REMARK    7  A    between atoms: CA_11  and  C_12
REMARK    8  A    between atoms: CA_11  and  C_14
REMARK    9  A    between atoms: C_12  and  O_13
REMARK   10  A    between atoms: C_14  and  C_15
REMARK                            x       y       z     vdW  Elec       q    Type
REMARK                         _______ _______ _______ _____ _____    ______ ____
ROOT
ATOM      1  C   UNL     1      48.815   8.332  12.920  0.00  0.00    +0.000 A 
ATOM      2  C   UNL     1      49.334   9.570  13.322  0.00  0.00    +0.000 A 
ATOM      3  C   UNL     1      50.155   9.663  14.446  0.00  0.00    +0.000 A 
ATOM      4  C   UNL     1      50.481   8.518  15.185  0.00  0.00    +0.000 A 
ATOM      5  C   UNL     1      49.986   7.275  14.766  0.00  0.00    +0.000 A 
ATOM      6  C   UNL     1      49.167   7.181  13.639  0.00  0.00    +0.000 A 
ENDROOT
BRANCH   1   7
ATOM      7  C   UNL     1      47.927   8.239  11.710  0.00  0.00    +0.000 C 
BRANCH   7  10
ATOM      8  O   UNL     1      45.208   8.094  12.417  0.00  0.00    +0.000 OA
ATOM      9  C   UNL     1      45.783   7.075  12.043  0.00  0.00    +0.000 C 
ATOM     10  N   UNL     1      47.122   7.047  11.752  0.00  0.00    +0.000 N 
ATOM     11  H   UNL     1      47.503   6.242  11.268  0.00  0.00    +0.000 HD
BRANCH   9  12
ATOM     12  C   UNL     1      45.072   5.793  11.938  0.00  0.00    +0.000 A 
ATOM     13  C   UNL     1      44.338   5.325  13.017  0.00  0.00    +0.000 A 
ATOM     14  S   UNL     1      43.592   3.819  12.734  0.00  0.00    +0.000 S 
ATOM     15  C   UNL     1      44.185   3.764  11.140  0.00  0.00    +0.000 A 
ATOM     16  N   UNL     1      43.878   2.724  10.319  0.00  0.00    +0.000 NA
ATOM     17  C   UNL     1      44.359   2.828   9.126  0.00  0.00    +0.000 A 
ATOM     18  N   UNL     1      45.127   3.873   8.684  0.00  0.00    +0.000 N 
ATOM     19  C   UNL     1      45.528   4.903   9.497  0.00  0.00    +0.000 A 
ATOM     20  O   UNL     1      46.325   5.748   9.105  0.00  0.00    +0.000 OA
ATOM     21  C   UNL     1      44.967   4.863  10.837  0.00  0.00    +0.000 A 
ATOM     22  H   UNL     1      45.498   3.881   7.742  0.00  0.00    +0.000 HD
ENDBRANCH   9  12
ENDBRANCH   7  10
ENDBRANCH   1   7
BRANCH   4  23
ATOM     23  C   UNL     1      51.355   8.623  16.411  0.00  0.00    +0.000 C 
BRANCH  23  24
ATOM     24  N   UNL     1      51.973   7.338  16.725  0.00  0.00    +0.000 NA
ATOM     25  H   UNL     1      52.952   7.374  16.431  0.00  0.00    +0.000 HD
BRANCH  24  26
ATOM     26  CA  UNL     1      51.949   7.008  18.170  0.00  0.00    +0.000 C 
BRANCH  26  27
ATOM     27  C   UNL     1      53.208   7.549  18.891  0.00  0.00    +0.000 C 
BRANCH  27  28
ATOM     28  O   UNL     1      54.376   6.913  18.368  0.00  0.00    +0.000 OA
ATOM     29  H   UNL     1      54.752   7.507  17.696  0.00  0.00    +0.000 HD
ENDBRANCH  27  28
ENDBRANCH  26  27
BRANCH  26  30
ATOM     30  C   UNL     1      51.899   5.474  18.377  0.00  0.00    +0.000 C 
BRANCH  30  31
ATOM     31  C   UNL     1      50.514   4.880  18.310  0.00  0.00    +0.000 A 
ATOM     32  C   UNL     1      49.803   4.643  19.485  0.00  0.00    +0.000 A 
ATOM     33  C   UNL     1      48.525   4.099  19.405  0.00  0.00    +0.000 A 
ATOM     34  C   UNL     1      47.992   3.809  18.157  0.00  0.00    +0.000 A 
ATOM     35  C   UNL     1      48.762   4.081  17.037  0.00  0.00    +0.000 A 
ATOM     36  N   UNL     1      50.006   4.610  17.082  0.00  0.00    +0.000 NA
ENDBRANCH  30  31
ENDBRANCH  26  30
ENDBRANCH  24  26
ENDBRANCH  23  24
ENDBRANCH   4  23
TORSDOF 10
ENDMDL
