MODEL 1
REMARK VINA RESULT:    -8.112      0.000      0.000
REMARK INTER + INTRA:         -11.200
REMARK INTER:                 -10.720
REMARK INTRA:                  -0.480
REMARK UNBOUND:                -0.480
REMARK  Name = 
REMARK  6 active torsions:
REMARK  status: ('A' for Active; 'I' for Inactive)
REMARK    1  A    between atoms: N_1  and  C_2
REMARK    2  A    between atoms: C_2  and  C_3
REMARK    3  A    between atoms: C_6  and  C_7
REMARK    4  A    between atoms: C_7  and  N_8
REMARK    5  A    between atoms: N_8  and  C_9
REMARK    6  A    between atoms: C_13  and  C_14
REMARK                            x       y       z     vdW  Elec       q    Type
REMARK                         _______ _______ _______ _____ _____    ______ ____
ROOT
ATOM      1  N   UNL     1      43.686   4.244  10.687  0.00  0.00    +0.000 N 
ATOM      2  H   UNL     1      42.746   4.246  11.082  0.00  0.00    +0.000 HD
ENDROOT
BRANCH   1   3
ATOM      3  C   UNL     1      44.545   4.985  11.519  0.00  0.00    +0.000 A 
ATOM      4  C   UNL     1      44.607   6.378  11.500  0.00  0.00    +0.000 A 
ATOM      5  C   UNL     1      45.435   7.035  12.402  0.00  0.00    +0.000 A 
ATOM      6  N   UNL     1      46.193   6.408  13.326  0.00  0.00    +0.000 NA
ATOM      7  C   UNL     1      46.092   5.052  13.351  0.00  0.00    +0.000 A 
ATOM      8  C   UNL     1      45.282   4.316  12.498  0.00  0.00    +0.000 A 
BRANCH   7   9
ATOM      9  C   UNL     1      46.926   4.323  14.363  0.00  0.00    +0.000 C 
ATOM     10  N   UNL     1      47.220   5.036  15.498  0.00  0.00    +0.000 N 
ATOM     11  O   UNL     1      47.323   3.186  14.196  0.00  0.00    +0.000 OA
ATOM     12  H   UNL     1      46.875   5.983  15.598  0.00  0.00    +0.000 HD
ATOM     13  H   UNL     1      47.783   4.609  16.217  0.00  0.00    +0.000 HD
ENDBRANCH   7   9
ENDBRANCH   1   3
BRANCH   1  14
ATOM     14  C   UNL     1      44.093   2.879  10.348  0.00  0.00    +0.000 C 
BRANCH  14  18
ATOM     15  C   UNL     1      46.632   2.718   6.826  0.00  0.00    +0.000 A 
ATOM     16  C   UNL     1      46.041   3.926   7.214  0.00  0.00    +0.000 A 
ATOM     17  C   UNL     1      45.236   3.996   8.355  0.00  0.00    +0.000 A 
ATOM     18  C   UNL     1      44.995   2.856   9.134  0.00  0.00    +0.000 A 
ATOM     19  C   UNL     1      45.616   1.653   8.760  0.00  0.00    +0.000 A 
ATOM     20  C   UNL     1      46.428   1.586   7.622  0.00  0.00    +0.000 A 
BRANCH  15  21
ATOM     21  C   UNL     1      47.430   2.645   5.550  0.00  0.00    +0.000 C 
BRANCH  21  22
ATOM     22  N   UNL     1      48.545   1.715   5.685  0.00  0.00    +0.000 NA
ATOM     23  H   UNL     1      48.184   0.772   5.805  0.00  0.00    +0.000 HD
ATOM     24  H   UNL     1      49.062   1.944   6.533  0.00  0.00    +0.000 HD
ENDBRANCH  21  22
ENDBRANCH  15  21
ENDBRANCH  14  18
ENDBRANCH   1  14
TORSDOF 6
ENDMDL
MODEL 2
REMARK VINA RESULT:    -7.467      1.367      1.417
REMARK INTER + INTRA:         -10.349
REMARK INTER:                  -9.729
REMARK INTRA:                  -0.620
REMARK UNBOUND:                -0.480
REMARK  Name = 
REMARK  6 active torsions:
REMARK  status: ('A' for Active; 'I' for Inactive)
REMARK    1  A    between atoms: N_1  and  C_2
REMARK    2  A    between atoms: C_2  and  C_3
REMARK    3  A    between atoms: C_6  and  C_7
REMARK    4  A    between atoms: C_7  and  N_8
REMARK    5  A    between atoms: N_8  and  C_9
REMARK    6  A    between atoms: C_13  and  C_14
REMARK                            x       y       z     vdW  Elec       q    Type
REMARK                         _______ _______ _______ _____ _____    ______ ____
ROOT
ATOM      1  N   UNL     1      44.275   4.299  11.575  0.00  0.00    +0.000 N 
ATOM      2  H   UNL     1      44.825   3.468  11.795  0.00  0.00    +0.000 HD
ENDROOT
BRANCH   1   3
ATOM      3  C   UNL     1      44.992   5.449  11.948  0.00  0.00    +0.000 A 
ATOM      4  C   UNL     1      44.578   6.742  11.627  0.00  0.00    +0.000 A 
ATOM      5  C   UNL     1      45.311   7.826  12.092  0.00  0.00    +0.000 A 
ATOM      6  N   UNL     1      46.415   7.718  12.861  0.00  0.00    +0.000 NA
ATOM      7  C   UNL     1      46.782   6.451  13.192  0.00  0.00    +0.000 A 
ATOM      8  C   UNL     1      46.102   5.312  12.783  0.00  0.00    +0.000 A 
BRANCH   7   9
ATOM      9  C   UNL     1      48.008   6.295  14.042  0.00  0.00    +0.000 C 
ATOM     10  N   UNL     1      47.774   5.908  15.337  0.00  0.00    +0.000 N 
ATOM     11  O   UNL     1      49.131   6.502  13.626  0.00  0.00    +0.000 OA
ATOM     12  H   UNL     1      46.823   5.750  15.649  0.00  0.00    +0.000 HD
ATOM     13  H   UNL     1      48.553   5.791  15.967  0.00  0.00    +0.000 HD
ENDBRANCH   7   9
ENDBRANCH   1   3
BRANCH   1  14
ATOM     14  C   UNL     1      43.782   4.232  10.198  0.00  0.00    +0.000 C 
BRANCH  14  18
ATOM     15  C   UNL     1      46.636   2.350   7.517  0.00  0.00    +0.000 A 
ATOM     16  C   UNL     1      46.468   3.740   7.504  0.00  0.00    +0.000 A 
ATOM     17  C   UNL     1      45.566   4.360   8.373  0.00  0.00    +0.000 A 
ATOM     18  C   UNL     1      44.802   3.604   9.274  0.00  0.00    +0.000 A 
ATOM     19  C   UNL     1      44.997   2.214   9.306  0.00  0.00    +0.000 A 
ATOM     20  C   UNL     1      45.906   1.595   8.440  0.00  0.00    +0.000 A 
BRANCH  15  21
ATOM     21  C   UNL     1      47.554   1.693   6.517  0.00  0.00    +0.000 C 
BRANCH  21  22
ATOM     22  N   UNL     1      48.649   2.583   6.153  0.00  0.00    +0.000 NA
ATOM     23  H   UNL     1      48.474   2.972   5.230  0.00  0.00    +0.000 HD
ATOM     24  H   UNL     1      49.507   2.037   6.085  0.00  0.00    +0.000 HD
ENDBRANCH  21  22
ENDBRANCH  15  21
ENDBRANCH  14  18
ENDBRANCH   1  14
TORSDOF 6
ENDMDL
MODEL 3
REMARK VINA RESULT:    -7.321      2.583      6.541
REMARK INTER + INTRA:         -10.155
REMARK INTER:                  -9.522
REMARK INTRA:                  -0.633
REMARK UNBOUND:                -0.480
REMARK  Name = 
REMARK  6 active torsions:
REMARK  status: ('A' for Active; 'I' for Inactive)
REMARK    1  A    between atoms: N_1  and  C_2
REMARK    2  A    between atoms: C_2  and  C_3
REMARK    3  A    between atoms: C_6  and  C_7
REMARK    4  A    between atoms: C_7  and  N_8
REMARK    5  A    between atoms: N_8  and  C_9
REMARK    6  A    between atoms: C_13  and  C_14
REMARK                            x       y       z     vdW  Elec       q    Type
REMARK                         _______ _______ _______ _____ _____    ______ ____
ROOT
ATOM      1  N   UNL     1      44.108   4.686   9.156  0.00  0.00    +0.000 N 
ATOM      2  H   UNL     1      44.589   5.536   8.863  0.00  0.00    +0.000 HD
ENDROOT
BRANCH   1   3
ATOM      3  C   UNL     1      44.849   3.563   8.748  0.00  0.00    +0.000 A 
ATOM      4  C   UNL     1      44.665   2.291   9.290  0.00  0.00    +0.000 A 
ATOM      5  C   UNL     1      45.394   1.223   8.783  0.00  0.00    +0.000 A 
ATOM      6  N   UNL     1      46.280   1.326   7.771  0.00  0.00    +0.000 NA
ATOM      7  C   UNL     1      46.420   2.567   7.232  0.00  0.00    +0.000 A 
ATOM      8  C   UNL     1      45.724   3.687   7.667  0.00  0.00    +0.000 A 
BRANCH   7   9
ATOM      9  C   UNL     1      47.401   2.718   6.108  0.00  0.00    +0.000 C 
ATOM     10  N   UNL     1      48.717   2.550   6.456  0.00  0.00    +0.000 N 
ATOM     11  O   UNL     1      47.065   2.976   4.968  0.00  0.00    +0.000 OA
ATOM     12  H   UNL     1      48.958   2.340   7.417  0.00  0.00    +0.000 HD
ATOM     13  H   UNL     1      49.431   2.645   5.751  0.00  0.00    +0.000 HD
ENDBRANCH   7   9
ENDBRANCH   1   3
BRANCH   1  14
ATOM     14  C   UNL     1      43.742   4.771  10.571  0.00  0.00    +0.000 C 
BRANCH  14  18
ATOM     15  C   UNL     1      47.081   6.114  13.005  0.00  0.00    +0.000 A 
ATOM     16  C   UNL     1      46.313   5.015  13.407  0.00  0.00    +0.000 A 
ATOM     17  C   UNL     1      45.247   4.561  12.625  0.00  0.00    +0.000 A 
ATOM     18  C   UNL     1      44.916   5.201  11.422  0.00  0.00    +0.000 A 
ATOM     19  C   UNL     1      45.709   6.283  11.006  0.00  0.00    +0.000 A 
ATOM     20  C   UNL     1      46.781   6.731  11.786  0.00  0.00    +0.000 A 
BRANCH  15  21
ATOM     21  C   UNL     1      48.174   6.637  13.900  0.00  0.00    +0.000 C 
BRANCH  21  22
ATOM     22  N   UNL     1      49.447   6.691  13.191  0.00  0.00    +0.000 NA
ATOM     23  H   UNL     1      49.893   7.587  13.369  0.00  0.00    +0.000 HD
ATOM     24  H   UNL     1      49.267   6.645  12.189  0.00  0.00    +0.000 HD
ENDBRANCH  21  22
ENDBRANCH  15  21
ENDBRANCH  14  18
ENDBRANCH   1  14
TORSDOF 6
ENDMDL
MODEL 4
REMARK VINA RESULT:    -7.316      1.775      2.440
REMARK INTER + INTRA:         -10.148
REMARK INTER:                  -9.446
REMARK INTRA:                  -0.702
REMARK UNBOUND:                -0.480
REMARK  Name = 
REMARK  6 active torsions:
REMARK  status: ('A' for Active; 'I' for Inactive)
REMARK    1  A    between atoms: N_1  and  C_2
REMARK    2  A    between atoms: C_2  and  C_3
REMARK    3  A    between atoms: C_6  and  C_7
REMARK    4  A    between atoms: C_7  and  N_8
REMARK    5  A    between atoms: N_8  and  C_9
REMARK    6  A    between atoms: C_13  and  C_14
REMARK                            x       y       z     vdW  Elec       q    Type
REMARK                         _______ _______ _______ _____ _____    ______ ____
ROOT
ATOM      1  N   UNL     1      43.948   3.977  11.589  0.00  0.00    +0.000 N 
ATOM      2  H   UNL     1      44.052   2.964  11.650  0.00  0.00    +0.000 HD
ENDROOT
BRANCH   1   3
ATOM      3  C   UNL     1      44.974   4.599  12.321  0.00  0.00    +0.000 A 
ATOM      4  C   UNL     1      45.937   3.888  13.037  0.00  0.00    +0.000 A 
ATOM      5  C   UNL     1      46.956   4.580  13.679  0.00  0.00    +0.000 A 
ATOM      6  N   UNL     1      47.094   5.922  13.650  0.00  0.00    +0.000 NA
ATOM      7  C   UNL     1      46.166   6.595  12.917  0.00  0.00    +0.000 A 
ATOM      8  C   UNL     1      45.123   5.985  12.234  0.00  0.00    +0.000 A 
BRANCH   7   9
ATOM      9  C   UNL     1      46.287   8.089  12.868  0.00  0.00    +0.000 C 
ATOM     10  N   UNL     1      47.567   8.567  12.752  0.00  0.00    +0.000 N 
ATOM     11  O   UNL     1      45.326   8.832  12.932  0.00  0.00    +0.000 OA
ATOM     12  H   UNL     1      48.342   7.916  12.706  0.00  0.00    +0.000 HD
ATOM     13  H   UNL     1      47.723   9.562  12.720  0.00  0.00    +0.000 HD
ENDBRANCH   7   9
ENDBRANCH   1   3
BRANCH   1  14
ATOM     14  C   UNL     1      43.775   4.387  10.194  0.00  0.00    +0.000 C 
BRANCH  14  18
ATOM     15  C   UNL     1      46.582   2.364   7.566  0.00  0.00    +0.000 A 
ATOM     16  C   UNL     1      46.463   3.759   7.531  0.00  0.00    +0.000 A 
ATOM     17  C   UNL     1      45.577   4.424   8.383  0.00  0.00    +0.000 A 
ATOM     18  C   UNL     1      44.780   3.709   9.289  0.00  0.00    +0.000 A 
ATOM     19  C   UNL     1      44.925   2.314   9.343  0.00  0.00    +0.000 A 
ATOM     20  C   UNL     1      45.819   1.650   8.495  0.00  0.00    +0.000 A 
BRANCH  15  21
ATOM     21  C   UNL     1      47.483   1.660   6.585  0.00  0.00    +0.000 C 
BRANCH  21  22
ATOM     22  N   UNL     1      48.675   2.454   6.310  0.00  0.00    +0.000 NA
ATOM     23  H   UNL     1      49.099   2.136   5.442  0.00  0.00    +0.000 HD
ATOM     24  H   UNL     1      49.357   2.288   7.049  0.00  0.00    +0.000 HD
ENDBRANCH  21  22
ENDBRANCH  15  21
ENDBRANCH  14  18
ENDBRANCH   1  14
TORSDOF 6
ENDMDL
MODEL 5
REMARK VINA RESULT:    -7.298      2.411      6.130
REMARK INTER + INTRA:         -10.125
REMARK INTER:                  -9.813
REMARK INTRA:                  -0.312
REMARK UNBOUND:                -0.480
REMARK  Name = 
REMARK  6 active torsions:
REMARK  status: ('A' for Active; 'I' for Inactive)
REMARK    1  A    between atoms: N_1  and  C_2
REMARK    2  A    between atoms: C_2  and  C_3
REMARK    3  A    between atoms: C_6  and  C_7
REMARK    4  A    between atoms: C_7  and  N_8
REMARK    5  A    between atoms: N_8  and  C_9
REMARK    6  A    between atoms: C_13  and  C_14
REMARK                            x       y       z     vdW  Elec       q    Type
REMARK                         _______ _______ _______ _____ _____    ______ ____
ROOT
ATOM      1  N   UNL     1      43.913   2.503  10.649  0.00  0.00    +0.000 N 
ATOM      2  H   UNL     1      43.146   1.888  10.377  0.00  0.00    +0.000 HD
ENDROOT
BRANCH   1   3
ATOM      3  C   UNL     1      44.697   2.802   9.521  0.00  0.00    +0.000 A 
ATOM      4  C   UNL     1      44.805   4.086   8.988  0.00  0.00    +0.000 A 
ATOM      5  C   UNL     1      45.655   4.307   7.911  0.00  0.00    +0.000 A 
ATOM      6  N   UNL     1      46.412   3.349   7.337  0.00  0.00    +0.000 NA
ATOM      7  C   UNL     1      46.319   2.111   7.893  0.00  0.00    +0.000 A 
ATOM      8  C   UNL     1      45.507   1.803   8.976  0.00  0.00    +0.000 A 
BRANCH   7   9
ATOM      9  C   UNL     1      47.144   1.021   7.276  0.00  0.00    +0.000 C 
ATOM     10  N   UNL     1      46.813  -0.252   7.664  0.00  0.00    +0.000 N 
ATOM     11  O   UNL     1      48.047   1.240   6.492  0.00  0.00    +0.000 OA
ATOM     12  H   UNL     1      46.056  -0.394   8.323  0.00  0.00    +0.000 HD
ATOM     13  H   UNL     1      47.331  -1.033   7.293  0.00  0.00    +0.000 HD
ENDBRANCH   7   9
ENDBRANCH   1   3
BRANCH   1  14
ATOM     14  C   UNL     1      43.407   3.631  11.433  0.00  0.00    +0.000 C 
BRANCH  14  18
ATOM     15  C   UNL     1      46.695   5.645  13.435  0.00  0.00    +0.000 A 
ATOM     16  C   UNL     1      45.645   6.388  12.883  0.00  0.00    +0.000 A 
ATOM     17  C   UNL     1      44.573   5.752  12.251  0.00  0.00    +0.000 A 
ATOM     18  C   UNL     1      44.526   4.354  12.149  0.00  0.00    +0.000 A 
ATOM     19  C   UNL     1      45.565   3.611  12.733  0.00  0.00    +0.000 A 
ATOM     20  C   UNL     1      46.634   4.250  13.372  0.00  0.00    +0.000 A 
BRANCH  15  21
ATOM     21  C   UNL     1      47.881   6.352  14.040  0.00  0.00    +0.000 C 
BRANCH  21  22
ATOM     22  N   UNL     1      49.023   6.321  13.135  0.00  0.00    +0.000 NA
ATOM     23  H   UNL     1      48.728   6.623  12.210  0.00  0.00    +0.000 HD
ATOM     24  H   UNL     1      49.343   5.358  13.042  0.00  0.00    +0.000 HD
ENDBRANCH  21  22
ENDBRANCH  15  21
ENDBRANCH  14  18
ENDBRANCH   1  14
TORSDOF 6
ENDMDL
MODEL 6
REMARK VINA RESULT:    -7.122      2.513      3.516
REMARK INTER + INTRA:          -9.892
REMARK INTER:                  -9.333
REMARK INTRA:                  -0.560
REMARK UNBOUND:                -0.480
REMARK  Name = 
REMARK  6 active torsions:
REMARK  status: ('A' for Active; 'I' for Inactive)
REMARK    1  A    between atoms: N_1  and  C_2
REMARK    2  A    between atoms: C_2  and  C_3
REMARK    3  A    between atoms: C_6  and  C_7
REMARK    4  A    between atoms: C_7  and  N_8
REMARK    5  A    between atoms: N_8  and  C_9
REMARK    6  A    between atoms: C_13  and  C_14
REMARK                            x       y       z     vdW  Elec       q    Type
REMARK                         _______ _______ _______ _____ _____    ______ ____
ROOT
ATOM      1  N   UNL     1      44.892   4.589  11.843  0.00  0.00    +0.000 N 
ATOM      2  H   UNL     1      45.671   3.930  11.846  0.00  0.00    +0.000 HD
ENDROOT
BRANCH   1   3
ATOM      3  C   UNL     1      45.363   5.873  12.169  0.00  0.00    +0.000 A 
ATOM      4  C   UNL     1      46.564   6.094  12.843  0.00  0.00    +0.000 A 
ATOM      5  C   UNL     1      46.988   7.398  13.067  0.00  0.00    +0.000 A 
ATOM      6  N   UNL     1      46.312   8.493  12.660  0.00  0.00    +0.000 NA
ATOM      7  C   UNL     1      45.161   8.256  11.975  0.00  0.00    +0.000 A 
ATOM      8  C   UNL     1      44.670   6.988  11.695  0.00  0.00    +0.000 A 
BRANCH   7   9
ATOM      9  C   UNL     1      44.382   9.451  11.513  0.00  0.00    +0.000 C 
ATOM     10  N   UNL     1      43.718   9.290  10.324  0.00  0.00    +0.000 N 
ATOM     11  O   UNL     1      44.341  10.494  12.136  0.00  0.00    +0.000 OA
ATOM     12  H   UNL     1      43.779   8.407   9.831  0.00  0.00    +0.000 HD
ATOM     13  H   UNL     1      43.180  10.057   9.950  0.00  0.00    +0.000 HD
ENDBRANCH   7   9
ENDBRANCH   1   3
BRANCH   1  14
ATOM     14  C   UNL     1      44.116   4.452  10.609  0.00  0.00    +0.000 C 
BRANCH  14  18
ATOM     15  C   UNL     1      46.469   2.472   7.539  0.00  0.00    +0.000 A 
ATOM     16  C   UNL     1      45.777   1.717   8.493  0.00  0.00    +0.000 A 
ATOM     17  C   UNL     1      45.002   2.340   9.475  0.00  0.00    +0.000 A 
ATOM     18  C   UNL     1      44.906   3.738   9.534  0.00  0.00    +0.000 A 
ATOM     19  C   UNL     1      45.576   4.491   8.556  0.00  0.00    +0.000 A 
ATOM     20  C   UNL     1      46.345   3.865   7.568  0.00  0.00    +0.000 A 
BRANCH  15  21
ATOM     21  C   UNL     1      47.363   1.786   6.539  0.00  0.00    +0.000 C 
BRANCH  21  22
ATOM     22  N   UNL     1      48.610   2.520   6.365  0.00  0.00    +0.000 NA
ATOM     23  H   UNL     1      48.444   3.509   6.530  0.00  0.00    +0.000 HD
ATOM     24  H   UNL     1      48.912   2.430   5.395  0.00  0.00    +0.000 HD
ENDBRANCH  21  22
ENDBRANCH  15  21
ENDBRANCH  14  18
ENDBRANCH   1  14
TORSDOF 6
ENDMDL
MODEL 7
REMARK VINA RESULT:    -6.350      2.840      6.787
REMARK INTER + INTRA:          -8.872
REMARK INTER:                  -8.391
REMARK INTRA:                  -0.481
REMARK UNBOUND:                -0.480
REMARK  Name = 
REMARK  6 active torsions:
REMARK  status: ('A' for Active; 'I' for Inactive)
REMARK    1  A    between atoms: N_1  and  C_2
REMARK    2  A    between atoms: C_2  and  C_3
REMARK    3  A    between atoms: C_6  and  C_7
REMARK    4  A    between atoms: C_7  and  N_8
REMARK    5  A    between atoms: N_8  and  C_9
REMARK    6  A    between atoms: C_13  and  C_14
REMARK                            x       y       z     vdW  Elec       q    Type
REMARK                         _______ _______ _______ _____ _____    ______ ____
ROOT
ATOM      1  N   UNL     1      44.486   5.180   9.635  0.00  0.00    +0.000 N 
ATOM      2  H   UNL     1      45.005   5.933   9.183  0.00  0.00    +0.000 HD
ENDROOT
BRANCH   1   3
ATOM      3  C   UNL     1      44.973   3.940   9.187  0.00  0.00    +0.000 A 
ATOM      4  C   UNL     1      44.455   2.718   9.617  0.00  0.00    +0.000 A 
ATOM      5  C   UNL     1      44.950   1.540   9.073  0.00  0.00    +0.000 A 
ATOM      6  N   UNL     1      45.911   1.490   8.127  0.00  0.00    +0.000 NA
ATOM      7  C   UNL     1      46.379   2.692   7.695  0.00  0.00    +0.000 A 
ATOM      8  C   UNL     1      45.933   3.917   8.173  0.00  0.00    +0.000 A 
BRANCH   7   9
ATOM      9  C   UNL     1      47.451   2.672   6.647  0.00  0.00    +0.000 C 
ATOM     10  N   UNL     1      47.161   3.369   5.502  0.00  0.00    +0.000 N 
ATOM     11  O   UNL     1      48.502   2.078   6.789  0.00  0.00    +0.000 OA
ATOM     12  H   UNL     1      46.272   3.848   5.419  0.00  0.00    +0.000 HD
ATOM     13  H   UNL     1      47.835   3.392   4.753  0.00  0.00    +0.000 HD
ENDBRANCH   7   9
ENDBRANCH   1   3
BRANCH   1  14
ATOM     14  C   UNL     1      44.434   5.398  11.082  0.00  0.00    +0.000 C 
BRANCH  14  18
ATOM     15  C   UNL     1      47.008   8.715  12.200  0.00  0.00    +0.000 A 
ATOM     16  C   UNL     1      45.629   8.910  12.057  0.00  0.00    +0.000 A 
ATOM     17  C   UNL     1      44.787   7.848  11.715  0.00  0.00    +0.000 A 
ATOM     18  C   UNL     1      45.305   6.563  11.499  0.00  0.00    +0.000 A 
ATOM     19  C   UNL     1      46.684   6.364  11.675  0.00  0.00    +0.000 A 
ATOM     20  C   UNL     1      47.524   7.427  12.026  0.00  0.00    +0.000 A 
BRANCH  15  21
ATOM     21  C   UNL     1      47.908   9.888  12.490  0.00  0.00    +0.000 C 
BRANCH  21  22
ATOM     22  N   UNL     1      47.583  11.019  11.630  0.00  0.00    +0.000 NA
ATOM     23  H   UNL     1      48.443  11.455  11.307  0.00  0.00    +0.000 HD
ATOM     24  H   UNL     1      47.086  11.718  12.181  0.00  0.00    +0.000 HD
ENDBRANCH  21  22
ENDBRANCH  15  21
ENDBRANCH  14  18
ENDBRANCH   1  14
TORSDOF 6
ENDMDL
MODEL 8
REMARK VINA RESULT:    -6.304      2.990      7.868
REMARK INTER + INTRA:          -8.811
REMARK INTER:                  -8.453
REMARK INTRA:                  -0.357
REMARK UNBOUND:                -0.480
REMARK  Name = 
REMARK  6 active torsions:
REMARK  status: ('A' for Active; 'I' for Inactive)
REMARK    1  A    between atoms: N_1  and  C_2
REMARK    2  A    between atoms: C_2  and  C_3
REMARK    3  A    between atoms: C_6  and  C_7
REMARK    4  A    between atoms: C_7  and  N_8
REMARK    5  A    between atoms: N_8  and  C_9
REMARK    6  A    between atoms: C_13  and  C_14
REMARK                            x       y       z     vdW  Elec       q    Type
REMARK                         _______ _______ _______ _____ _____    ______ ____
ROOT
ATOM      1  N   UNL     1      45.598   4.044  13.870  0.00  0.00    +0.000 N 
ATOM      2  H   UNL     1      45.056   4.036  14.734  0.00  0.00    +0.000 HD
ENDROOT
BRANCH   1   3
ATOM      3  C   UNL     1      44.754   4.360  12.791  0.00  0.00    +0.000 A 
ATOM      4  C   UNL     1      43.480   4.906  12.955  0.00  0.00    +0.000 A 
ATOM      5  C   UNL     1      42.738   5.251  11.832  0.00  0.00    +0.000 A 
ATOM      6  N   UNL     1      43.174   5.104  10.564  0.00  0.00    +0.000 NA
ATOM      7  C   UNL     1      44.431   4.603  10.425  0.00  0.00    +0.000 A 
ATOM      8  C   UNL     1      45.247   4.244  11.490  0.00  0.00    +0.000 A 
BRANCH   7   9
ATOM      9  C   UNL     1      44.944   4.422   9.028  0.00  0.00    +0.000 C 
ATOM     10  N   UNL     1      44.306   3.457   8.293  0.00  0.00    +0.000 N 
ATOM     11  O   UNL     1      45.864   5.075   8.573  0.00  0.00    +0.000 OA
ATOM     12  H   UNL     1      43.547   2.931   8.708  0.00  0.00    +0.000 HD
ATOM     13  H   UNL     1      44.605   3.277   7.347  0.00  0.00    +0.000 HD
ENDBRANCH   7   9
ENDBRANCH   1   3
BRANCH   1  14
ATOM     14  C   UNL     1      46.807   4.852  14.035  0.00  0.00    +0.000 C 
BRANCH  14  18
ATOM     15  C   UNL     1      48.458   4.513  18.040  0.00  0.00    +0.000 A 
ATOM     16  C   UNL     1      47.638   3.501  17.528  0.00  0.00    +0.000 A 
ATOM     17  C   UNL     1      47.114   3.589  16.235  0.00  0.00    +0.000 A 
ATOM     18  C   UNL     1      47.392   4.697  15.422  0.00  0.00    +0.000 A 
ATOM     19  C   UNL     1      48.241   5.695  15.927  0.00  0.00    +0.000 A 
ATOM     20  C   UNL     1      48.771   5.601  17.219  0.00  0.00    +0.000 A 
BRANCH  15  21
ATOM     21  C   UNL     1      48.947   4.439  19.463  0.00  0.00    +0.000 C 
BRANCH  21  22
ATOM     22  N   UNL     1      48.337   3.316  20.165  0.00  0.00    +0.000 NA
ATOM     23  H   UNL     1      48.161   2.562  19.506  0.00  0.00    +0.000 HD
ATOM     24  H   UNL     1      47.430   3.609  20.526  0.00  0.00    +0.000 HD
ENDBRANCH  21  22
ENDBRANCH  15  21
ENDBRANCH  14  18
ENDBRANCH   1  14
TORSDOF 6
ENDMDL
MODEL 9
REMARK VINA RESULT:    -6.015      3.203      6.244
REMARK INTER + INTRA:          -8.429
REMARK INTER:                  -7.986
REMARK INTRA:                  -0.444
REMARK UNBOUND:                -0.480
REMARK  Name = 
REMARK  6 active torsions:
REMARK  status: ('A' for Active; 'I' for Inactive)
REMARK    1  A    between atoms: N_1  and  C_2
REMARK    2  A    between atoms: C_2  and  C_3
REMARK    3  A    between atoms: C_6  and  C_7
REMARK    4  A    between atoms: C_7  and  N_8
REMARK    5  A    between atoms: N_8  and  C_9
REMARK    6  A    between atoms: C_13  and  C_14
REMARK                            x       y       z     vdW  Elec       q    Type
REMARK                         _______ _______ _______ _____ _____    ______ ____
ROOT
ATOM      1  N   UNL     1      45.360   5.878  13.300  0.00  0.00    +0.000 N 
ATOM      2  H   UNL     1      44.847   5.848  14.181  0.00  0.00    +0.000 HD
ENDROOT
BRANCH   1   3
ATOM      3  C   UNL     1      44.817   4.933  12.411  0.00  0.00    +0.000 A 
ATOM      4  C   UNL     1      43.859   3.994  12.790  0.00  0.00    +0.000 A 
ATOM      5  C   UNL     1      43.326   3.140  11.832  0.00  0.00    +0.000 A 
ATOM      6  N   UNL     1      43.668   3.161  10.527  0.00  0.00    +0.000 NA
ATOM      7  C   UNL     1      44.578   4.108  10.170  0.00  0.00    +0.000 A 
ATOM      8  C   UNL     1      45.151   5.009  11.057  0.00  0.00    +0.000 A 
BRANCH   7   9
ATOM      9  C   UNL     1      44.983   4.156   8.727  0.00  0.00    +0.000 C 
ATOM     10  N   UNL     1      44.278   3.325   7.895  0.00  0.00    +0.000 N 
ATOM     11  O   UNL     1      45.876   4.872   8.316  0.00  0.00    +0.000 OA
ATOM     12  H   UNL     1      43.544   2.740   8.276  0.00  0.00    +0.000 HD
ATOM     13  H   UNL     1      44.503   3.301   6.913  0.00  0.00    +0.000 HD
ENDBRANCH   7   9
ENDBRANCH   1   3
BRANCH   1  14
ATOM     14  C   UNL     1      45.475   7.258  12.825  0.00  0.00    +0.000 C 
BRANCH  14  18
ATOM     15  C   UNL     1      49.617   8.215  11.928  0.00  0.00    +0.000 A 
ATOM     16  C   UNL     1      48.617   9.179  11.754  0.00  0.00    +0.000 A 
ATOM     17  C   UNL     1      47.283   8.890  12.055  0.00  0.00    +0.000 A 
ATOM     18  C   UNL     1      46.913   7.625  12.532  0.00  0.00    +0.000 A 
ATOM     19  C   UNL     1      47.923   6.670  12.735  0.00  0.00    +0.000 A 
ATOM     20  C   UNL     1      49.259   6.964  12.441  0.00  0.00    +0.000 A 
BRANCH  15  21
ATOM     21  C   UNL     1      51.036   8.519  11.521  0.00  0.00    +0.000 C 
BRANCH  21  22
ATOM     22  N   UNL     1      51.981   8.010  12.508  0.00  0.00    +0.000 NA
ATOM     23  H   UNL     1      51.472   7.693  13.329  0.00  0.00    +0.000 HD
ATOM     24  H   UNL     1      52.583   8.775  12.811  0.00  0.00    +0.000 HD
ENDBRANCH  21  22
ENDBRANCH  15  21
ENDBRANCH  14  18
ENDBRANCH   1  14
TORSDOF 6
ENDMDL
