MODEL 1
REMARK VINA RESULT:    -7.255      0.000      0.000
REMARK INTER + INTRA:         -10.197
REMARK INTER:                  -9.800
REMARK INTRA:                  -0.398
REMARK UNBOUND:                -0.398
REMARK  Name = 
REMARK  7 active torsions:
REMARK  status: ('A' for Active; 'I' for Inactive)
REMARK    1  A    between atoms: N_1  and  C_2
REMARK    2  A    between atoms: C_2  and  C_3
REMARK    3  A    between atoms: C_3  and  C_4
REMARK    4  A    between atoms: C_9  and  C_10
REMARK    5  A    between atoms: C_10  and  N_11
REMARK    6  A    between atoms: C_16  and  C_17
REMARK    7  A    between atoms: C_17  and  O_19
REMARK                            x       y       z     vdW  Elec       q    Type
REMARK                         _______ _______ _______ _____ _____    ______ ____
ROOT
ATOM      1  N   UNL     1      44.175   4.354  10.612  0.00  0.00    +0.000 N 
ATOM      2  C   UNL     1      43.590   3.171  11.009  0.00  0.00    +0.000 A 
ATOM      3  C   UNL     1      44.158   2.137  10.308  0.00  0.00    +0.000 A 
ATOM      4  C   UNL     1      45.029   2.708   9.349  0.00  0.00    +0.000 A 
ATOM      5  C   UNL     1      45.739   2.161   8.265  0.00  0.00    +0.000 A 
ATOM      6  C   UNL     1      46.453   3.015   7.420  0.00  0.00    +0.000 A 
ATOM      7  C   UNL     1      46.573   4.376   7.723  0.00  0.00    +0.000 A 
ATOM      8  C   UNL     1      45.891   4.935   8.814  0.00  0.00    +0.000 A 
ATOM      9  C   UNL     1      45.075   4.089   9.585  0.00  0.00    +0.000 A 
ENDROOT
BRANCH   6  10
ATOM     10  C   UNL     1      47.030   2.430   6.185  0.00  0.00    +0.000 C 
ATOM     11  O   UNL     1      46.835   2.881   5.070  0.00  0.00    +0.000 OA
BRANCH  10  12
ATOM     12  O   UNL     1      47.873   1.402   6.430  0.00  0.00    +0.000 OA
ATOM     13  H   UNL     1      47.444   0.528   6.461  0.00  0.00    +0.000 HD
ENDBRANCH  10  12
ENDBRANCH   6  10
BRANCH   1  14
ATOM     14  C   UNL     1      43.608   5.669  10.928  0.00  0.00    +0.000 C 
BRANCH  14  20
ATOM     15  C   UNL     1      45.364   6.446  12.659  0.00  0.00    +0.000 A 
ATOM     16  C   UNL     1      46.010   7.543  13.259  0.00  0.00    +0.000 A 
ATOM     17  C   UNL     1      45.805   8.829  12.788  0.00  0.00    +0.000 A 
ATOM     18  C   UNL     1      44.973   8.984  11.701  0.00  0.00    +0.000 A 
ATOM     19  N   UNL     1      44.345   7.959  11.083  0.00  0.00    +0.000 NA
ATOM     20  C   UNL     1      44.530   6.691  11.556  0.00  0.00    +0.000 A 
BRANCH  15  21
ATOM     21  C   UNL     1      45.629   5.091  13.266  0.00  0.00    +0.000 C 
BRANCH  21  22
ATOM     22  C   UNL     1      47.025   5.024  13.901  0.00  0.00    +0.000 C 
BRANCH  22  23
ATOM     23  N   UNL     1      47.530   3.657  13.979  0.00  0.00    +0.000 NA
ATOM     24  H   UNL     1      47.096   3.164  14.758  0.00  0.00    +0.000 HD
ATOM     25  H   UNL     1      47.287   3.144  13.133  0.00  0.00    +0.000 HD
ENDBRANCH  22  23
ENDBRANCH  21  22
ENDBRANCH  15  21
ENDBRANCH  14  20
ENDBRANCH   1  14
TORSDOF 7
ENDMDL
MODEL 2
REMARK VINA RESULT:    -6.731      4.057      6.744
REMARK INTER + INTRA:          -9.490
REMARK INTER:                  -9.148
REMARK INTRA:                  -0.342
REMARK UNBOUND:                -0.398
REMARK  Name = 
REMARK  7 active torsions:
REMARK  status: ('A' for Active; 'I' for Inactive)
REMARK    1  A    between atoms: N_1  and  C_2
REMARK    2  A    between atoms: C_2  and  C_3
REMARK    3  A    between atoms: C_3  and  C_4
REMARK    4  A    between atoms: C_9  and  C_10
REMARK    5  A    between atoms: C_10  and  N_11
REMARK    6  A    between atoms: C_16  and  C_17
REMARK    7  A    between atoms: C_17  and  O_19
REMARK                            x       y       z     vdW  Elec       q    Type
REMARK                         _______ _______ _______ _____ _____    ______ ____
ROOT
ATOM      1  N   UNL     1      46.586   6.330  11.798  0.00  0.00    +0.000 N 
ATOM      2  C   UNL     1      47.511   7.348  11.705  0.00  0.00    +0.000 A 
ATOM      3  C   UNL     1      48.381   7.257  12.762  0.00  0.00    +0.000 A 
ATOM      4  C   UNL     1      47.902   6.232  13.612  0.00  0.00    +0.000 A 
ATOM      5  C   UNL     1      48.280   5.812  14.901  0.00  0.00    +0.000 A 
ATOM      6  C   UNL     1      47.536   4.814  15.536  0.00  0.00    +0.000 A 
ATOM      7  C   UNL     1      46.516   4.145  14.851  0.00  0.00    +0.000 A 
ATOM      8  C   UNL     1      46.142   4.533  13.556  0.00  0.00    +0.000 A 
ATOM      9  C   UNL     1      46.814   5.622  12.974  0.00  0.00    +0.000 A 
ENDROOT
BRANCH   6  10
ATOM     10  C   UNL     1      47.844   4.532  16.960  0.00  0.00    +0.000 C 
ATOM     11  O   UNL     1      48.899   4.827  17.493  0.00  0.00    +0.000 OA
BRANCH  10  12
ATOM     12  O   UNL     1      46.798   4.001  17.632  0.00  0.00    +0.000 OA
ATOM     13  H   UNL     1      46.179   3.493  17.077  0.00  0.00    +0.000 HD
ENDBRANCH  10  12
ENDBRANCH   6  10
BRANCH   1  14
ATOM     14  C   UNL     1      45.346   6.305  11.017  0.00  0.00    +0.000 C 
BRANCH  14  20
ATOM     15  C   UNL     1      44.406   4.000  10.321  0.00  0.00    +0.000 A 
ATOM     16  C   UNL     1      44.486   2.931   9.409  0.00  0.00    +0.000 A 
ATOM     17  C   UNL     1      45.300   3.013   8.291  0.00  0.00    +0.000 A 
ATOM     18  C   UNL     1      46.000   4.184   8.098  0.00  0.00    +0.000 A 
ATOM     19  N   UNL     1      45.942   5.242   8.938  0.00  0.00    +0.000 NA
ATOM     20  C   UNL     1      45.154   5.158  10.051  0.00  0.00    +0.000 A 
BRANCH  15  21
ATOM     21  C   UNL     1      43.515   3.800  11.521  0.00  0.00    +0.000 C 
BRANCH  21  22
ATOM     22  C   UNL     1      42.640   5.034  11.781  0.00  0.00    +0.000 C 
BRANCH  22  23
ATOM     23  N   UNL     1      42.624   5.411  13.191  0.00  0.00    +0.000 NA
ATOM     24  H   UNL     1      43.560   5.336  13.587  0.00  0.00    +0.000 HD
ATOM     25  H   UNL     1      42.338   6.383  13.292  0.00  0.00    +0.000 HD
ENDBRANCH  22  23
ENDBRANCH  21  22
ENDBRANCH  15  21
ENDBRANCH  14  20
ENDBRANCH   1  14
TORSDOF 7
ENDMDL
MODEL 3
REMARK VINA RESULT:    -6.408      3.349      5.557
REMARK INTER + INTRA:          -9.053
REMARK INTER:                  -8.364
REMARK INTRA:                  -0.689
REMARK UNBOUND:                -0.398
REMARK  Name = 
REMARK  7 active torsions:
REMARK  status: ('A' for Active; 'I' for Inactive)
REMARK    1  A    between atoms: N_1  and  C_2
REMARK    2  A    between atoms: C_2  and  C_3
REMARK    3  A    between atoms: C_3  and  C_4
REMARK    4  A    between atoms: C_9  and  C_10
REMARK    5  A    between atoms: C_10  and  N_11
REMARK    6  A    between atoms: C_16  and  C_17
REMARK    7  A    between atoms: C_17  and  O_19
REMARK                            x       y       z     vdW  Elec       q    Type
REMARK                         _______ _______ _______ _____ _____    ______ ____
ROOT
ATOM      1  N   UNL     1      47.498   6.405  13.937  0.00  0.00    +0.000 N 
ATOM      2  C   UNL     1      47.445   7.675  13.402  0.00  0.00    +0.000 A 
ATOM      3  C   UNL     1      46.462   7.713  12.445  0.00  0.00    +0.000 A 
ATOM      4  C   UNL     1      45.979   6.393  12.285  0.00  0.00    +0.000 A 
ATOM      5  C   UNL     1      45.107   5.806  11.351  0.00  0.00    +0.000 A 
ATOM      6  C   UNL     1      44.895   4.426  11.391  0.00  0.00    +0.000 A 
ATOM      7  C   UNL     1      45.433   3.656  12.429  0.00  0.00    +0.000 A 
ATOM      8  C   UNL     1      46.285   4.228  13.384  0.00  0.00    +0.000 A 
ATOM      9  C   UNL     1      46.592   5.594  13.260  0.00  0.00    +0.000 A 
ENDROOT
BRANCH   6  10
ATOM     10  C   UNL     1      44.123   3.818  10.279  0.00  0.00    +0.000 C 
ATOM     11  O   UNL     1      43.853   2.632  10.214  0.00  0.00    +0.000 OA
BRANCH  10  12
ATOM     12  O   UNL     1      43.667   4.730   9.392  0.00  0.00    +0.000 OA
ATOM     13  H   UNL     1      44.367   5.206   8.907  0.00  0.00    +0.000 HD
ENDBRANCH  10  12
ENDBRANCH   6  10
BRANCH   1  14
ATOM     14  C   UNL     1      48.617   5.931  14.756  0.00  0.00    +0.000 C 
BRANCH  14  20
ATOM     15  C   UNL     1      47.995   4.999  17.085  0.00  0.00    +0.000 A 
ATOM     16  C   UNL     1      47.721   5.302  18.431  0.00  0.00    +0.000 A 
ATOM     17  C   UNL     1      47.894   6.589  18.917  0.00  0.00    +0.000 A 
ATOM     18  C   UNL     1      48.367   7.541  18.041  0.00  0.00    +0.000 A 
ATOM     19  N   UNL     1      48.658   7.292  16.745  0.00  0.00    +0.000 NA
ATOM     20  C   UNL     1      48.472   6.029  16.258  0.00  0.00    +0.000 A 
BRANCH  15  21
ATOM     21  C   UNL     1      47.745   3.578  16.648  0.00  0.00    +0.000 C 
BRANCH  21  22
ATOM     22  C   UNL     1      48.891   2.650  17.076  0.00  0.00    +0.000 C 
BRANCH  22  23
ATOM     23  N   UNL     1      49.376   1.828  15.972  0.00  0.00    +0.000 NA
ATOM     24  H   UNL     1      48.657   1.738  15.256  0.00  0.00    +0.000 HD
ATOM     25  H   UNL     1      50.179   2.272  15.530  0.00  0.00    +0.000 HD
ENDBRANCH  22  23
ENDBRANCH  21  22
ENDBRANCH  15  21
ENDBRANCH  14  20
ENDBRANCH   1  14
TORSDOF 7
ENDMDL
MODEL 4
REMARK VINA RESULT:    -5.876      3.126      5.178
REMARK INTER + INTRA:          -8.334
REMARK INTER:                  -7.716
REMARK INTRA:                  -0.618
REMARK UNBOUND:                -0.398
REMARK  Name = 
REMARK  7 active torsions:
REMARK  status: ('A' for Active; 'I' for Inactive)
REMARK    1  A    between atoms: N_1  and  C_2
REMARK    2  A    between atoms: C_2  and  C_3
REMARK    3  A    between atoms: C_3  and  C_4
REMARK    4  A    between atoms: C_9  and  C_10
REMARK    5  A    between atoms: C_10  and  N_11
REMARK    6  A    between atoms: C_16  and  C_17
REMARK    7  A    between atoms: C_17  and  O_19
REMARK                            x       y       z     vdW  Elec       q    Type
REMARK                         _______ _______ _______ _____ _____    ______ ____
ROOT
ATOM      1  N   UNL     1      47.334   6.404  13.730  0.00  0.00    +0.000 N 
ATOM      2  C   UNL     1      47.566   5.540  14.779  0.00  0.00    +0.000 A 
ATOM      3  C   UNL     1      47.052   4.308  14.463  0.00  0.00    +0.000 A 
ATOM      4  C   UNL     1      46.361   4.444  13.236  0.00  0.00    +0.000 A 
ATOM      5  C   UNL     1      45.514   3.578  12.521  0.00  0.00    +0.000 A 
ATOM      6  C   UNL     1      44.887   4.042  11.362  0.00  0.00    +0.000 A 
ATOM      7  C   UNL     1      45.201   5.303  10.843  0.00  0.00    +0.000 A 
ATOM      8  C   UNL     1      46.063   6.171  11.529  0.00  0.00    +0.000 A 
ATOM      9  C   UNL     1      46.590   5.741  12.758  0.00  0.00    +0.000 A 
ENDROOT
BRANCH   6  10
ATOM     10  C   UNL     1      43.858   3.171  10.744  0.00  0.00    +0.000 C 
ATOM     11  O   UNL     1      43.055   2.516  11.384  0.00  0.00    +0.000 OA
BRANCH  10  12
ATOM     12  O   UNL     1      43.839   3.251   9.394  0.00  0.00    +0.000 OA
ATOM     13  H   UNL     1      42.946   3.282   9.005  0.00  0.00    +0.000 HD
ENDBRANCH  10  12
ENDBRANCH   6  10
BRANCH   1  14
ATOM     14  C   UNL     1      47.476   7.858  13.848  0.00  0.00    +0.000 C 
BRANCH  14  20
ATOM     15  C   UNL     1      48.271   9.699  12.216  0.00  0.00    +0.000 A 
ATOM     16  C   UNL     1      49.248  10.092  11.283  0.00  0.00    +0.000 A 
ATOM     17  C   UNL     1      50.392   9.333  11.092  0.00  0.00    +0.000 A 
ATOM     18  C   UNL     1      50.542   8.204  11.865  0.00  0.00    +0.000 A 
ATOM     19  N   UNL     1      49.639   7.796  12.784  0.00  0.00    +0.000 NA
ATOM     20  C   UNL     1      48.501   8.531  12.963  0.00  0.00    +0.000 A 
BRANCH  15  21
ATOM     21  C   UNL     1      47.050  10.576  12.327  0.00  0.00    +0.000 C 
BRANCH  21  22
ATOM     22  C   UNL     1      45.820   9.906  11.699  0.00  0.00    +0.000 C 
BRANCH  22  23
ATOM     23  N   UNL     1      44.639  10.013  12.551  0.00  0.00    +0.000 NA
ATOM     24  H   UNL     1      44.094  10.835  12.297  0.00  0.00    +0.000 HD
ATOM     25  H   UNL     1      44.034   9.205  12.416  0.00  0.00    +0.000 HD
ENDBRANCH  22  23
ENDBRANCH  21  22
ENDBRANCH  15  21
ENDBRANCH  14  20
ENDBRANCH   1  14
TORSDOF 7
ENDMDL
MODEL 5
REMARK VINA RESULT:    -5.868      3.743      5.904
REMARK INTER + INTRA:          -8.323
REMARK INTER:                  -7.716
REMARK INTRA:                  -0.607
REMARK UNBOUND:                -0.398
REMARK  Name = 
REMARK  7 active torsions:
REMARK  status: ('A' for Active; 'I' for Inactive)
REMARK    1  A    between atoms: N_1  and  C_2
REMARK    2  A    between atoms: C_2  and  C_3
REMARK    3  A    between atoms: C_3  and  C_4
REMARK    4  A    between atoms: C_9  and  C_10
REMARK    5  A    between atoms: C_10  and  N_11
REMARK    6  A    between atoms: C_16  and  C_17
REMARK    7  A    between atoms: C_17  and  O_19
REMARK                            x       y       z     vdW  Elec       q    Type
REMARK                         _______ _______ _______ _____ _____    ______ ____
ROOT
ATOM      1  N   UNL     1      47.113   6.783  13.520  0.00  0.00    +0.000 N 
ATOM      2  C   UNL     1      46.571   7.927  12.972  0.00  0.00    +0.000 A 
ATOM      3  C   UNL     1      45.422   7.597  12.301  0.00  0.00    +0.000 A 
ATOM      4  C   UNL     1      45.315   6.185  12.318  0.00  0.00    +0.000 A 
ATOM      5  C   UNL     1      44.453   5.289  11.661  0.00  0.00    +0.000 A 
ATOM      6  C   UNL     1      44.663   3.915  11.803  0.00  0.00    +0.000 A 
ATOM      7  C   UNL     1      45.629   3.434  12.693  0.00  0.00    +0.000 A 
ATOM      8  C   UNL     1      46.483   4.313  13.376  0.00  0.00    +0.000 A 
ATOM      9  C   UNL     1      46.345   5.690  13.129  0.00  0.00    +0.000 A 
ENDROOT
BRANCH   6  10
ATOM     10  C   UNL     1      43.858   3.007  10.950  0.00  0.00    +0.000 C 
ATOM     11  O   UNL     1      43.943   2.971   9.735  0.00  0.00    +0.000 OA
BRANCH  10  12
ATOM     12  O   UNL     1      43.088   2.155  11.663  0.00  0.00    +0.000 OA
ATOM     13  H   UNL     1      42.134   2.221  11.475  0.00  0.00    +0.000 HD
ENDBRANCH  10  12
ENDBRANCH   6  10
BRANCH   1  14
ATOM     14  C   UNL     1      48.482   6.718  14.039  0.00  0.00    +0.000 C 
BRANCH  14  20
ATOM     15  C   UNL     1      48.674   7.691  16.426  0.00  0.00    +0.000 A 
ATOM     16  C   UNL     1      49.046   7.449  17.761  0.00  0.00    +0.000 A 
ATOM     17  C   UNL     1      49.405   6.177  18.177  0.00  0.00    +0.000 A 
ATOM     18  C   UNL     1      49.358   5.165  17.244  0.00  0.00    +0.000 A 
ATOM     19  N   UNL     1      48.992   5.347  15.955  0.00  0.00    +0.000 NA
ATOM     20  C   UNL     1      48.654   6.603  15.537  0.00  0.00    +0.000 A 
BRANCH  15  21
ATOM     21  C   UNL     1      48.330   9.114  16.067  0.00  0.00    +0.000 C 
BRANCH  21  22
ATOM     22  C   UNL     1      48.052   9.957  17.320  0.00  0.00    +0.000 C 
BRANCH  22  23
ATOM     23  N   UNL     1      48.026  11.387  17.028  0.00  0.00    +0.000 NA
ATOM     24  H   UNL     1      47.906  11.540  16.028  0.00  0.00    +0.000 HD
ATOM     25  H   UNL     1      47.233  11.826  17.492  0.00  0.00    +0.000 HD
ENDBRANCH  22  23
ENDBRANCH  21  22
ENDBRANCH  15  21
ENDBRANCH  14  20
ENDBRANCH   1  14
TORSDOF 7
ENDMDL
MODEL 6
REMARK VINA RESULT:    -5.768      3.762      6.299
REMARK INTER + INTRA:          -8.189
REMARK INTER:                  -7.483
REMARK INTRA:                  -0.705
REMARK UNBOUND:                -0.398
REMARK  Name = 
REMARK  7 active torsions:
REMARK  status: ('A' for Active; 'I' for Inactive)
REMARK    1  A    between atoms: N_1  and  C_2
REMARK    2  A    between atoms: C_2  and  C_3
REMARK    3  A    between atoms: C_3  and  C_4
REMARK    4  A    between atoms: C_9  and  C_10
REMARK    5  A    between atoms: C_10  and  N_11
REMARK    6  A    between atoms: C_16  and  C_17
REMARK    7  A    between atoms: C_17  and  O_19
REMARK                            x       y       z     vdW  Elec       q    Type
REMARK                         _______ _______ _______ _____ _____    ______ ____
ROOT
ATOM      1  N   UNL     1      46.848   4.871  13.923  0.00  0.00    +0.000 N 
ATOM      2  C   UNL     1      47.329   4.651  15.196  0.00  0.00    +0.000 A 
ATOM      3  C   UNL     1      48.207   5.655  15.519  0.00  0.00    +0.000 A 
ATOM      4  C   UNL     1      48.379   6.451  14.361  0.00  0.00    +0.000 A 
ATOM      5  C   UNL     1      49.268   7.496  14.050  0.00  0.00    +0.000 A 
ATOM      6  C   UNL     1      49.263   8.031  12.759  0.00  0.00    +0.000 A 
ATOM      7  C   UNL     1      48.299   7.629  11.829  0.00  0.00    +0.000 A 
ATOM      8  C   UNL     1      47.389   6.605  12.129  0.00  0.00    +0.000 A 
ATOM      9  C   UNL     1      47.484   5.987  13.388  0.00  0.00    +0.000 A 
ENDROOT
BRANCH   6  10
ATOM     10  C   UNL     1      50.336   8.995  12.414  0.00  0.00    +0.000 C 
ATOM     11  O   UNL     1      51.461   8.948  12.880  0.00  0.00    +0.000 OA
BRANCH  10  12
ATOM     12  O   UNL     1      49.968   9.875  11.456  0.00  0.00    +0.000 OA
ATOM     13  H   UNL     1      49.013  10.069  11.432  0.00  0.00    +0.000 HD
ENDBRANCH  10  12
ENDBRANCH   6  10
BRANCH   1  14
ATOM     14  C   UNL     1      46.133   3.849  13.153  0.00  0.00    +0.000 C 
BRANCH  14  20
ATOM     15  C   UNL     1      44.420   4.104  11.234  0.00  0.00    +0.000 A 
ATOM     16  C   UNL     1      43.204   4.680  10.821  0.00  0.00    +0.000 A 
ATOM     17  C   UNL     1      42.402   5.363  11.720  0.00  0.00    +0.000 A 
ATOM     18  C   UNL     1      42.827   5.432  13.028  0.00  0.00    +0.000 A 
ATOM     19  N   UNL     1      43.979   4.881  13.474  0.00  0.00    +0.000 NA
ATOM     20  C   UNL     1      44.781   4.222  12.587  0.00  0.00    +0.000 A 
BRANCH  15  21
ATOM     21  C   UNL     1      45.234   3.409  10.173  0.00  0.00    +0.000 C 
BRANCH  21  22
ATOM     22  C   UNL     1      44.804   3.839   8.764  0.00  0.00    +0.000 C 
BRANCH  22  23
ATOM     23  N   UNL     1      45.730   4.803   8.176  0.00  0.00    +0.000 NA
ATOM     24  H   UNL     1      45.379   5.125   7.275  0.00  0.00    +0.000 HD
ATOM     25  H   UNL     1      45.809   5.624   8.773  0.00  0.00    +0.000 HD
ENDBRANCH  22  23
ENDBRANCH  21  22
ENDBRANCH  15  21
ENDBRANCH  14  20
ENDBRANCH   1  14
TORSDOF 7
ENDMDL
MODEL 7
REMARK VINA RESULT:    -5.765      4.786      7.606
REMARK INTER + INTRA:          -8.184
REMARK INTER:                  -7.565
REMARK INTRA:                  -0.620
REMARK UNBOUND:                -0.398
REMARK  Name = 
REMARK  7 active torsions:
REMARK  status: ('A' for Active; 'I' for Inactive)
REMARK    1  A    between atoms: N_1  and  C_2
REMARK    2  A    between atoms: C_2  and  C_3
REMARK    3  A    between atoms: C_3  and  C_4
REMARK    4  A    between atoms: C_9  and  C_10
REMARK    5  A    between atoms: C_10  and  N_11
REMARK    6  A    between atoms: C_16  and  C_17
REMARK    7  A    between atoms: C_17  and  O_19
REMARK                            x       y       z     vdW  Elec       q    Type
REMARK                         _______ _______ _______ _____ _____    ______ ____
ROOT
ATOM      1  N   UNL     1      47.051   4.493  13.525  0.00  0.00    +0.000 N 
ATOM      2  C   UNL     1      47.213   5.815  13.169  0.00  0.00    +0.000 A 
ATOM      3  C   UNL     1      47.828   6.480  14.199  0.00  0.00    +0.000 A 
ATOM      4  C   UNL     1      47.932   5.575  15.282  0.00  0.00    +0.000 A 
ATOM      5  C   UNL     1      48.314   5.740  16.626  0.00  0.00    +0.000 A 
ATOM      6  C   UNL     1      48.216   4.654  17.499  0.00  0.00    +0.000 A 
ATOM      7  C   UNL     1      47.875   3.385  17.017  0.00  0.00    +0.000 A 
ATOM      8  C   UNL     1      47.515   3.196  15.675  0.00  0.00    +0.000 A 
ATOM      9  C   UNL     1      47.495   4.321  14.833  0.00  0.00    +0.000 A 
ENDROOT
BRANCH   6  10
ATOM     10  C   UNL     1      48.445   4.912  18.942  0.00  0.00    +0.000 C 
ATOM     11  O   UNL     1      48.677   6.017  19.401  0.00  0.00    +0.000 OA
BRANCH  10  12
ATOM     12  O   UNL     1      48.274   3.813  19.710  0.00  0.00    +0.000 OA
ATOM     13  H   UNL     1      47.385   3.729  20.100  0.00  0.00    +0.000 HD
ENDBRANCH  10  12
ENDBRANCH   6  10
BRANCH   1  14
ATOM     14  C   UNL     1      46.169   3.574  12.800  0.00  0.00    +0.000 C 
BRANCH  14  20
ATOM     15  C   UNL     1      44.578   4.448  10.959  0.00  0.00    +0.000 A 
ATOM     16  C   UNL     1      43.386   5.138  10.675  0.00  0.00    +0.000 A 
ATOM     17  C   UNL     1      42.521   5.506  11.693  0.00  0.00    +0.000 A 
ATOM     18  C   UNL     1      42.861   5.148  12.978  0.00  0.00    +0.000 A 
ATOM     19  N   UNL     1      43.988   4.471  13.297  0.00  0.00    +0.000 NA
ATOM     20  C   UNL     1      44.852   4.123  12.298  0.00  0.00    +0.000 A 
BRANCH  15  21
ATOM     21  C   UNL     1      45.466   4.121   9.785  0.00  0.00    +0.000 C 
BRANCH  21  22
ATOM     22  C   UNL     1      44.817   3.076   8.866  0.00  0.00    +0.000 C 
BRANCH  22  23
ATOM     23  N   UNL     1      44.690   1.774   9.514  0.00  0.00    +0.000 NA
ATOM     24  H   UNL     1      44.991   1.035   8.881  0.00  0.00    +0.000 HD
ATOM     25  H   UNL     1      45.296   1.728  10.332  0.00  0.00    +0.000 HD
ENDBRANCH  22  23
ENDBRANCH  21  22
ENDBRANCH  15  21
ENDBRANCH  14  20
ENDBRANCH   1  14
TORSDOF 7
ENDMDL
MODEL 8
REMARK VINA RESULT:    -5.714      3.226      4.644
REMARK INTER + INTRA:          -8.116
REMARK INTER:                  -7.622
REMARK INTRA:                  -0.494
REMARK UNBOUND:                -0.398
REMARK  Name = 
REMARK  7 active torsions:
REMARK  status: ('A' for Active; 'I' for Inactive)
REMARK    1  A    between atoms: N_1  and  C_2
REMARK    2  A    between atoms: C_2  and  C_3
REMARK    3  A    between atoms: C_3  and  C_4
REMARK    4  A    between atoms: C_9  and  C_10
REMARK    5  A    between atoms: C_10  and  N_11
REMARK    6  A    between atoms: C_16  and  C_17
REMARK    7  A    between atoms: C_17  and  O_19
REMARK                            x       y       z     vdW  Elec       q    Type
REMARK                         _______ _______ _______ _____ _____    ______ ____
ROOT
ATOM      1  N   UNL     1      46.974   6.683  13.454  0.00  0.00    +0.000 N 
ATOM      2  C   UNL     1      47.429   5.862  14.464  0.00  0.00    +0.000 A 
ATOM      3  C   UNL     1      47.099   4.565  14.165  0.00  0.00    +0.000 A 
ATOM      4  C   UNL     1      46.297   4.593  12.999  0.00  0.00    +0.000 A 
ATOM      5  C   UNL     1      45.547   3.604  12.337  0.00  0.00    +0.000 A 
ATOM      6  C   UNL     1      44.759   3.967  11.242  0.00  0.00    +0.000 A 
ATOM      7  C   UNL     1      44.820   5.266  10.725  0.00  0.00    +0.000 A 
ATOM      8  C   UNL     1      45.581   6.260  11.357  0.00  0.00    +0.000 A 
ATOM      9  C   UNL     1      46.271   5.914  12.532  0.00  0.00    +0.000 A 
ENDROOT
BRANCH   6  10
ATOM     10  C   UNL     1      43.839   2.943  10.690  0.00  0.00    +0.000 C 
ATOM     11  O   UNL     1      44.007   2.395   9.615  0.00  0.00    +0.000 OA
BRANCH  10  12
ATOM     12  O   UNL     1      42.847   2.608  11.544  0.00  0.00    +0.000 OA
ATOM     13  H   UNL     1      42.568   3.327  12.140  0.00  0.00    +0.000 HD
ENDBRANCH  10  12
ENDBRANCH   6  10
BRANCH   1  14
ATOM     14  C   UNL     1      46.885   8.140  13.590  0.00  0.00    +0.000 C 
BRANCH  14  20
ATOM     15  C   UNL     1      48.901   8.826  12.125  0.00  0.00    +0.000 A 
ATOM     16  C   UNL     1      49.455   9.808  11.283  0.00  0.00    +0.000 A 
ATOM     17  C   UNL     1      48.708  10.907  10.889  0.00  0.00    +0.000 A 
ATOM     18  C   UNL     1      47.406  10.982  11.330  0.00  0.00    +0.000 A 
ATOM     19  N   UNL     1      46.827  10.056  12.127  0.00  0.00    +0.000 NA
ATOM     20  C   UNL     1      47.565   8.980  12.532  0.00  0.00    +0.000 A 
BRANCH  15  21
ATOM     21  C   UNL     1      49.806   7.687  12.521  0.00  0.00    +0.000 C 
BRANCH  21  22
ATOM     22  C   UNL     1      50.727   8.081  13.684  0.00  0.00    +0.000 C 
BRANCH  22  23
ATOM     23  N   UNL     1      50.660   7.127  14.788  0.00  0.00    +0.000 NA
ATOM     24  H   UNL     1      51.095   7.520  15.620  0.00  0.00    +0.000 HD
ATOM     25  H   UNL     1      49.688   6.933  15.025  0.00  0.00    +0.000 HD
ENDBRANCH  22  23
ENDBRANCH  21  22
ENDBRANCH  15  21
ENDBRANCH  14  20
ENDBRANCH   1  14
TORSDOF 7
ENDMDL
MODEL 9
REMARK VINA RESULT:    -5.421      4.176      6.321
REMARK INTER + INTRA:          -7.719
REMARK INTER:                  -7.153
REMARK INTRA:                  -0.566
REMARK UNBOUND:                -0.398
REMARK  Name = 
REMARK  7 active torsions:
REMARK  status: ('A' for Active; 'I' for Inactive)
REMARK    1  A    between atoms: N_1  and  C_2
REMARK    2  A    between atoms: C_2  and  C_3
REMARK    3  A    between atoms: C_3  and  C_4
REMARK    4  A    between atoms: C_9  and  C_10
REMARK    5  A    between atoms: C_10  and  N_11
REMARK    6  A    between atoms: C_16  and  C_17
REMARK    7  A    between atoms: C_17  and  O_19
REMARK                            x       y       z     vdW  Elec       q    Type
REMARK                         _______ _______ _______ _____ _____    ______ ____
ROOT
ATOM      1  N   UNL     1      48.017   5.755  14.901  0.00  0.00    +0.000 N 
ATOM      2  C   UNL     1      47.611   4.655  15.626  0.00  0.00    +0.000 A 
ATOM      3  C   UNL     1      46.773   3.895  14.850  0.00  0.00    +0.000 A 
ATOM      4  C   UNL     1      46.545   4.612  13.651  0.00  0.00    +0.000 A 
ATOM      5  C   UNL     1      45.659   4.411  12.577  0.00  0.00    +0.000 A 
ATOM      6  C   UNL     1      45.594   5.368  11.561  0.00  0.00    +0.000 A 
ATOM      7  C   UNL     1      46.492   6.441  11.539  0.00  0.00    +0.000 A 
ATOM      8  C   UNL     1      47.399   6.645  12.589  0.00  0.00    +0.000 A 
ATOM      9  C   UNL     1      47.370   5.745  13.669  0.00  0.00    +0.000 A 
ENDROOT
BRANCH   6  10
ATOM     10  C   UNL     1      44.520   5.220  10.549  0.00  0.00    +0.000 C 
ATOM     11  O   UNL     1      43.332   5.289  10.810  0.00  0.00    +0.000 OA
BRANCH  10  12
ATOM     12  O   UNL     1      44.994   5.095   9.289  0.00  0.00    +0.000 OA
ATOM     13  H   UNL     1      45.958   5.209   9.209  0.00  0.00    +0.000 HD
ENDBRANCH  10  12
ENDBRANCH   6  10
BRANCH   1  14
ATOM     14  C   UNL     1      48.663   6.920  15.512  0.00  0.00    +0.000 C 
BRANCH  14  20
ATOM     15  C   UNL     1      49.342   6.944  18.007  0.00  0.00    +0.000 A 
ATOM     16  C   UNL     1      50.396   6.846  18.933  0.00  0.00    +0.000 A 
ATOM     17  C   UNL     1      51.674   6.508  18.518  0.00  0.00    +0.000 A 
ATOM     18  C   UNL     1      51.861   6.249  17.179  0.00  0.00    +0.000 A 
ATOM     19  N   UNL     1      50.875   6.315  16.255  0.00  0.00    +0.000 NA
ATOM     20  C   UNL     1      49.617   6.665  16.658  0.00  0.00    +0.000 A 
BRANCH  15  21
ATOM     21  C   UNL     1      47.996   7.347  18.554  0.00  0.00    +0.000 C 
BRANCH  21  22
ATOM     22  C   UNL     1      47.412   6.258  19.465  0.00  0.00    +0.000 C 
BRANCH  22  23
ATOM     23  N   UNL     1      46.418   5.439  18.777  0.00  0.00    +0.000 NA
ATOM     24  H   UNL     1      45.478   5.761  19.003  0.00  0.00    +0.000 HD
ATOM     25  H   UNL     1      46.526   5.529  17.768  0.00  0.00    +0.000 HD
ENDBRANCH  22  23
ENDBRANCH  21  22
ENDBRANCH  15  21
ENDBRANCH  14  20
ENDBRANCH   1  14
TORSDOF 7
ENDMDL
