MODEL 1
REMARK VINA RESULT:    -7.894      0.000      0.000
REMARK INTER + INTRA:          -9.878
REMARK INTER:                  -9.510
REMARK INTRA:                  -0.368
REMARK UNBOUND:                -0.368
REMARK  Name = 
REMARK  4 active torsions:
REMARK  status: ('A' for Active; 'I' for Inactive)
REMARK    1  A    between atoms: C_2  and  C_4
REMARK    2  A    between atoms: C_7  and  C_8
REMARK    3  A    between atoms: C_8  and  C_9
REMARK    4  A    between atoms: C_14  and  O_15
REMARK                            x       y       z     vdW  Elec       q    Type
REMARK                         _______ _______ _______ _____ _____    ______ ____
ROOT
ATOM      1  C   UNL     1      46.425   2.466   7.707  0.00  0.00    +0.000 A 
ATOM      2  C   UNL     1      45.622   1.779   8.628  0.00  0.00    +0.000 A 
ATOM      3  C   UNL     1      44.774   2.489   9.484  0.00  0.00    +0.000 A 
ATOM      4  C   UNL     1      44.716   3.888   9.433  0.00  0.00    +0.000 A 
ATOM      5  C   UNL     1      45.535   4.563   8.520  0.00  0.00    +0.000 A 
ATOM      6  C   UNL     1      46.388   3.860   7.661  0.00  0.00    +0.000 A 
ENDROOT
BRANCH   1   8
ATOM      7  N   UNL     1      48.390   2.444   6.275  0.00  0.00    +0.000 N 
ATOM      8  C   UNL     1      47.331   1.740   6.779  0.00  0.00    +0.000 C 
ATOM      9  O   UNL     1      47.166   0.558   6.507  0.00  0.00    +0.000 OA
ATOM     10  H   UNL     1      49.064   1.915   5.739  0.00  0.00    +0.000 HD
ATOM     11  H   UNL     1      48.691   3.318   6.681  0.00  0.00    +0.000 HD
ENDBRANCH   1   8
BRANCH   4  12
ATOM     12  C   UNL     1      43.832   4.662  10.395  0.00  0.00    +0.000 C 
BRANCH  12  13
ATOM     13  C   UNL     1      44.621   5.447  11.421  0.00  0.00    +0.000 A 
ATOM     14  N   UNL     1      45.602   4.777  12.085  0.00  0.00    +0.000 NA
ATOM     15  C   UNL     1      46.398   5.495  12.908  0.00  0.00    +0.000 A 
ATOM     16  C   UNL     1      46.273   6.860  13.107  0.00  0.00    +0.000 A 
ATOM     17  C   UNL     1      45.246   7.530  12.451  0.00  0.00    +0.000 A 
ATOM     18  C   UNL     1      44.403   6.815  11.606  0.00  0.00    +0.000 A 
BRANCH  18  19
ATOM     19  O   UNL     1      43.383   7.449  10.957  0.00  0.00    +0.000 OA
ATOM     20  H   UNL     1      43.747   7.927  10.194  0.00  0.00    +0.000 HD
ENDBRANCH  18  19
ENDBRANCH  12  13
ENDBRANCH   4  12
TORSDOF 4
ENDMDL
MODEL 2
REMARK VINA RESULT:    -7.544      1.694      2.277
REMARK INTER + INTRA:          -9.456
REMARK INTER:                  -9.127
REMARK INTRA:                  -0.329
REMARK UNBOUND:                -0.368
REMARK  Name = 
REMARK  4 active torsions:
REMARK  status: ('A' for Active; 'I' for Inactive)
REMARK    1  A    between atoms: C_2  and  C_4
REMARK    2  A    between atoms: C_7  and  C_8
REMARK    3  A    between atoms: C_8  and  C_9
REMARK    4  A    between atoms: C_14  and  O_15
REMARK                            x       y       z     vdW  Elec       q    Type
REMARK                         _______ _______ _______ _____ _____    ______ ____
ROOT
ATOM      1  C   UNL     1      46.747   2.637   7.135  0.00  0.00    +0.000 A 
ATOM      2  C   UNL     1      46.350   3.967   7.332  0.00  0.00    +0.000 A 
ATOM      3  C   UNL     1      45.473   4.290   8.372  0.00  0.00    +0.000 A 
ATOM      4  C   UNL     1      44.980   3.295   9.225  0.00  0.00    +0.000 A 
ATOM      5  C   UNL     1      45.371   1.968   9.008  0.00  0.00    +0.000 A 
ATOM      6  C   UNL     1      46.247   1.636   7.968  0.00  0.00    +0.000 A 
ENDROOT
BRANCH   1   8
ATOM      7  N   UNL     1      47.778   3.127   4.989  0.00  0.00    +0.000 N 
ATOM      8  C   UNL     1      47.684   2.263   6.044  0.00  0.00    +0.000 C 
ATOM      9  O   UNL     1      48.372   1.251   6.101  0.00  0.00    +0.000 OA
ATOM     10  H   UNL     1      48.498   2.925   4.308  0.00  0.00    +0.000 HD
ATOM     11  H   UNL     1      47.429   4.073   5.041  0.00  0.00    +0.000 HD
ENDBRANCH   1   8
BRANCH   4  12
ATOM     12  C   UNL     1      43.989   3.637  10.324  0.00  0.00    +0.000 C 
BRANCH  12  13
ATOM     13  C   UNL     1      44.561   4.575  11.365  0.00  0.00    +0.000 A 
ATOM     14  N   UNL     1      44.329   5.905  11.187  0.00  0.00    +0.000 NA
ATOM     15  C   UNL     1      44.721   6.741  12.173  0.00  0.00    +0.000 A 
ATOM     16  C   UNL     1      45.333   6.323  13.343  0.00  0.00    +0.000 A 
ATOM     17  C   UNL     1      45.596   4.967  13.501  0.00  0.00    +0.000 A 
ATOM     18  C   UNL     1      45.216   4.082  12.497  0.00  0.00    +0.000 A 
BRANCH  18  19
ATOM     19  O   UNL     1      45.470   2.748  12.626  0.00  0.00    +0.000 OA
ATOM     20  H   UNL     1      44.883   2.381  13.307  0.00  0.00    +0.000 HD
ENDBRANCH  18  19
ENDBRANCH  12  13
ENDBRANCH   4  12
TORSDOF 4
ENDMDL
MODEL 3
REMARK VINA RESULT:    -7.101      2.414      6.220
REMARK INTER + INTRA:          -8.921
REMARK INTER:                  -8.536
REMARK INTRA:                  -0.385
REMARK UNBOUND:                -0.368
REMARK  Name = 
REMARK  4 active torsions:
REMARK  status: ('A' for Active; 'I' for Inactive)
REMARK    1  A    between atoms: C_2  and  C_4
REMARK    2  A    between atoms: C_7  and  C_8
REMARK    3  A    between atoms: C_8  and  C_9
REMARK    4  A    between atoms: C_14  and  O_15
REMARK                            x       y       z     vdW  Elec       q    Type
REMARK                         _______ _______ _______ _____ _____    ______ ____
ROOT
ATOM      1  C   UNL     1      46.751   5.411  13.161  0.00  0.00    +0.000 A 
ATOM      2  C   UNL     1      46.773   6.264  12.049  0.00  0.00    +0.000 A 
ATOM      3  C   UNL     1      46.026   5.950  10.909  0.00  0.00    +0.000 A 
ATOM      4  C   UNL     1      45.251   4.784  10.863  0.00  0.00    +0.000 A 
ATOM      5  C   UNL     1      45.249   3.932  11.975  0.00  0.00    +0.000 A 
ATOM      6  C   UNL     1      45.996   4.238  13.118  0.00  0.00    +0.000 A 
ENDROOT
BRANCH   1   8
ATOM      7  N   UNL     1      47.120   5.116  15.545  0.00  0.00    +0.000 N 
ATOM      8  C   UNL     1      47.527   5.721  14.389  0.00  0.00    +0.000 C 
ATOM      9  O   UNL     1      48.511   6.450  14.366  0.00  0.00    +0.000 OA
ATOM     10  H   UNL     1      47.719   5.239  16.351  0.00  0.00    +0.000 HD
ATOM     11  H   UNL     1      46.492   4.325  15.541  0.00  0.00    +0.000 HD
ENDBRANCH   1   8
BRANCH   4  12
ATOM     12  C   UNL     1      44.478   4.416   9.609  0.00  0.00    +0.000 C 
BRANCH  12  13
ATOM     13  C   UNL     1      45.296   3.608   8.625  0.00  0.00    +0.000 A 
ATOM     14  N   UNL     1      46.028   4.308   7.715  0.00  0.00    +0.000 NA
ATOM     15  C   UNL     1      46.862   3.606   6.916  0.00  0.00    +0.000 A 
ATOM     16  C   UNL     1      47.014   2.231   6.977  0.00  0.00    +0.000 A 
ATOM     17  C   UNL     1      46.238   1.521   7.886  0.00  0.00    +0.000 A 
ATOM     18  C   UNL     1      45.361   2.216   8.714  0.00  0.00    +0.000 A 
BRANCH  18  19
ATOM     19  O   UNL     1      44.583   1.540   9.609  0.00  0.00    +0.000 OA
ATOM     20  H   UNL     1      44.735   1.908  10.495  0.00  0.00    +0.000 HD
ENDBRANCH  18  19
ENDBRANCH  12  13
ENDBRANCH   4  12
TORSDOF 4
ENDMDL
MODEL 4
REMARK VINA RESULT:    -6.816      2.025      6.240
REMARK INTER + INTRA:          -8.579
REMARK INTER:                  -8.244
REMARK INTRA:                  -0.335
REMARK UNBOUND:                -0.368
REMARK  Name = 
REMARK  4 active torsions:
REMARK  status: ('A' for Active; 'I' for Inactive)
REMARK    1  A    between atoms: C_2  and  C_4
REMARK    2  A    between atoms: C_7  and  C_8
REMARK    3  A    between atoms: C_8  and  C_9
REMARK    4  A    between atoms: C_14  and  O_15
REMARK                            x       y       z     vdW  Elec       q    Type
REMARK                         _______ _______ _______ _____ _____    ______ ____
ROOT
ATOM      1  C   UNL     1      45.923   5.667  12.069  0.00  0.00    +0.000 A 
ATOM      2  C   UNL     1      46.122   6.233  10.802  0.00  0.00    +0.000 A 
ATOM      3  C   UNL     1      45.706   5.549   9.656  0.00  0.00    +0.000 A 
ATOM      4  C   UNL     1      45.089   4.295   9.758  0.00  0.00    +0.000 A 
ATOM      5  C   UNL     1      44.910   3.734  11.028  0.00  0.00    +0.000 A 
ATOM      6  C   UNL     1      45.326   4.411  12.180  0.00  0.00    +0.000 A 
ENDROOT
BRANCH   1   8
ATOM      7  N   UNL     1      46.738   5.592  14.358  0.00  0.00    +0.000 N 
ATOM      8  C   UNL     1      46.348   6.373  13.306  0.00  0.00    +0.000 C 
ATOM      9  O   UNL     1      46.388   7.595  13.373  0.00  0.00    +0.000 OA
ATOM     10  H   UNL     1      47.134   6.076  15.153  0.00  0.00    +0.000 HD
ATOM     11  H   UNL     1      46.962   4.613  14.242  0.00  0.00    +0.000 HD
ENDBRANCH   1   8
BRANCH   4  12
ATOM     12  C   UNL     1      44.680   3.529   8.513  0.00  0.00    +0.000 C 
BRANCH  12  13
ATOM     13  C   UNL     1      45.782   2.641   7.976  0.00  0.00    +0.000 A 
ATOM     14  N   UNL     1      45.792   1.348   8.404  0.00  0.00    +0.000 NA
ATOM     15  C   UNL     1      46.689   0.512   7.836  0.00  0.00    +0.000 A 
ATOM     16  C   UNL     1      47.583   0.893   6.849  0.00  0.00    +0.000 A 
ATOM     17  C   UNL     1      47.588   2.223   6.442  0.00  0.00    +0.000 A 
ATOM     18  C   UNL     1      46.684   3.110   7.019  0.00  0.00    +0.000 A 
BRANCH  18  19
ATOM     19  O   UNL     1      46.675   4.422   6.641  0.00  0.00    +0.000 OA
ATOM     20  H   UNL     1      47.038   4.492   5.744  0.00  0.00    +0.000 HD
ENDBRANCH  18  19
ENDBRANCH  12  13
ENDBRANCH   4  12
TORSDOF 4
ENDMDL
MODEL 5
REMARK VINA RESULT:    -6.578      2.715      6.233
REMARK INTER + INTRA:          -8.292
REMARK INTER:                  -7.875
REMARK INTRA:                  -0.416
REMARK UNBOUND:                -0.368
REMARK  Name = 
REMARK  4 active torsions:
REMARK  status: ('A' for Active; 'I' for Inactive)
REMARK    1  A    between atoms: C_2  and  C_4
REMARK    2  A    between atoms: C_7  and  C_8
REMARK    3  A    between atoms: C_8  and  C_9
REMARK    4  A    between atoms: C_14  and  O_15
REMARK                            x       y       z     vdW  Elec       q    Type
REMARK                         _______ _______ _______ _____ _____    ______ ____
ROOT
ATOM      1  C   UNL     1      47.362   6.501  13.327  0.00  0.00    +0.000 A 
ATOM      2  C   UNL     1      46.870   7.354  12.329  0.00  0.00    +0.000 A 
ATOM      3  C   UNL     1      45.859   6.915  11.468  0.00  0.00    +0.000 A 
ATOM      4  C   UNL     1      45.328   5.624  11.590  0.00  0.00    +0.000 A 
ATOM      5  C   UNL     1      45.839   4.777  12.581  0.00  0.00    +0.000 A 
ATOM      6  C   UNL     1      46.853   5.208  13.445  0.00  0.00    +0.000 A 
ENDROOT
BRANCH   1   8
ATOM      7  N   UNL     1      48.027   7.434  15.471  0.00  0.00    +0.000 N 
ATOM      8  C   UNL     1      48.430   6.941  14.262  0.00  0.00    +0.000 C 
ATOM      9  O   UNL     1      49.618   6.830  13.984  0.00  0.00    +0.000 OA
ATOM     10  H   UNL     1      48.758   7.623  16.144  0.00  0.00    +0.000 HD
ATOM     11  H   UNL     1      47.090   7.293  15.819  0.00  0.00    +0.000 HD
ENDBRANCH   1   8
BRANCH   4  12
ATOM     12  C   UNL     1      44.265   5.129  10.626  0.00  0.00    +0.000 C 
BRANCH  12  13
ATOM     13  C   UNL     1      44.802   4.150   9.604  0.00  0.00    +0.000 A 
ATOM     14  N   UNL     1      45.572   4.666   8.606  0.00  0.00    +0.000 NA
ATOM     15  C   UNL     1      46.164   3.791   7.764  0.00  0.00    +0.000 A 
ATOM     16  C   UNL     1      46.036   2.416   7.862  0.00  0.00    +0.000 A 
ATOM     17  C   UNL     1      45.221   1.900   8.863  0.00  0.00    +0.000 A 
ATOM     18  C   UNL     1      44.588   2.777   9.739  0.00  0.00    +0.000 A 
BRANCH  18  19
ATOM     19  O   UNL     1      43.777   2.295  10.726  0.00  0.00    +0.000 OA
ATOM     20  H   UNL     1      44.288   1.686  11.282  0.00  0.00    +0.000 HD
ENDBRANCH  18  19
ENDBRANCH  12  13
ENDBRANCH   4  12
TORSDOF 4
ENDMDL
MODEL 6
REMARK VINA RESULT:    -5.561      3.507      4.847
REMARK INTER + INTRA:          -7.067
REMARK INTER:                  -6.744
REMARK INTRA:                  -0.323
REMARK UNBOUND:                -0.368
REMARK  Name = 
REMARK  4 active torsions:
REMARK  status: ('A' for Active; 'I' for Inactive)
REMARK    1  A    between atoms: C_2  and  C_4
REMARK    2  A    between atoms: C_7  and  C_8
REMARK    3  A    between atoms: C_8  and  C_9
REMARK    4  A    between atoms: C_14  and  O_15
REMARK                            x       y       z     vdW  Elec       q    Type
REMARK                         _______ _______ _______ _____ _____    ______ ____
ROOT
ATOM      1  C   UNL     1      44.907   3.885  11.647  0.00  0.00    +0.000 A 
ATOM      2  C   UNL     1      45.057   5.256  11.399  0.00  0.00    +0.000 A 
ATOM      3  C   UNL     1      45.976   6.006  12.138  0.00  0.00    +0.000 A 
ATOM      4  C   UNL     1      46.755   5.401  13.133  0.00  0.00    +0.000 A 
ATOM      5  C   UNL     1      46.585   4.034  13.382  0.00  0.00    +0.000 A 
ATOM      6  C   UNL     1      45.665   3.276  12.648  0.00  0.00    +0.000 A 
ENDROOT
BRANCH   1   8
ATOM      7  N   UNL     1      44.134   2.995   9.521  0.00  0.00    +0.000 N 
ATOM      8  C   UNL     1      43.944   3.059  10.873  0.00  0.00    +0.000 C 
ATOM      9  O   UNL     1      43.047   2.430  11.420  0.00  0.00    +0.000 OA
ATOM     10  H   UNL     1      43.549   2.342   9.016  0.00  0.00    +0.000 HD
ATOM     11  H   UNL     1      45.002   3.281   9.090  0.00  0.00    +0.000 HD
ENDBRANCH   1   8
BRANCH   4  12
ATOM     12  C   UNL     1      47.719   6.223  13.970  0.00  0.00    +0.000 C 
BRANCH  12  13
ATOM     13  C   UNL     1      48.309   7.394  13.213  0.00  0.00    +0.000 A 
ATOM     14  N   UNL     1      49.322   7.117  12.347  0.00  0.00    +0.000 NA
ATOM     15  C   UNL     1      49.770   8.129  11.571  0.00  0.00    +0.000 A 
ATOM     16  C   UNL     1      49.257   9.414  11.606  0.00  0.00    +0.000 A 
ATOM     17  C   UNL     1      48.247   9.697  12.518  0.00  0.00    +0.000 A 
ATOM     18  C   UNL     1      47.773   8.678  13.339  0.00  0.00    +0.000 A 
BRANCH  18  19
ATOM     19  O   UNL     1      46.786   8.931  14.248  0.00  0.00    +0.000 OA
ATOM     20  H   UNL     1      47.195   9.141  15.103  0.00  0.00    +0.000 HD
ENDBRANCH  18  19
ENDBRANCH  12  13
ENDBRANCH   4  12
TORSDOF 4
ENDMDL
MODEL 7
REMARK VINA RESULT:    -5.433      3.540      6.334
REMARK INTER + INTRA:          -6.912
REMARK INTER:                  -6.588
REMARK INTRA:                  -0.324
REMARK UNBOUND:                -0.368
REMARK  Name = 
REMARK  4 active torsions:
REMARK  status: ('A' for Active; 'I' for Inactive)
REMARK    1  A    between atoms: C_2  and  C_4
REMARK    2  A    between atoms: C_7  and  C_8
REMARK    3  A    between atoms: C_8  and  C_9
REMARK    4  A    between atoms: C_14  and  O_15
REMARK                            x       y       z     vdW  Elec       q    Type
REMARK                         _______ _______ _______ _____ _____    ______ ____
ROOT
ATOM      1  C   UNL     1      47.976   7.974  13.365  0.00  0.00    +0.000 A 
ATOM      2  C   UNL     1      46.838   8.764  13.576  0.00  0.00    +0.000 A 
ATOM      3  C   UNL     1      45.636   8.447  12.936  0.00  0.00    +0.000 A 
ATOM      4  C   UNL     1      45.554   7.343  12.077  0.00  0.00    +0.000 A 
ATOM      5  C   UNL     1      46.703   6.572  11.861  0.00  0.00    +0.000 A 
ATOM      6  C   UNL     1      47.910   6.883  12.497  0.00  0.00    +0.000 A 
ENDROOT
BRANCH   1   8
ATOM      7  N   UNL     1      50.306   7.427  13.792  0.00  0.00    +0.000 N 
ATOM      8  C   UNL     1      49.266   8.280  14.036  0.00  0.00    +0.000 C 
ATOM      9  O   UNL     1      49.409   9.271  14.742  0.00  0.00    +0.000 OA
ATOM     10  H   UNL     1      51.208   7.703  14.158  0.00  0.00    +0.000 HD
ATOM     11  H   UNL     1      50.289   6.770  13.025  0.00  0.00    +0.000 HD
ENDBRANCH   1   8
BRANCH   4  12
ATOM     12  C   UNL     1      44.264   7.026  11.343  0.00  0.00    +0.000 C 
BRANCH  12  13
ATOM     13  C   UNL     1      43.964   5.543  11.287  0.00  0.00    +0.000 A 
ATOM     14  N   UNL     1      44.384   4.874  10.178  0.00  0.00    +0.000 NA
ATOM     15  C   UNL     1      44.239   3.530  10.171  0.00  0.00    +0.000 A 
ATOM     16  C   UNL     1      43.699   2.806  11.221  0.00  0.00    +0.000 A 
ATOM     17  C   UNL     1      43.242   3.501  12.335  0.00  0.00    +0.000 A 
ATOM     18  C   UNL     1      43.366   4.887  12.366  0.00  0.00    +0.000 A 
BRANCH  18  19
ATOM     19  O   UNL     1      42.919   5.593  13.445  0.00  0.00    +0.000 OA
ATOM     20  H   UNL     1      41.962   5.730  13.354  0.00  0.00    +0.000 HD
ENDBRANCH  18  19
ENDBRANCH  12  13
ENDBRANCH   4  12
TORSDOF 4
ENDMDL
MODEL 8
REMARK VINA RESULT:    -5.196      4.498      5.788
REMARK INTER + INTRA:          -6.627
REMARK INTER:                  -6.281
REMARK INTRA:                  -0.346
REMARK UNBOUND:                -0.368
REMARK  Name = 
REMARK  4 active torsions:
REMARK  status: ('A' for Active; 'I' for Inactive)
REMARK    1  A    between atoms: C_2  and  C_4
REMARK    2  A    between atoms: C_7  and  C_8
REMARK    3  A    between atoms: C_8  and  C_9
REMARK    4  A    between atoms: C_14  and  O_15
REMARK                            x       y       z     vdW  Elec       q    Type
REMARK                         _______ _______ _______ _____ _____    ______ ____
ROOT
ATOM      1  C   UNL     1      44.390   5.505  12.088  0.00  0.00    +0.000 A 
ATOM      2  C   UNL     1      45.166   4.718  12.950  0.00  0.00    +0.000 A 
ATOM      3  C   UNL     1      46.449   5.136  13.316  0.00  0.00    +0.000 A 
ATOM      4  C   UNL     1      46.974   6.339  12.827  0.00  0.00    +0.000 A 
ATOM      5  C   UNL     1      46.195   7.108  11.954  0.00  0.00    +0.000 A 
ATOM      6  C   UNL     1      44.911   6.696  11.581  0.00  0.00    +0.000 A 
ENDROOT
BRANCH   1   8
ATOM      7  N   UNL     1      42.088   6.085  11.563  0.00  0.00    +0.000 N 
ATOM      8  C   UNL     1      43.020   5.092  11.686  0.00  0.00    +0.000 C 
ATOM      9  O   UNL     1      42.744   3.925  11.435  0.00  0.00    +0.000 OA
ATOM     10  H   UNL     1      41.193   5.813  11.179  0.00  0.00    +0.000 HD
ATOM     11  H   UNL     1      42.350   7.059  11.506  0.00  0.00    +0.000 HD
ENDBRANCH   1   8
BRANCH   4  12
ATOM     12  C   UNL     1      48.385   6.771  13.185  0.00  0.00    +0.000 C 
BRANCH  12  13
ATOM     13  C   UNL     1      48.540   7.136  14.645  0.00  0.00    +0.000 A 
ATOM     14  N   UNL     1      49.060   6.181  15.466  0.00  0.00    +0.000 NA
ATOM     15  C   UNL     1      49.324   6.536  16.742  0.00  0.00    +0.000 A 
ATOM     16  C   UNL     1      49.102   7.804  17.254  0.00  0.00    +0.000 A 
ATOM     17  C   UNL     1      48.540   8.763  16.418  0.00  0.00    +0.000 A 
ATOM     18  C   UNL     1      48.246   8.424  15.101  0.00  0.00    +0.000 A 
BRANCH  18  19
ATOM     19  O   UNL     1      47.686   9.345  14.264  0.00  0.00    +0.000 OA
ATOM     20  H   UNL     1      48.008   9.184  13.362  0.00  0.00    +0.000 HD
ENDBRANCH  18  19
ENDBRANCH  12  13
ENDBRANCH   4  12
TORSDOF 4
ENDMDL
MODEL 9
REMARK VINA RESULT:    -5.151      3.421      6.418
REMARK INTER + INTRA:          -6.573
REMARK INTER:                  -6.168
REMARK INTRA:                  -0.405
REMARK UNBOUND:                -0.368
REMARK  Name = 
REMARK  4 active torsions:
REMARK  status: ('A' for Active; 'I' for Inactive)
REMARK    1  A    between atoms: C_2  and  C_4
REMARK    2  A    between atoms: C_7  and  C_8
REMARK    3  A    between atoms: C_8  and  C_9
REMARK    4  A    between atoms: C_14  and  O_15
REMARK                            x       y       z     vdW  Elec       q    Type
REMARK                         _______ _______ _______ _____ _____    ______ ____
ROOT
ATOM      1  C   UNL     1      48.513   7.973  13.486  0.00  0.00    +0.000 A 
ATOM      2  C   UNL     1      48.468   6.967  12.510  0.00  0.00    +0.000 A 
ATOM      3  C   UNL     1      47.270   6.688  11.847  0.00  0.00    +0.000 A 
ATOM      4  C   UNL     1      46.103   7.403  12.148  0.00  0.00    +0.000 A 
ATOM      5  C   UNL     1      46.157   8.393  13.136  0.00  0.00    +0.000 A 
ATOM      6  C   UNL     1      47.353   8.678  13.806  0.00  0.00    +0.000 A 
ENDROOT
BRANCH   1   8
ATOM      7  N   UNL     1      50.114   9.620  14.280  0.00  0.00    +0.000 N 
ATOM      8  C   UNL     1      49.773   8.299  14.204  0.00  0.00    +0.000 C 
ATOM      9  O   UNL     1      50.455   7.434  14.739  0.00  0.00    +0.000 OA
ATOM     10  H   UNL     1      50.908   9.845  14.866  0.00  0.00    +0.000 HD
ATOM     11  H   UNL     1      49.450  10.355  14.083  0.00  0.00    +0.000 HD
ENDBRANCH   1   8
BRANCH   4  12
ATOM     12  C   UNL     1      44.790   7.068  11.464  0.00  0.00    +0.000 C 
BRANCH  12  13
ATOM     13  C   UNL     1      44.417   5.606  11.583  0.00  0.00    +0.000 A 
ATOM     14  N   UNL     1      43.937   5.191  12.788  0.00  0.00    +0.000 NA
ATOM     15  C   UNL     1      43.479   3.923  12.871  0.00  0.00    +0.000 A 
ATOM     16  C   UNL     1      43.467   3.035  11.809  0.00  0.00    +0.000 A 
ATOM     17  C   UNL     1      43.990   3.456  10.591  0.00  0.00    +0.000 A 
ATOM     18  C   UNL     1      44.480   4.753  10.478  0.00  0.00    +0.000 A 
BRANCH  18  19
ATOM     19  O   UNL     1      45.006   5.188   9.296  0.00  0.00    +0.000 OA
ATOM     20  H   UNL     1      45.163   6.144   9.356  0.00  0.00    +0.000 HD
ENDBRANCH  18  19
ENDBRANCH  12  13
ENDBRANCH   4  12
TORSDOF 4
ENDMDL
