MODEL 1
REMARK VINA RESULT:    -8.098      0.000      0.000
REMARK INTER + INTRA:         -11.874
REMARK INTER:                 -10.939
REMARK INTRA:                  -0.935
REMARK UNBOUND:                -0.935
REMARK  Name = 
REMARK  7 active torsions:
REMARK  status: ('A' for Active; 'I' for Inactive)
REMARK    1  A    between atoms: C_1  and  C_2
REMARK    2  A    between atoms: C_5  and  C_6
REMARK    3  A    between atoms: N_8  and  C_9
REMARK    4  A    between atoms: C_9  and  C_10
REMARK    5  A    between atoms: C_13  and  C_14
REMARK    6  A    between atoms: C_14  and  N_15
REMARK    7  A    between atoms: C_16  and  C_18
REMARK                            x       y       z     vdW  Elec       q    Type
REMARK                         _______ _______ _______ _____ _____    ______ ____
ROOT
ATOM      1  C   UNL     1      44.814   6.114  11.076  0.00  0.00    +0.000 A 
ATOM      2  C   UNL     1      44.502   7.443  11.400  0.00  0.00    +0.000 A 
ATOM      3  C   UNL     1      45.309   8.180  12.282  0.00  0.00    +0.000 A 
ATOM      4  C   UNL     1      46.463   7.616  12.842  0.00  0.00    +0.000 A 
ATOM      5  C   UNL     1      46.773   6.288  12.521  0.00  0.00    +0.000 A 
ATOM      6  C   UNL     1      45.966   5.550  11.642  0.00  0.00    +0.000 A 
ENDROOT
BRANCH   1   7
ATOM      7  C   UNL     1      43.933   5.311  10.146  0.00  0.00    +0.000 C 
BRANCH   7  10
ATOM      8  C   UNL     1      44.764   3.113   9.373  0.00  0.00    +0.000 C 
ATOM      9  O   UNL     1      44.180   2.503  10.269  0.00  0.00    +0.000 OA
ATOM     10  N   UNL     1      44.694   4.484   9.246  0.00  0.00    +0.000 N 
ATOM     11  H   UNL     1      45.164   4.898   8.448  0.00  0.00    +0.000 HD
BRANCH   8  16
ATOM     12  C   UNL     1      47.173   2.948   5.187  0.00  0.00    +0.000 C 
ATOM     13  C   UNL     1      46.689   2.363   6.455  0.00  0.00    +0.000 A 
ATOM     14  C   UNL     1      46.837   1.131   7.050  0.00  0.00    +0.000 A 
ATOM     15  C   UNL     1      46.124   1.195   8.276  0.00  0.00    +0.000 A 
ATOM     16  C   UNL     1      45.580   2.465   8.359  0.00  0.00    +0.000 A 
ATOM     17  O   UNL     1      45.928   3.177   7.238  0.00  0.00    +0.000 OA
ENDBRANCH   8  16
ENDBRANCH   7  10
ENDBRANCH   1   7
BRANCH   4  18
ATOM     18  C   UNL     1      47.348   8.409  13.778  0.00  0.00    +0.000 C 
BRANCH  18  19
ATOM     19  N   UNL     1      47.747   7.644  14.931  0.00  0.00    +0.000 N 
ATOM     20  C   UNL     1      48.968   7.023  15.006  0.00  0.00    +0.000 C 
ATOM     21  O   UNL     1      49.800   7.107  14.106  0.00  0.00    +0.000 OA
ATOM     22  H   UNL     1      47.003   7.338  15.554  0.00  0.00    +0.000 HD
BRANCH  20  23
ATOM     23  C   UNL     1      49.259   6.300  16.253  0.00  0.00    +0.000 A 
ATOM     24  C   UNL     1      50.288   6.728  17.083  0.00  0.00    +0.000 A 
ATOM     25  S   UNL     1      50.456   5.794  18.503  0.00  0.00    +0.000 S 
ATOM     26  C   UNL     1      49.194   4.753  18.033  0.00  0.00    +0.000 A 
ATOM     27  N   UNL     1      48.837   3.691  18.804  0.00  0.00    +0.000 NA
ATOM     28  C   UNL     1      47.882   2.972  18.313  0.00  0.00    +0.000 A 
ATOM     29  N   UNL     1      47.249   3.226  17.125  0.00  0.00    +0.000 N 
ATOM     30  C   UNL     1      47.550   4.306  16.333  0.00  0.00    +0.000 A 
ATOM     31  O   UNL     1      46.919   4.538  15.307  0.00  0.00    +0.000 OA
ATOM     32  C   UNL     1      48.633   5.131  16.826  0.00  0.00    +0.000 A 
ATOM     33  H   UNL     1      46.494   2.636  16.805  0.00  0.00    +0.000 HD
ENDBRANCH  20  23
ENDBRANCH  18  19
ENDBRANCH   4  18
TORSDOF 6
ENDMDL
MODEL 2
REMARK VINA RESULT:    -7.701      1.794      2.092
REMARK INTER + INTRA:         -11.337
REMARK INTER:                 -10.469
REMARK INTRA:                  -0.868
REMARK UNBOUND:                -0.935
REMARK  Name = 
REMARK  7 active torsions:
REMARK  status: ('A' for Active; 'I' for Inactive)
REMARK    1  A    between atoms: C_1  and  C_2
REMARK    2  A    between atoms: C_5  and  C_6
REMARK    3  A    between atoms: N_8  and  C_9
REMARK    4  A    between atoms: C_9  and  C_10
REMARK    5  A    between atoms: C_13  and  C_14
REMARK    6  A    between atoms: C_14  and  N_15
REMARK    7  A    between atoms: C_16  and  C_18
REMARK                            x       y       z     vdW  Elec       q    Type
REMARK                         _______ _______ _______ _____ _____    ______ ____
ROOT
ATOM      1  C   UNL     1      44.797   4.924  11.885  0.00  0.00    +0.000 A 
ATOM      2  C   UNL     1      44.294   6.151  11.429  0.00  0.00    +0.000 A 
ATOM      3  C   UNL     1      44.871   7.365  11.837  0.00  0.00    +0.000 A 
ATOM      4  C   UNL     1      45.982   7.382  12.691  0.00  0.00    +0.000 A 
ATOM      5  C   UNL     1      46.483   6.156  13.149  0.00  0.00    +0.000 A 
ATOM      6  C   UNL     1      45.905   4.943  12.744  0.00  0.00    +0.000 A 
ENDROOT
BRANCH   1   7
ATOM      7  C   UNL     1      44.163   3.617  11.465  0.00  0.00    +0.000 C 
BRANCH   7  10
ATOM      8  C   UNL     1      44.852   3.247   9.119  0.00  0.00    +0.000 C 
ATOM      9  O   UNL     1      44.116   4.137   8.692  0.00  0.00    +0.000 OA
ATOM     10  N   UNL     1      44.931   2.931  10.458  0.00  0.00    +0.000 N 
ATOM     11  H   UNL     1      45.601   2.220  10.727  0.00  0.00    +0.000 HD
BRANCH   8  16
ATOM     12  C   UNL     1      47.794   2.517   5.355  0.00  0.00    +0.000 C 
ATOM     13  C   UNL     1      47.061   2.079   6.561  0.00  0.00    +0.000 A 
ATOM     14  C   UNL     1      46.960   0.880   7.228  0.00  0.00    +0.000 A 
ATOM     15  C   UNL     1      46.093   1.110   8.329  0.00  0.00    +0.000 A 
ATOM     16  C   UNL     1      45.714   2.439   8.269  0.00  0.00    +0.000 A 
ATOM     17  O   UNL     1      46.308   3.029   7.182  0.00  0.00    +0.000 OA
ENDBRANCH   8  16
ENDBRANCH   7  10
ENDBRANCH   1   7
BRANCH   4  18
ATOM     18  C   UNL     1      46.621   8.684  13.121  0.00  0.00    +0.000 C 
BRANCH  18  19
ATOM     19  N   UNL     1      47.016   8.666  14.506  0.00  0.00    +0.000 N 
ATOM     20  C   UNL     1      48.334   8.650  14.887  0.00  0.00    +0.000 C 
ATOM     21  O   UNL     1      49.250   8.675  14.070  0.00  0.00    +0.000 OA
ATOM     22  H   UNL     1      46.308   8.379  15.178  0.00  0.00    +0.000 HD
BRANCH  20  23
ATOM     23  C   UNL     1      48.597   8.664  16.334  0.00  0.00    +0.000 A 
ATOM     24  C   UNL     1      48.615   9.868  17.027  0.00  0.00    +0.000 A 
ATOM     25  S   UNL     1      48.897   9.690  18.702  0.00  0.00    +0.000 S 
ATOM     26  C   UNL     1      49.058   8.003  18.551  0.00  0.00    +0.000 A 
ATOM     27  N   UNL     1      49.343   7.225  19.630  0.00  0.00    +0.000 NA
ATOM     28  C   UNL     1      49.462   5.966  19.365  0.00  0.00    +0.000 A 
ATOM     29  N   UNL     1      49.312   5.416  18.119  0.00  0.00    +0.000 N 
ATOM     30  C   UNL     1      48.987   6.155  17.009  0.00  0.00    +0.000 A 
ATOM     31  O   UNL     1      48.799   5.620  15.922  0.00  0.00    +0.000 OA
ATOM     32  C   UNL     1      48.868   7.579  17.247  0.00  0.00    +0.000 A 
ATOM     33  H   UNL     1      49.398   4.419  17.981  0.00  0.00    +0.000 HD
ENDBRANCH  20  23
ENDBRANCH  18  19
ENDBRANCH   4  18
TORSDOF 6
ENDMDL
MODEL 3
REMARK VINA RESULT:    -7.561      4.888      9.889
REMARK INTER + INTRA:         -11.148
REMARK INTER:                 -10.336
REMARK INTRA:                  -0.812
REMARK UNBOUND:                -0.935
REMARK  Name = 
REMARK  7 active torsions:
REMARK  status: ('A' for Active; 'I' for Inactive)
REMARK    1  A    between atoms: C_1  and  C_2
REMARK    2  A    between atoms: C_5  and  C_6
REMARK    3  A    between atoms: N_8  and  C_9
REMARK    4  A    between atoms: C_9  and  C_10
REMARK    5  A    between atoms: C_13  and  C_14
REMARK    6  A    between atoms: C_14  and  N_15
REMARK    7  A    between atoms: C_16  and  C_18
REMARK                            x       y       z     vdW  Elec       q    Type
REMARK                         _______ _______ _______ _____ _____    ______ ____
ROOT
ATOM      1  C   UNL     1      51.441   3.126  17.759  0.00  0.00    +0.000 A 
ATOM      2  C   UNL     1      50.754   2.049  17.180  0.00  0.00    +0.000 A 
ATOM      3  C   UNL     1      49.373   2.124  16.931  0.00  0.00    +0.000 A 
ATOM      4  C   UNL     1      48.651   3.287  17.230  0.00  0.00    +0.000 A 
ATOM      5  C   UNL     1      49.337   4.362  17.810  0.00  0.00    +0.000 A 
ATOM      6  C   UNL     1      50.716   4.286  18.062  0.00  0.00    +0.000 A 
ENDROOT
BRANCH   1   7
ATOM      7  C   UNL     1      52.923   3.039  18.050  0.00  0.00    +0.000 C 
BRANCH   7  10
ATOM      8  C   UNL     1      54.182   0.919  17.854  0.00  0.00    +0.000 C 
ATOM      9  O   UNL     1      54.687   1.240  16.778  0.00  0.00    +0.000 OA
ATOM     10  N   UNL     1      53.311   1.741  18.537  0.00  0.00    +0.000 N 
ATOM     11  H   UNL     1      52.984   1.418  19.441  0.00  0.00    +0.000 HD
BRANCH   8  16
ATOM     12  C   UNL     1      52.898  -3.208  20.016  0.00  0.00    +0.000 C 
ATOM     13  C   UNL     1      53.890  -2.237  19.510  0.00  0.00    +0.000 A 
ATOM     14  C   UNL     1      55.266  -2.205  19.494  0.00  0.00    +0.000 A 
ATOM     15  C   UNL     1      55.627  -0.989  18.857  0.00  0.00    +0.000 A 
ATOM     16  C   UNL     1      54.448  -0.346  18.522  0.00  0.00    +0.000 A 
ATOM     17  O   UNL     1      53.386  -1.115  18.926  0.00  0.00    +0.000 OA
ENDBRANCH   8  16
ENDBRANCH   7  10
ENDBRANCH   1   7
BRANCH   4  18
ATOM     18  C   UNL     1      47.168   3.383  16.947  0.00  0.00    +0.000 C 
BRANCH  18  19
ATOM     19  N   UNL     1      46.868   4.364  15.936  0.00  0.00    +0.000 N 
ATOM     20  C   UNL     1      46.985   4.089  14.597  0.00  0.00    +0.000 C 
ATOM     21  O   UNL     1      47.327   2.984  14.185  0.00  0.00    +0.000 OA
ATOM     22  H   UNL     1      46.847   5.336  16.236  0.00  0.00    +0.000 HD
BRANCH  20  23
ATOM     23  C   UNL     1      46.617   5.171  13.672  0.00  0.00    +0.000 A 
ATOM     24  C   UNL     1      47.519   6.193  13.401  0.00  0.00    +0.000 A 
ATOM     25  S   UNL     1      46.937   7.339  12.276  0.00  0.00    +0.000 S 
ATOM     26  C   UNL     1      45.440   6.539  12.152  0.00  0.00    +0.000 A 
ATOM     27  N   UNL     1      44.447   7.025  11.360  0.00  0.00    +0.000 NA
ATOM     28  C   UNL     1      43.358   6.331  11.381  0.00  0.00    +0.000 A 
ATOM     29  N   UNL     1      43.177   5.190  12.118  0.00  0.00    +0.000 N 
ATOM     30  C   UNL     1      44.161   4.642  12.902  0.00  0.00    +0.000 A 
ATOM     31  O   UNL     1      43.984   3.585  13.499  0.00  0.00    +0.000 OA
ATOM     32  C   UNL     1      45.397   5.397  12.933  0.00  0.00    +0.000 A 
ATOM     33  H   UNL     1      42.305   4.680  12.077  0.00  0.00    +0.000 HD
ENDBRANCH  20  23
ENDBRANCH  18  19
ENDBRANCH   4  18
TORSDOF 6
ENDMDL
MODEL 4
REMARK VINA RESULT:    -7.238      1.806      2.121
REMARK INTER + INTRA:         -10.712
REMARK INTER:                  -9.744
REMARK INTRA:                  -0.968
REMARK UNBOUND:                -0.935
REMARK  Name = 
REMARK  7 active torsions:
REMARK  status: ('A' for Active; 'I' for Inactive)
REMARK    1  A    between atoms: C_1  and  C_2
REMARK    2  A    between atoms: C_5  and  C_6
REMARK    3  A    between atoms: N_8  and  C_9
REMARK    4  A    between atoms: C_9  and  C_10
REMARK    5  A    between atoms: C_13  and  C_14
REMARK    6  A    between atoms: C_14  and  N_15
REMARK    7  A    between atoms: C_16  and  C_18
REMARK                            x       y       z     vdW  Elec       q    Type
REMARK                         _______ _______ _______ _____ _____    ______ ____
ROOT
ATOM      1  C   UNL     1      45.074   6.268  11.210  0.00  0.00    +0.000 A 
ATOM      2  C   UNL     1      44.711   7.516  11.738  0.00  0.00    +0.000 A 
ATOM      3  C   UNL     1      45.554   8.193  12.634  0.00  0.00    +0.000 A 
ATOM      4  C   UNL     1      46.792   7.653  13.005  0.00  0.00    +0.000 A 
ATOM      5  C   UNL     1      47.153   6.405  12.481  0.00  0.00    +0.000 A 
ATOM      6  C   UNL     1      46.310   5.726  11.587  0.00  0.00    +0.000 A 
ENDROOT
BRANCH   1   7
ATOM      7  C   UNL     1      44.157   5.526  10.263  0.00  0.00    +0.000 C 
BRANCH   7  10
ATOM      8  C   UNL     1      44.718   3.274   9.408  0.00  0.00    +0.000 C 
ATOM      9  O   UNL     1      43.951   2.713  10.191  0.00  0.00    +0.000 OA
ATOM     10  N   UNL     1      44.876   4.643   9.382  0.00  0.00    +0.000 N 
ATOM     11  H   UNL     1      45.489   5.024   8.670  0.00  0.00    +0.000 HD
BRANCH   8  16
ATOM     12  C   UNL     1      47.356   2.940   5.373  0.00  0.00    +0.000 C 
ATOM     13  C   UNL     1      46.741   2.386   6.597  0.00  0.00    +0.000 A 
ATOM     14  C   UNL     1      46.735   1.137   7.175  0.00  0.00    +0.000 A 
ATOM     15  C   UNL     1      45.957   1.251   8.357  0.00  0.00    +0.000 A 
ATOM     16  C   UNL     1      45.531   2.566   8.432  0.00  0.00    +0.000 A 
ATOM     17  O   UNL     1      46.013   3.257   7.349  0.00  0.00    +0.000 OA
ENDBRANCH   8  16
ENDBRANCH   7  10
ENDBRANCH   1   7
BRANCH   4  18
ATOM     18  C   UNL     1      47.714   8.385  13.955  0.00  0.00    +0.000 C 
BRANCH  18  19
ATOM     19  N   UNL     1      47.876   7.686  15.205  0.00  0.00    +0.000 N 
ATOM     20  C   UNL     1      49.107   7.290  15.663  0.00  0.00    +0.000 C 
ATOM     21  O   UNL     1      50.141   7.531  15.047  0.00  0.00    +0.000 OA
ATOM     22  H   UNL     1      47.044   7.246  15.592  0.00  0.00    +0.000 HD
BRANCH  20  23
ATOM     23  C   UNL     1      49.132   6.613  16.968  0.00  0.00    +0.000 A 
ATOM     24  C   UNL     1      49.712   5.356  17.091  0.00  0.00    +0.000 A 
ATOM     25  S   UNL     1      49.686   4.742  18.684  0.00  0.00    +0.000 S 
ATOM     26  C   UNL     1      48.852   6.111  19.256  0.00  0.00    +0.000 A 
ATOM     27  N   UNL     1      48.481   6.212  20.561  0.00  0.00    +0.000 NA
ATOM     28  C   UNL     1      47.833   7.292  20.850  0.00  0.00    +0.000 A 
ATOM     29  N   UNL     1      47.531   8.282  19.952  0.00  0.00    +0.000 N 
ATOM     30  C   UNL     1      47.916   8.240  18.635  0.00  0.00    +0.000 A 
ATOM     31  O   UNL     1      47.683   9.173  17.874  0.00  0.00    +0.000 OA
ATOM     32  C   UNL     1      48.625   7.036  18.253  0.00  0.00    +0.000 A 
ATOM     33  H   UNL     1      47.037   9.113  20.245  0.00  0.00    +0.000 HD
ENDBRANCH  20  23
ENDBRANCH  18  19
ENDBRANCH   4  18
TORSDOF 6
ENDMDL
MODEL 5
REMARK VINA RESULT:    -7.105      4.934      9.891
REMARK INTER + INTRA:         -10.532
REMARK INTER:                  -9.439
REMARK INTRA:                  -1.093
REMARK UNBOUND:                -0.935
REMARK  Name = 
REMARK  7 active torsions:
REMARK  status: ('A' for Active; 'I' for Inactive)
REMARK    1  A    between atoms: C_1  and  C_2
REMARK    2  A    between atoms: C_5  and  C_6
REMARK    3  A    between atoms: N_8  and  C_9
REMARK    4  A    between atoms: C_9  and  C_10
REMARK    5  A    between atoms: C_13  and  C_14
REMARK    6  A    between atoms: C_14  and  N_15
REMARK    7  A    between atoms: C_16  and  C_18
REMARK                            x       y       z     vdW  Elec       q    Type
REMARK                         _______ _______ _______ _____ _____    ______ ____
ROOT
ATOM      1  C   UNL     1      51.629   3.031  17.777  0.00  0.00    +0.000 A 
ATOM      2  C   UNL     1      50.869   1.989  17.224  0.00  0.00    +0.000 A 
ATOM      3  C   UNL     1      49.489   2.137  17.010  0.00  0.00    +0.000 A 
ATOM      4  C   UNL     1      48.838   3.339  17.318  0.00  0.00    +0.000 A 
ATOM      5  C   UNL     1      49.596   4.378  17.874  0.00  0.00    +0.000 A 
ATOM      6  C   UNL     1      50.975   4.230  18.091  0.00  0.00    +0.000 A 
ENDROOT
BRANCH   1   7
ATOM      7  C   UNL     1      53.111   2.864  18.032  0.00  0.00    +0.000 C 
BRANCH   7  10
ATOM      8  C   UNL     1      54.240   0.674  17.825  0.00  0.00    +0.000 C 
ATOM      9  O   UNL     1      54.728   0.953  16.730  0.00  0.00    +0.000 OA
ATOM     10  N   UNL     1      53.440   1.552  18.524  0.00  0.00    +0.000 N 
ATOM     11  H   UNL     1      53.124   1.259  19.442  0.00  0.00    +0.000 HD
BRANCH   8  16
ATOM     12  C   UNL     1      52.821  -3.226  20.301  0.00  0.00    +0.000 C 
ATOM     13  C   UNL     1      53.834  -2.387  19.629  0.00  0.00    +0.000 A 
ATOM     14  C   UNL     1      55.190  -2.513  19.428  0.00  0.00    +0.000 A 
ATOM     15  C   UNL     1      55.591  -1.361  18.701  0.00  0.00    +0.000 A 
ATOM     16  C   UNL     1      54.455  -0.597  18.501  0.00  0.00    +0.000 A 
ATOM     17  O   UNL     1      53.381  -1.229  19.073  0.00  0.00    +0.000 OA
ENDBRANCH   8  16
ENDBRANCH   7  10
ENDBRANCH   1   7
BRANCH   4  18
ATOM     18  C   UNL     1      47.356   3.514  17.073  0.00  0.00    +0.000 C 
BRANCH  18  19
ATOM     19  N   UNL     1      47.083   4.516  16.075  0.00  0.00    +0.000 N 
ATOM     20  C   UNL     1      47.093   4.229  14.733  0.00  0.00    +0.000 C 
ATOM     21  O   UNL     1      47.309   3.097  14.309  0.00  0.00    +0.000 OA
ATOM     22  H   UNL     1      47.167   5.486  16.369  0.00  0.00    +0.000 HD
BRANCH  20  23
ATOM     23  C   UNL     1      46.767   5.338  13.824  0.00  0.00    +0.000 A 
ATOM     24  C   UNL     1      45.602   5.300  13.068  0.00  0.00    +0.000 A 
ATOM     25  S   UNL     1      45.368   6.688  12.101  0.00  0.00    +0.000 S 
ATOM     26  C   UNL     1      46.841   7.365  12.619  0.00  0.00    +0.000 A 
ATOM     27  N   UNL     1      47.271   8.562  12.138  0.00  0.00    +0.000 NA
ATOM     28  C   UNL     1      48.417   8.943  12.598  0.00  0.00    +0.000 A 
ATOM     29  N   UNL     1      49.166   8.235  13.502  0.00  0.00    +0.000 N 
ATOM     30  C   UNL     1      48.755   7.042  14.042  0.00  0.00    +0.000 A 
ATOM     31  O   UNL     1      49.422   6.468  14.896  0.00  0.00    +0.000 OA
ATOM     32  C   UNL     1      47.486   6.558  13.539  0.00  0.00    +0.000 A 
ATOM     33  H   UNL     1      50.047   8.597  13.839  0.00  0.00    +0.000 HD
ENDBRANCH  20  23
ENDBRANCH  18  19
ENDBRANCH   4  18
TORSDOF 6
ENDMDL
MODEL 6
REMARK VINA RESULT:    -6.982      3.750      5.239
REMARK INTER + INTRA:         -10.366
REMARK INTER:                  -9.235
REMARK INTRA:                  -1.131
REMARK UNBOUND:                -0.935
REMARK  Name = 
REMARK  7 active torsions:
REMARK  status: ('A' for Active; 'I' for Inactive)
REMARK    1  A    between atoms: C_1  and  C_2
REMARK    2  A    between atoms: C_5  and  C_6
REMARK    3  A    between atoms: N_8  and  C_9
REMARK    4  A    between atoms: C_9  and  C_10
REMARK    5  A    between atoms: C_13  and  C_14
REMARK    6  A    between atoms: C_14  and  N_15
REMARK    7  A    between atoms: C_16  and  C_18
REMARK                            x       y       z     vdW  Elec       q    Type
REMARK                         _______ _______ _______ _____ _____    ______ ____
ROOT
ATOM      1  C   UNL     1      45.131   6.735  11.816  0.00  0.00    +0.000 A 
ATOM      2  C   UNL     1      46.279   6.195  12.414  0.00  0.00    +0.000 A 
ATOM      3  C   UNL     1      47.171   7.010  13.131  0.00  0.00    +0.000 A 
ATOM      4  C   UNL     1      46.924   8.381  13.289  0.00  0.00    +0.000 A 
ATOM      5  C   UNL     1      45.780   8.921  12.688  0.00  0.00    +0.000 A 
ATOM      6  C   UNL     1      44.889   8.107  11.970  0.00  0.00    +0.000 A 
ENDROOT
BRANCH   1   7
ATOM      7  C   UNL     1      44.182   5.864  11.024  0.00  0.00    +0.000 C 
BRANCH   7  10
ATOM      8  C   UNL     1      44.556   3.743   9.806  0.00  0.00    +0.000 C 
ATOM      9  O   UNL     1      43.678   3.151  10.434  0.00  0.00    +0.000 OA
ATOM     10  N   UNL     1      44.862   5.068  10.035  0.00  0.00    +0.000 N 
ATOM     11  H   UNL     1      45.563   5.490   9.437  0.00  0.00    +0.000 HD
BRANCH   8  16
ATOM     12  C   UNL     1      46.770   0.023   7.659  0.00  0.00    +0.000 C 
ATOM     13  C   UNL     1      46.373   1.443   7.759  0.00  0.00    +0.000 A 
ATOM     14  C   UNL     1      46.597   2.550   6.973  0.00  0.00    +0.000 A 
ATOM     15  C   UNL     1      45.943   3.633   7.616  0.00  0.00    +0.000 A 
ATOM     16  C   UNL     1      45.356   3.123   8.762  0.00  0.00    +0.000 A 
ATOM     17  O   UNL     1      45.624   1.780   8.846  0.00  0.00    +0.000 OA
ENDBRANCH   8  16
ENDBRANCH   7  10
ENDBRANCH   1   7
BRANCH   4  18
ATOM     18  C   UNL     1      47.870   9.262  14.075  0.00  0.00    +0.000 C 
BRANCH  18  19
ATOM     19  N   UNL     1      49.185   9.312  13.487  0.00  0.00    +0.000 N 
ATOM     20  C   UNL     1      49.514  10.224  12.517  0.00  0.00    +0.000 C 
ATOM     21  O   UNL     1      48.716  11.066  12.114  0.00  0.00    +0.000 OA
ATOM     22  H   UNL     1      49.764   8.484  13.598  0.00  0.00    +0.000 HD
BRANCH  20  23
ATOM     23  C   UNL     1      50.899  10.185  12.025  0.00  0.00    +0.000 A 
ATOM     24  C   UNL     1      51.701  11.317  12.110  0.00  0.00    +0.000 A 
ATOM     25  S   UNL     1      53.288  11.077  11.528  0.00  0.00    +0.000 S 
ATOM     26  C   UNL     1      52.945   9.468  11.094  0.00  0.00    +0.000 A 
ATOM     27  N   UNL     1      53.884   8.685  10.499  0.00  0.00    +0.000 NA
ATOM     28  C   UNL     1      53.478   7.495  10.201  0.00  0.00    +0.000 A 
ATOM     29  N   UNL     1      52.219   7.017  10.452  0.00  0.00    +0.000 N 
ATOM     30  C   UNL     1      51.250   7.757  11.084  0.00  0.00    +0.000 A 
ATOM     31  O   UNL     1      50.154   7.276  11.349  0.00  0.00    +0.000 OA
ATOM     32  C   UNL     1      51.647   9.110  11.417  0.00  0.00    +0.000 A 
ATOM     33  H   UNL     1      51.968   6.068  10.213  0.00  0.00    +0.000 HD
ENDBRANCH  20  23
ENDBRANCH  18  19
ENDBRANCH   4  18
TORSDOF 6
ENDMDL
MODEL 7
REMARK VINA RESULT:    -6.959      2.228      3.059
REMARK INTER + INTRA:         -10.335
REMARK INTER:                  -9.420
REMARK INTRA:                  -0.915
REMARK UNBOUND:                -0.935
REMARK  Name = 
REMARK  7 active torsions:
REMARK  status: ('A' for Active; 'I' for Inactive)
REMARK    1  A    between atoms: C_1  and  C_2
REMARK    2  A    between atoms: C_5  and  C_6
REMARK    3  A    between atoms: N_8  and  C_9
REMARK    4  A    between atoms: C_9  and  C_10
REMARK    5  A    between atoms: C_13  and  C_14
REMARK    6  A    between atoms: C_14  and  N_15
REMARK    7  A    between atoms: C_16  and  C_18
REMARK                            x       y       z     vdW  Elec       q    Type
REMARK                         _______ _______ _______ _____ _____    ______ ____
ROOT
ATOM      1  C   UNL     1      45.712   6.482  11.870  0.00  0.00    +0.000 A 
ATOM      2  C   UNL     1      46.163   7.809  11.939  0.00  0.00    +0.000 A 
ATOM      3  C   UNL     1      47.070   8.212  12.932  0.00  0.00    +0.000 A 
ATOM      4  C   UNL     1      47.569   7.295  13.867  0.00  0.00    +0.000 A 
ATOM      5  C   UNL     1      47.116   5.971  13.800  0.00  0.00    +0.000 A 
ATOM      6  C   UNL     1      46.207   5.567  12.809  0.00  0.00    +0.000 A 
ENDROOT
BRANCH   1   7
ATOM      7  C   UNL     1      44.717   6.051  10.816  0.00  0.00    +0.000 C 
BRANCH   7  10
ATOM      8  C   UNL     1      44.800   3.905   9.589  0.00  0.00    +0.000 C 
ATOM      9  O   UNL     1      43.821   3.452  10.183  0.00  0.00    +0.000 OA
ATOM     10  N   UNL     1      45.299   5.165   9.841  0.00  0.00    +0.000 N 
ATOM     11  H   UNL     1      46.076   5.477   9.269  0.00  0.00    +0.000 HD
BRANCH   8  16
ATOM     12  C   UNL     1      46.789  -0.053   7.658  0.00  0.00    +0.000 C 
ATOM     13  C   UNL     1      46.442   1.383   7.659  0.00  0.00    +0.000 A 
ATOM     14  C   UNL     1      46.663   2.414   6.774  0.00  0.00    +0.000 A 
ATOM     15  C   UNL     1      46.075   3.568   7.355  0.00  0.00    +0.000 A 
ATOM     16  C   UNL     1      45.528   3.174   8.564  0.00  0.00    +0.000 A 
ATOM     17  O   UNL     1      45.758   1.834   8.747  0.00  0.00    +0.000 OA
ENDBRANCH   8  16
ENDBRANCH   7  10
ENDBRANCH   1   7
BRANCH   4  18
ATOM     18  C   UNL     1      48.560   7.717  14.928  0.00  0.00    +0.000 C 
BRANCH  18  19
ATOM     19  N   UNL     1      49.310   6.602  15.449  0.00  0.00    +0.000 N 
ATOM     20  C   UNL     1      49.150   6.154  16.736  0.00  0.00    +0.000 C 
ATOM     21  O   UNL     1      48.340   6.661  17.507  0.00  0.00    +0.000 OA
ATOM     22  H   UNL     1      50.154   6.345  14.942  0.00  0.00    +0.000 HD
BRANCH  20  23
ATOM     23  C   UNL     1      49.956   4.989  17.128  0.00  0.00    +0.000 A 
ATOM     24  C   UNL     1      49.343   3.762  17.356  0.00  0.00    +0.000 A 
ATOM     25  S   UNL     1      50.437   2.516  17.764  0.00  0.00    +0.000 S 
ATOM     26  C   UNL     1      51.761   3.583  17.702  0.00  0.00    +0.000 A 
ATOM     27  N   UNL     1      53.021   3.156  17.986  0.00  0.00    +0.000 NA
ATOM     28  C   UNL     1      53.925   4.077  17.925  0.00  0.00    +0.000 A 
ATOM     29  N   UNL     1      53.681   5.385  17.597  0.00  0.00    +0.000 N 
ATOM     30  C   UNL     1      52.434   5.854  17.267  0.00  0.00    +0.000 A 
ATOM     31  O   UNL     1      52.262   7.017  16.917  0.00  0.00    +0.000 OA
ATOM     32  C   UNL     1      51.378   4.864  17.345  0.00  0.00    +0.000 A 
ATOM     33  H   UNL     1      54.435   6.055  17.547  0.00  0.00    +0.000 HD
ENDBRANCH  20  23
ENDBRANCH  18  19
ENDBRANCH   4  18
TORSDOF 6
ENDMDL
MODEL 8
REMARK VINA RESULT:    -6.573      4.822      7.771
REMARK INTER + INTRA:          -9.814
REMARK INTER:                  -8.940
REMARK INTRA:                  -0.874
REMARK UNBOUND:                -0.935
REMARK  Name = 
REMARK  7 active torsions:
REMARK  status: ('A' for Active; 'I' for Inactive)
REMARK    1  A    between atoms: C_1  and  C_2
REMARK    2  A    between atoms: C_5  and  C_6
REMARK    3  A    between atoms: N_8  and  C_9
REMARK    4  A    between atoms: C_9  and  C_10
REMARK    5  A    between atoms: C_13  and  C_14
REMARK    6  A    between atoms: C_14  and  N_15
REMARK    7  A    between atoms: C_16  and  C_18
REMARK                            x       y       z     vdW  Elec       q    Type
REMARK                         _______ _______ _______ _____ _____    ______ ____
ROOT
ATOM      1  C   UNL     1      50.602   8.653  12.151  0.00  0.00    +0.000 A 
ATOM      2  C   UNL     1      50.013   7.394  12.338  0.00  0.00    +0.000 A 
ATOM      3  C   UNL     1      48.616   7.248  12.371  0.00  0.00    +0.000 A 
ATOM      4  C   UNL     1      47.774   8.354  12.193  0.00  0.00    +0.000 A 
ATOM      5  C   UNL     1      48.362   9.612  12.010  0.00  0.00    +0.000 A 
ATOM      6  C   UNL     1      49.758   9.758  11.979  0.00  0.00    +0.000 A 
ENDROOT
BRANCH   1   7
ATOM      7  C   UNL     1      52.106   8.815  12.139  0.00  0.00    +0.000 C 
BRANCH   7  10
ATOM      8  C   UNL     1      52.972   7.909  10.007  0.00  0.00    +0.000 C 
ATOM      9  O   UNL     1      52.610   8.894   9.364  0.00  0.00    +0.000 OA
ATOM     10  N   UNL     1      52.762   7.794  11.364  0.00  0.00    +0.000 N 
ATOM     11  H   UNL     1      53.140   6.972  11.823  0.00  0.00    +0.000 HD
BRANCH   8  16
ATOM     12  C   UNL     1      53.458   4.294   6.836  0.00  0.00    +0.000 C 
ATOM     13  C   UNL     1      53.906   5.115   7.980  0.00  0.00    +0.000 A 
ATOM     14  C   UNL     1      55.018   5.088   8.791  0.00  0.00    +0.000 A 
ATOM     15  C   UNL     1      54.860   6.153   9.716  0.00  0.00    +0.000 A 
ATOM     16  C   UNL     1      53.658   6.770   9.416  0.00  0.00    +0.000 A 
ATOM     17  O   UNL     1      53.076   6.128   8.352  0.00  0.00    +0.000 OA
ENDBRANCH   8  16
ENDBRANCH   7  10
ENDBRANCH   1   7
BRANCH   4  18
ATOM     18  C   UNL     1      46.269   8.203  12.209  0.00  0.00    +0.000 C 
BRANCH  18  19
ATOM     19  N   UNL     1      45.854   6.843  11.974  0.00  0.00    +0.000 N 
ATOM     20  C   UNL     1      44.623   6.537  11.451  0.00  0.00    +0.000 C 
ATOM     21  O   UNL     1      43.817   7.405  11.128  0.00  0.00    +0.000 OA
ATOM     22  H   UNL     1      46.371   6.118  12.467  0.00  0.00    +0.000 HD
BRANCH  20  23
ATOM     23  C   UNL     1      44.341   5.111  11.234  0.00  0.00    +0.000 A 
ATOM     24  C   UNL     1      43.576   4.403  12.154  0.00  0.00    +0.000 A 
ATOM     25  S   UNL     1      43.318   2.772  11.720  0.00  0.00    +0.000 S 
ATOM     26  C   UNL     1      44.263   2.939  10.314  0.00  0.00    +0.000 A 
ATOM     27  N   UNL     1      44.481   1.883   9.485  0.00  0.00    +0.000 NA
ATOM     28  C   UNL     1      45.237   2.147   8.471  0.00  0.00    +0.000 A 
ATOM     29  N   UNL     1      45.787   3.375   8.209  0.00  0.00    +0.000 N 
ATOM     30  C   UNL     1      45.564   4.477   8.995  0.00  0.00    +0.000 A 
ATOM     31  O   UNL     1      46.021   5.576   8.696  0.00  0.00    +0.000 OA
ATOM     32  C   UNL     1      44.742   4.229  10.162  0.00  0.00    +0.000 A 
ATOM     33  H   UNL     1      46.354   3.522   7.386  0.00  0.00    +0.000 HD
ENDBRANCH  20  23
ENDBRANCH  18  19
ENDBRANCH   4  18
TORSDOF 6
ENDMDL
MODEL 9
REMARK VINA RESULT:    -6.286      6.092      7.978
REMARK INTER + INTRA:          -9.427
REMARK INTER:                  -8.486
REMARK INTRA:                  -0.940
REMARK UNBOUND:                -0.935
REMARK  Name = 
REMARK  7 active torsions:
REMARK  status: ('A' for Active; 'I' for Inactive)
REMARK    1  A    between atoms: C_1  and  C_2
REMARK    2  A    between atoms: C_5  and  C_6
REMARK    3  A    between atoms: N_8  and  C_9
REMARK    4  A    between atoms: C_9  and  C_10
REMARK    5  A    between atoms: C_13  and  C_14
REMARK    6  A    between atoms: C_14  and  N_15
REMARK    7  A    between atoms: C_16  and  C_18
REMARK                            x       y       z     vdW  Elec       q    Type
REMARK                         _______ _______ _______ _____ _____    ______ ____
ROOT
ATOM      1  C   UNL     1      48.057   8.233  12.109  0.00  0.00    +0.000 A 
ATOM      2  C   UNL     1      49.050   7.269  11.876  0.00  0.00    +0.000 A 
ATOM      3  C   UNL     1      50.325   7.641  11.420  0.00  0.00    +0.000 A 
ATOM      4  C   UNL     1      50.648   8.988  11.210  0.00  0.00    +0.000 A 
ATOM      5  C   UNL     1      49.657   9.950  11.439  0.00  0.00    +0.000 A 
ATOM      6  C   UNL     1      48.381   9.579  11.892  0.00  0.00    +0.000 A 
ENDROOT
BRANCH   1   7
ATOM      7  C   UNL     1      46.676   7.832  12.577  0.00  0.00    +0.000 C 
BRANCH   7  10
ATOM      8  C   UNL     1      45.611   5.606  12.407  0.00  0.00    +0.000 C 
ATOM      9  O   UNL     1      45.573   5.457  13.629  0.00  0.00    +0.000 OA
ATOM     10  N   UNL     1      46.134   6.736  11.816  0.00  0.00    +0.000 N 
ATOM     11  H   UNL     1      46.078   6.798  10.806  0.00  0.00    +0.000 HD
BRANCH   8  16
ATOM     12  C   UNL     1      45.007   3.738   7.991  0.00  0.00    +0.000 C 
ATOM     13  C   UNL     1      44.821   3.746   9.458  0.00  0.00    +0.000 A 
ATOM     14  C   UNL     1      44.180   2.905  10.338  0.00  0.00    +0.000 A 
ATOM     15  C   UNL     1      44.365   3.467  11.629  0.00  0.00    +0.000 A 
ATOM     16  C   UNL     1      45.110   4.622  11.460  0.00  0.00    +0.000 A 
ATOM     17  O   UNL     1      45.385   4.789  10.127  0.00  0.00    +0.000 OA
ENDBRANCH   8  16
ENDBRANCH   7  10
ENDBRANCH   1   7
BRANCH   4  18
ATOM     18  C   UNL     1      52.025   9.399  10.736  0.00  0.00    +0.000 C 
BRANCH  18  19
ATOM     19  N   UNL     1      52.388   8.763   9.495  0.00  0.00    +0.000 N 
ATOM     20  C   UNL     1      53.640   8.891   8.951  0.00  0.00    +0.000 C 
ATOM     21  O   UNL     1      54.530   9.532   9.503  0.00  0.00    +0.000 OA
ATOM     22  H   UNL     1      51.622   8.462   8.897  0.00  0.00    +0.000 HD
BRANCH  20  23
ATOM     23  C   UNL     1      53.886   8.165   7.696  0.00  0.00    +0.000 A 
ATOM     24  C   UNL     1      54.171   8.865   6.530  0.00  0.00    +0.000 A 
ATOM     25  S   UNL     1      54.465   7.858   5.182  0.00  0.00    +0.000 S 
ATOM     26  C   UNL     1      54.171   6.454   6.097  0.00  0.00    +0.000 A 
ATOM     27  N   UNL     1      54.227   5.220   5.527  0.00  0.00    +0.000 NA
ATOM     28  C   UNL     1      53.957   4.246   6.333  0.00  0.00    +0.000 A 
ATOM     29  N   UNL     1      53.643   4.398   7.658  0.00  0.00    +0.000 N 
ATOM     30  C   UNL     1      53.612   5.619   8.285  0.00  0.00    +0.000 A 
ATOM     31  O   UNL     1      53.389   5.711   9.487  0.00  0.00    +0.000 OA
ATOM     32  C   UNL     1      53.883   6.748   7.418  0.00  0.00    +0.000 A 
ATOM     33  H   UNL     1      53.461   3.593   8.241  0.00  0.00    +0.000 HD
ENDBRANCH  20  23
ENDBRANCH  18  19
ENDBRANCH   4  18
TORSDOF 6
ENDMDL
