MODEL 1
REMARK VINA RESULT:    -6.283      0.000      0.000
REMARK INTER + INTRA:          -9.191
REMARK INTER:                  -8.119
REMARK INTRA:                  -1.071
REMARK UNBOUND:                -1.071
REMARK  Name = 
REMARK  5 active torsions:
REMARK  status: ('A' for Active; 'I' for Inactive)
REMARK    1  A    between atoms: C_2  and  C_19
REMARK    2  A    between atoms: N_3  and  C_4
REMARK    3  A    between atoms: C_4  and  C_5
REMARK    4  A    between atoms: C_8  and  C_9
REMARK    5  A    between atoms: C_10  and  C_11
REMARK                            x       y       z     vdW  Elec       q    Type
REMARK                         _______ _______ _______ _____ _____    ______ ____
ROOT
ATOM      1  O   UNL     1      52.181   5.562  18.123  0.00  0.00    +0.000 OA
ATOM      2  C   UNL     1      52.026   4.557  18.816  0.00  0.00    +0.000 C 
ATOM      3  N   UNL     1      50.813   4.218  19.358  0.00  0.00    +0.000 N 
ATOM      4  H   UNL     1      50.785   3.588  20.154  0.00  0.00    +0.000 HD
ENDROOT
BRANCH   2   5
ATOM      5  C   UNL     1      53.122   3.630  19.065  0.00  0.00    +0.000 A 
ATOM      6  C   UNL     1      54.201   3.978  19.863  0.00  0.00    +0.000 A 
ATOM      7  S   UNL     1      55.363   2.730  20.003  0.00  0.00    +0.000 S 
ATOM      8  C   UNL     1      54.439   1.687  19.024  0.00  0.00    +0.000 A 
ATOM      9  N   UNL     1      54.859   0.424  18.735  0.00  0.00    +0.000 NA
ATOM     10  C   UNL     1      54.041  -0.252  18.002  0.00  0.00    +0.000 A 
ATOM     11  N   UNL     1      52.843   0.206  17.529  0.00  0.00    +0.000 N 
ATOM     12  C   UNL     1      52.404   1.482  17.747  0.00  0.00    +0.000 A 
ATOM     13  O   UNL     1      51.381   1.888  17.215  0.00  0.00    +0.000 OA
ATOM     14  C   UNL     1      53.274   2.283  18.589  0.00  0.00    +0.000 A 
ATOM     15  H   UNL     1      52.258  -0.354  16.930  0.00  0.00    +0.000 HD
ENDBRANCH   2   5
BRANCH   3  16
ATOM     16  C   UNL     1      49.656   5.074  19.217  0.00  0.00    +0.000 C 
BRANCH  16  17
ATOM     17  C   UNL     1      48.872   4.782  17.959  0.00  0.00    +0.000 A 
ATOM     18  C   UNL     1      48.204   3.568  17.826  0.00  0.00    +0.000 A 
ATOM     19  C   UNL     1      47.485   3.313  16.661  0.00  0.00    +0.000 A 
ATOM     20  C   UNL     1      47.440   4.262  15.641  0.00  0.00    +0.000 A 
ATOM     21  C   UNL     1      48.157   5.437  15.856  0.00  0.00    +0.000 A 
ATOM     22  N   UNL     1      48.862   5.723  16.981  0.00  0.00    +0.000 NA
BRANCH  20  23
ATOM     23  C   UNL     1      46.738   4.044  14.367  0.00  0.00    +0.000 C 
ATOM     24  C   UNL     1      46.329   5.027  13.547  0.00  0.00    +0.000 C 
BRANCH  24  25
ATOM     25  C   UNL     1      45.619   4.811  12.277  0.00  0.00    +0.000 A 
ATOM     26  C   UNL     1      45.870   5.579  11.134  0.00  0.00    +0.000 A 
ATOM     27  C   UNL     1      45.221   5.298   9.930  0.00  0.00    +0.000 A 
ATOM     28  C   UNL     1      44.321   4.238   9.854  0.00  0.00    +0.000 A 
ATOM     29  C   UNL     1      44.067   3.460  10.981  0.00  0.00    +0.000 A 
ATOM     30  C   UNL     1      44.713   3.744  12.186  0.00  0.00    +0.000 A 
ENDBRANCH  24  25
ENDBRANCH  20  23
ENDBRANCH  16  17
ENDBRANCH   3  16
TORSDOF 5
ENDMDL
MODEL 2
REMARK VINA RESULT:    -6.248      4.974     10.061
REMARK INTER + INTRA:          -9.145
REMARK INTER:                  -8.380
REMARK INTRA:                  -0.765
REMARK UNBOUND:                -1.071
REMARK  Name = 
REMARK  5 active torsions:
REMARK  status: ('A' for Active; 'I' for Inactive)
REMARK    1  A    between atoms: C_2  and  C_19
REMARK    2  A    between atoms: N_3  and  C_4
REMARK    3  A    between atoms: C_4  and  C_5
REMARK    4  A    between atoms: C_8  and  C_9
REMARK    5  A    between atoms: C_10  and  C_11
REMARK                            x       y       z     vdW  Elec       q    Type
REMARK                         _______ _______ _______ _____ _____    ______ ____
ROOT
ATOM      1  O   UNL     1      45.416   7.787  12.027  0.00  0.00    +0.000 OA
ATOM      2  C   UNL     1      46.154   6.921  11.557  0.00  0.00    +0.000 C 
ATOM      3  N   UNL     1      47.517   6.957  11.705  0.00  0.00    +0.000 N 
ATOM      4  H   UNL     1      48.098   6.427  11.062  0.00  0.00    +0.000 HD
ENDROOT
BRANCH   2   5
ATOM      5  C   UNL     1      45.614   5.768  10.848  0.00  0.00    +0.000 A 
ATOM      6  C   UNL     1      45.854   5.568   9.498  0.00  0.00    +0.000 A 
ATOM      7  S   UNL     1      45.112   4.151   8.887  0.00  0.00    +0.000 S 
ATOM      8  C   UNL     1      44.478   3.759  10.419  0.00  0.00    +0.000 A 
ATOM      9  N   UNL     1      43.728   2.639  10.612  0.00  0.00    +0.000 NA
ATOM     10  C   UNL     1      43.339   2.467  11.830  0.00  0.00    +0.000 A 
ATOM     11  N   UNL     1      43.625   3.299  12.875  0.00  0.00    +0.000 N 
ATOM     12  C   UNL     1      44.328   4.461  12.720  0.00  0.00    +0.000 A 
ATOM     13  O   UNL     1      44.468   5.234  13.657  0.00  0.00    +0.000 OA
ATOM     14  C   UNL     1      44.814   4.696  11.373  0.00  0.00    +0.000 A 
ATOM     15  H   UNL     1      43.266   3.133  13.802  0.00  0.00    +0.000 HD
ENDBRANCH   2   5
BRANCH   3  16
ATOM     16  C   UNL     1      48.178   8.066  12.354  0.00  0.00    +0.000 C 
BRANCH  16  17
ATOM     17  C   UNL     1      48.932   7.645  13.593  0.00  0.00    +0.000 A 
ATOM     18  C   UNL     1      50.239   8.083  13.789  0.00  0.00    +0.000 A 
ATOM     19  C   UNL     1      50.923   7.687  14.936  0.00  0.00    +0.000 A 
ATOM     20  C   UNL     1      50.305   6.859  15.872  0.00  0.00    +0.000 A 
ATOM     21  C   UNL     1      49.004   6.454  15.578  0.00  0.00    +0.000 A 
ATOM     22  N   UNL     1      48.305   6.827  14.475  0.00  0.00    +0.000 NA
BRANCH  20  23
ATOM     23  C   UNL     1      50.979   6.366  17.082  0.00  0.00    +0.000 C 
ATOM     24  C   UNL     1      51.308   5.081  17.298  0.00  0.00    +0.000 C 
BRANCH  24  25
ATOM     25  C   UNL     1      51.974   4.585  18.512  0.00  0.00    +0.000 A 
ATOM     26  C   UNL     1      52.973   3.604  18.475  0.00  0.00    +0.000 A 
ATOM     27  C   UNL     1      53.627   3.208  19.644  0.00  0.00    +0.000 A 
ATOM     28  C   UNL     1      53.295   3.796  20.862  0.00  0.00    +0.000 A 
ATOM     29  C   UNL     1      52.308   4.779  20.913  0.00  0.00    +0.000 A 
ATOM     30  C   UNL     1      51.653   5.172  19.745  0.00  0.00    +0.000 A 
ENDBRANCH  24  25
ENDBRANCH  20  23
ENDBRANCH  16  17
ENDBRANCH   3  16
TORSDOF 5
ENDMDL
MODEL 3
REMARK VINA RESULT:    -5.837      1.770      2.402
REMARK INTER + INTRA:          -8.614
REMARK INTER:                  -7.666
REMARK INTRA:                  -0.948
REMARK UNBOUND:                -1.071
REMARK  Name = 
REMARK  5 active torsions:
REMARK  status: ('A' for Active; 'I' for Inactive)
REMARK    1  A    between atoms: C_2  and  C_19
REMARK    2  A    between atoms: N_3  and  C_4
REMARK    3  A    between atoms: C_4  and  C_5
REMARK    4  A    between atoms: C_8  and  C_9
REMARK    5  A    between atoms: C_10  and  C_11
REMARK                            x       y       z     vdW  Elec       q    Type
REMARK                         _______ _______ _______ _____ _____    ______ ____
ROOT
ATOM      1  O   UNL     1      51.604   6.162  19.365  0.00  0.00    +0.000 OA
ATOM      2  C   UNL     1      52.300   5.626  18.503  0.00  0.00    +0.000 C 
ATOM      3  N   UNL     1      52.475   6.169  17.256  0.00  0.00    +0.000 N 
ATOM      4  H   UNL     1      52.780   5.571  16.494  0.00  0.00    +0.000 HD
ENDROOT
BRANCH   2   5
ATOM      5  C   UNL     1      53.027   4.392  18.774  0.00  0.00    +0.000 A 
ATOM      6  C   UNL     1      54.188   4.384  19.531  0.00  0.00    +0.000 A 
ATOM      7  S   UNL     1      54.863   2.821  19.707  0.00  0.00    +0.000 S 
ATOM      8  C   UNL     1      53.605   2.117  18.800  0.00  0.00    +0.000 A 
ATOM      9  N   UNL     1      53.562   0.776  18.565  0.00  0.00    +0.000 NA
ATOM     10  C   UNL     1      52.537   0.391  17.883  0.00  0.00    +0.000 A 
ATOM     11  N   UNL     1      51.549   1.210  17.414  0.00  0.00    +0.000 N 
ATOM     12  C   UNL     1      51.576   2.567  17.578  0.00  0.00    +0.000 A 
ATOM     13  O   UNL     1      50.732   3.276  17.049  0.00  0.00    +0.000 OA
ATOM     14  C   UNL     1      52.696   3.057  18.361  0.00  0.00    +0.000 A 
ATOM     15  H   UNL     1      50.786   0.859  16.856  0.00  0.00    +0.000 HD
ENDBRANCH   2   5
BRANCH   3  16
ATOM     16  C   UNL     1      51.780   7.370  16.850  0.00  0.00    +0.000 C 
BRANCH  16  17
ATOM     17  C   UNL     1      50.590   7.078  15.967  0.00  0.00    +0.000 A 
ATOM     18  C   UNL     1      50.538   7.609  14.681  0.00  0.00    +0.000 A 
ATOM     19  C   UNL     1      49.434   7.332  13.876  0.00  0.00    +0.000 A 
ATOM     20  C   UNL     1      48.397   6.535  14.358  0.00  0.00    +0.000 A 
ATOM     21  C   UNL     1      48.529   6.067  15.664  0.00  0.00    +0.000 A 
ATOM     22  N   UNL     1      49.592   6.311  16.472  0.00  0.00    +0.000 NA
BRANCH  20  23
ATOM     23  C   UNL     1      47.184   6.237  13.583  0.00  0.00    +0.000 C 
ATOM     24  C   UNL     1      46.506   5.078  13.648  0.00  0.00    +0.000 C 
BRANCH  24  25
ATOM     25  C   UNL     1      45.297   4.775  12.866  0.00  0.00    +0.000 A 
ATOM     26  C   UNL     1      45.116   3.555  12.202  0.00  0.00    +0.000 A 
ATOM     27  C   UNL     1      43.925   3.282  11.526  0.00  0.00    +0.000 A 
ATOM     28  C   UNL     1      42.899   4.223  11.513  0.00  0.00    +0.000 A 
ATOM     29  C   UNL     1      43.062   5.438  12.174  0.00  0.00    +0.000 A 
ATOM     30  C   UNL     1      44.254   5.713  12.848  0.00  0.00    +0.000 A 
ENDBRANCH  24  25
ENDBRANCH  20  23
ENDBRANCH  16  17
ENDBRANCH   3  16
TORSDOF 5
ENDMDL
MODEL 4
REMARK VINA RESULT:    -5.833      5.683     10.500
REMARK INTER + INTRA:          -8.609
REMARK INTER:                  -7.748
REMARK INTRA:                  -0.861
REMARK UNBOUND:                -1.071
REMARK  Name = 
REMARK  5 active torsions:
REMARK  status: ('A' for Active; 'I' for Inactive)
REMARK    1  A    between atoms: C_2  and  C_19
REMARK    2  A    between atoms: N_3  and  C_4
REMARK    3  A    between atoms: C_4  and  C_5
REMARK    4  A    between atoms: C_8  and  C_9
REMARK    5  A    between atoms: C_10  and  C_11
REMARK                            x       y       z     vdW  Elec       q    Type
REMARK                         _______ _______ _______ _____ _____    ______ ____
ROOT
ATOM      1  O   UNL     1      44.425   7.464  11.546  0.00  0.00    +0.000 OA
ATOM      2  C   UNL     1      45.170   6.484  11.571  0.00  0.00    +0.000 C 
ATOM      3  N   UNL     1      46.512   6.588  11.835  0.00  0.00    +0.000 N 
ATOM      4  H   UNL     1      47.133   5.837  11.545  0.00  0.00    +0.000 HD
ENDROOT
BRANCH   2   5
ATOM      5  C   UNL     1      44.658   5.136  11.366  0.00  0.00    +0.000 A 
ATOM      6  C   UNL     1      43.889   4.497  12.325  0.00  0.00    +0.000 A 
ATOM      7  S   UNL     1      43.409   2.921  11.861  0.00  0.00    +0.000 S 
ATOM      8  C   UNL     1      44.194   3.067  10.357  0.00  0.00    +0.000 A 
ATOM      9  N   UNL     1      44.174   2.057   9.443  0.00  0.00    +0.000 NA
ATOM     10  C   UNL     1      44.793   2.327   8.344  0.00  0.00    +0.000 A 
ATOM     11  N   UNL     1      45.428   3.503   8.064  0.00  0.00    +0.000 N 
ATOM     12  C   UNL     1      45.521   4.525   8.968  0.00  0.00    +0.000 A 
ATOM     13  O   UNL     1      46.190   5.517   8.721  0.00  0.00    +0.000 OA
ATOM     14  C   UNL     1      44.820   4.288  10.217  0.00  0.00    +0.000 A 
ATOM     15  H   UNL     1      45.926   3.648   7.199  0.00  0.00    +0.000 HD
ENDBRANCH   2   5
BRANCH   3  16
ATOM     16  C   UNL     1      47.150   7.872  12.018  0.00  0.00    +0.000 C 
BRANCH  16  17
ATOM     17  C   UNL     1      48.354   7.795  12.926  0.00  0.00    +0.000 A 
ATOM     18  C   UNL     1      49.572   8.324  12.506  0.00  0.00    +0.000 A 
ATOM     19  C   UNL     1      50.674   8.246  13.354  0.00  0.00    +0.000 A 
ATOM     20  C   UNL     1      50.557   7.643  14.605  0.00  0.00    +0.000 A 
ATOM     21  C   UNL     1      49.305   7.123  14.928  0.00  0.00    +0.000 A 
ATOM     22  N   UNL     1      48.208   7.188  14.131  0.00  0.00    +0.000 NA
BRANCH  20  23
ATOM     23  C   UNL     1      51.687   7.486  15.533  0.00  0.00    +0.000 C 
ATOM     24  C   UNL     1      51.719   6.607  16.549  0.00  0.00    +0.000 C 
BRANCH  24  25
ATOM     25  C   UNL     1      52.845   6.455  17.484  0.00  0.00    +0.000 A 
ATOM     26  C   UNL     1      52.695   6.584  18.870  0.00  0.00    +0.000 A 
ATOM     27  C   UNL     1      53.775   6.368  19.727  0.00  0.00    +0.000 A 
ATOM     28  C   UNL     1      55.017   6.010  19.207  0.00  0.00    +0.000 A 
ATOM     29  C   UNL     1      55.180   5.870  17.831  0.00  0.00    +0.000 A 
ATOM     30  C   UNL     1      54.099   6.091  16.974  0.00  0.00    +0.000 A 
ENDBRANCH  24  25
ENDBRANCH  20  23
ENDBRANCH  16  17
ENDBRANCH   3  16
TORSDOF 5
ENDMDL
MODEL 5
REMARK VINA RESULT:    -5.580      7.557     10.374
REMARK INTER + INTRA:          -8.282
REMARK INTER:                  -7.609
REMARK INTRA:                  -0.674
REMARK UNBOUND:                -1.071
REMARK  Name = 
REMARK  5 active torsions:
REMARK  status: ('A' for Active; 'I' for Inactive)
REMARK    1  A    between atoms: C_2  and  C_19
REMARK    2  A    between atoms: N_3  and  C_4
REMARK    3  A    between atoms: C_4  and  C_5
REMARK    4  A    between atoms: C_8  and  C_9
REMARK    5  A    between atoms: C_10  and  C_11
REMARK                            x       y       z     vdW  Elec       q    Type
REMARK                         _______ _______ _______ _____ _____    ______ ____
ROOT
ATOM      1  O   UNL     1      45.840   5.724  13.806  0.00  0.00    +0.000 OA
ATOM      2  C   UNL     1      45.243   5.836  12.736  0.00  0.00    +0.000 C 
ATOM      3  N   UNL     1      45.093   7.041  12.100  0.00  0.00    +0.000 N 
ATOM      4  H   UNL     1      44.353   7.150  11.413  0.00  0.00    +0.000 HD
ENDROOT
BRANCH   2   5
ATOM      5  C   UNL     1      44.694   4.674  12.049  0.00  0.00    +0.000 A 
ATOM      6  C   UNL     1      43.888   3.756  12.703  0.00  0.00    +0.000 A 
ATOM      7  S   UNL     1      43.370   2.476  11.692  0.00  0.00    +0.000 S 
ATOM      8  C   UNL     1      44.188   3.134  10.351  0.00  0.00    +0.000 A 
ATOM      9  N   UNL     1      44.156   2.528   9.131  0.00  0.00    +0.000 NA
ATOM     10  C   UNL     1      44.804   3.158   8.211  0.00  0.00    +0.000 A 
ATOM     11  N   UNL     1      45.480   4.333   8.384  0.00  0.00    +0.000 N 
ATOM     12  C   UNL     1      45.585   4.950   9.600  0.00  0.00    +0.000 A 
ATOM     13  O   UNL     1      46.289   5.940   9.737  0.00  0.00    +0.000 OA
ATOM     14  C   UNL     1      44.853   4.299  10.671  0.00  0.00    +0.000 A 
ATOM     15  H   UNL     1      45.998   4.765   7.636  0.00  0.00    +0.000 HD
ENDBRANCH   2   5
BRANCH   3  16
ATOM     16  C   UNL     1      45.558   8.273  12.696  0.00  0.00    +0.000 C 
BRANCH  16  17
ATOM     17  C   UNL     1      46.970   8.617  12.285  0.00  0.00    +0.000 A 
ATOM     18  C   UNL     1      47.314   9.942  12.034  0.00  0.00    +0.000 A 
ATOM     19  C   UNL     1      48.620  10.245  11.655  0.00  0.00    +0.000 A 
ATOM     20  C   UNL     1      49.568   9.231  11.529  0.00  0.00    +0.000 A 
ATOM     21  C   UNL     1      49.125   7.934  11.780  0.00  0.00    +0.000 A 
ATOM     22  N   UNL     1      47.863   7.603  12.157  0.00  0.00    +0.000 NA
BRANCH  20  23
ATOM     23  C   UNL     1      50.951   9.470  11.092  0.00  0.00    +0.000 C 
ATOM     24  C   UNL     1      51.798   8.508  10.689  0.00  0.00    +0.000 C 
BRANCH  24  25
ATOM     25  C   UNL     1      53.185   8.745  10.261  0.00  0.00    +0.000 A 
ATOM     26  C   UNL     1      54.024   7.713   9.819  0.00  0.00    +0.000 A 
ATOM     27  C   UNL     1      55.312   7.991   9.359  0.00  0.00    +0.000 A 
ATOM     28  C   UNL     1      55.774   9.304   9.326  0.00  0.00    +0.000 A 
ATOM     29  C   UNL     1      54.949  10.342   9.755  0.00  0.00    +0.000 A 
ATOM     30  C   UNL     1      53.661  10.064  10.218  0.00  0.00    +0.000 A 
ENDBRANCH  24  25
ENDBRANCH  20  23
ENDBRANCH  16  17
ENDBRANCH   3  16
TORSDOF 5
ENDMDL
MODEL 6
REMARK VINA RESULT:    -5.392      5.411      6.514
REMARK INTER + INTRA:          -8.039
REMARK INTER:                  -7.033
REMARK INTRA:                  -1.007
REMARK UNBOUND:                -1.071
REMARK  Name = 
REMARK  5 active torsions:
REMARK  status: ('A' for Active; 'I' for Inactive)
REMARK    1  A    between atoms: C_2  and  C_19
REMARK    2  A    between atoms: N_3  and  C_4
REMARK    3  A    between atoms: C_4  and  C_5
REMARK    4  A    between atoms: C_8  and  C_9
REMARK    5  A    between atoms: C_10  and  C_11
REMARK                            x       y       z     vdW  Elec       q    Type
REMARK                         _______ _______ _______ _____ _____    ______ ____
ROOT
ATOM      1  O   UNL     1      50.683  10.534  17.003  0.00  0.00    +0.000 OA
ATOM      2  C   UNL     1      49.494  10.310  17.229  0.00  0.00    +0.000 C 
ATOM      3  N   UNL     1      48.545  10.310  16.239  0.00  0.00    +0.000 N 
ATOM      4  H   UNL     1      47.568  10.434  16.490  0.00  0.00    +0.000 HD
ENDROOT
BRANCH   2   5
ATOM      5  C   UNL     1      49.026   9.980  18.568  0.00  0.00    +0.000 A 
ATOM      6  C   UNL     1      49.015  10.920  19.587  0.00  0.00    +0.000 A 
ATOM      7  S   UNL     1      48.429  10.297  21.069  0.00  0.00    +0.000 S 
ATOM      8  C   UNL     1      48.149   8.766  20.377  0.00  0.00    +0.000 A 
ATOM      9  N   UNL     1      47.635   7.738  21.108  0.00  0.00    +0.000 NA
ATOM     10  C   UNL     1      47.459   6.650  20.439  0.00  0.00    +0.000 A 
ATOM     11  N   UNL     1      47.743   6.484  19.112  0.00  0.00    +0.000 N 
ATOM     12  C   UNL     1      48.310   7.468  18.351  0.00  0.00    +0.000 A 
ATOM     13  O   UNL     1      48.650   7.246  17.199  0.00  0.00    +0.000 OA
ATOM     14  C   UNL     1      48.508   8.727  19.046  0.00  0.00    +0.000 A 
ATOM     15  H   UNL     1      47.617   5.599  18.647  0.00  0.00    +0.000 HD
ENDBRANCH   2   5
BRANCH   3  16
ATOM     16  C   UNL     1      48.874  10.660  14.876  0.00  0.00    +0.000 C 
BRANCH  16  17
ATOM     17  C   UNL     1      48.433   9.607  13.886  0.00  0.00    +0.000 A 
ATOM     18  C   UNL     1      48.919   9.637  12.582  0.00  0.00    +0.000 A 
ATOM     19  C   UNL     1      48.504   8.661  11.680  0.00  0.00    +0.000 A 
ATOM     20  C   UNL     1      47.611   7.669  12.081  0.00  0.00    +0.000 A 
ATOM     21  C   UNL     1      47.163   7.733  13.399  0.00  0.00    +0.000 A 
ATOM     22  N   UNL     1      47.552   8.665  14.306  0.00  0.00    +0.000 NA
BRANCH  20  23
ATOM     23  C   UNL     1      47.096   6.633  11.173  0.00  0.00    +0.000 C 
ATOM     24  C   UNL     1      45.928   5.990  11.339  0.00  0.00    +0.000 C 
BRANCH  24  25
ATOM     25  C   UNL     1      45.415   4.947  10.436  0.00  0.00    +0.000 A 
ATOM     26  C   UNL     1      45.670   4.952   9.059  0.00  0.00    +0.000 A 
ATOM     27  C   UNL     1      45.221   3.908   8.248  0.00  0.00    +0.000 A 
ATOM     28  C   UNL     1      44.521   2.842   8.807  0.00  0.00    +0.000 A 
ATOM     29  C   UNL     1      44.266   2.819  10.177  0.00  0.00    +0.000 A 
ATOM     30  C   UNL     1      44.712   3.865  10.987  0.00  0.00    +0.000 A 
ENDBRANCH  24  25
ENDBRANCH  20  23
ENDBRANCH  16  17
ENDBRANCH   3  16
TORSDOF 5
ENDMDL
MODEL 7
REMARK VINA RESULT:    -5.205      3.877      4.826
REMARK INTER + INTRA:          -7.798
REMARK INTER:                  -6.776
REMARK INTRA:                  -1.022
REMARK UNBOUND:                -1.071
REMARK  Name = 
REMARK  5 active torsions:
REMARK  status: ('A' for Active; 'I' for Inactive)
REMARK    1  A    between atoms: C_2  and  C_19
REMARK    2  A    between atoms: N_3  and  C_4
REMARK    3  A    between atoms: C_4  and  C_5
REMARK    4  A    between atoms: C_8  and  C_9
REMARK    5  A    between atoms: C_10  and  C_11
REMARK                            x       y       z     vdW  Elec       q    Type
REMARK                         _______ _______ _______ _____ _____    ______ ____
ROOT
ATOM      1  O   UNL     1      51.509   8.138  16.192  0.00  0.00    +0.000 OA
ATOM      2  C   UNL     1      50.580   8.247  16.992  0.00  0.00    +0.000 C 
ATOM      3  N   UNL     1      49.442   8.955  16.705  0.00  0.00    +0.000 N 
ATOM      4  H   UNL     1      48.856   9.282  17.468  0.00  0.00    +0.000 HD
ENDROOT
BRANCH   2   5
ATOM      5  C   UNL     1      50.615   7.585  18.289  0.00  0.00    +0.000 A 
ATOM      6  C   UNL     1      51.450   8.021  19.307  0.00  0.00    +0.000 A 
ATOM      7  S   UNL     1      51.319   7.082  20.732  0.00  0.00    +0.000 S 
ATOM      8  C   UNL     1      50.124   6.090  20.032  0.00  0.00    +0.000 A 
ATOM      9  N   UNL     1      49.558   5.062  20.724  0.00  0.00    +0.000 NA
ATOM     10  C   UNL     1      48.654   4.418  20.069  0.00  0.00    +0.000 A 
ATOM     11  N   UNL     1      48.256   4.695  18.791  0.00  0.00    +0.000 N 
ATOM     12  C   UNL     1      48.832   5.681  18.038  0.00  0.00    +0.000 A 
ATOM     13  O   UNL     1      48.526   5.826  16.864  0.00  0.00    +0.000 OA
ATOM     14  C   UNL     1      49.841   6.458  18.734  0.00  0.00    +0.000 A 
ATOM     15  H   UNL     1      47.567   4.136  18.314  0.00  0.00    +0.000 HD
ENDBRANCH   2   5
BRANCH   3  16
ATOM     16  C   UNL     1      49.300   9.689  15.468  0.00  0.00    +0.000 C 
BRANCH  16  17
ATOM     17  C   UNL     1      48.612   8.883  14.392  0.00  0.00    +0.000 A 
ATOM     18  C   UNL     1      47.234   8.990  14.222  0.00  0.00    +0.000 A 
ATOM     19  C   UNL     1      46.612   8.241  13.226  0.00  0.00    +0.000 A 
ATOM     20  C   UNL     1      47.363   7.393  12.413  0.00  0.00    +0.000 A 
ATOM     21  C   UNL     1      48.731   7.336  12.673  0.00  0.00    +0.000 A 
ATOM     22  N   UNL     1      49.371   8.057  13.629  0.00  0.00    +0.000 NA
BRANCH  20  23
ATOM     23  C   UNL     1      46.770   6.540  11.373  0.00  0.00    +0.000 C 
ATOM     24  C   UNL     1      46.001   5.466  11.618  0.00  0.00    +0.000 C 
BRANCH  24  25
ATOM     25  C   UNL     1      45.414   4.606  10.578  0.00  0.00    +0.000 A 
ATOM     26  C   UNL     1      45.559   4.873   9.211  0.00  0.00    +0.000 A 
ATOM     27  C   UNL     1      45.043   3.996   8.255  0.00  0.00    +0.000 A 
ATOM     28  C   UNL     1      44.384   2.836   8.657  0.00  0.00    +0.000 A 
ATOM     29  C   UNL     1      44.238   2.554  10.013  0.00  0.00    +0.000 A 
ATOM     30  C   UNL     1      44.752   3.433  10.968  0.00  0.00    +0.000 A 
ENDBRANCH  24  25
ENDBRANCH  20  23
ENDBRANCH  16  17
ENDBRANCH   3  16
TORSDOF 5
ENDMDL
MODEL 8
REMARK VINA RESULT:    -5.030     10.840     13.983
REMARK INTER + INTRA:          -7.572
REMARK INTER:                  -6.661
REMARK INTRA:                  -0.911
REMARK UNBOUND:                -1.071
REMARK  Name = 
REMARK  5 active torsions:
REMARK  status: ('A' for Active; 'I' for Inactive)
REMARK    1  A    between atoms: C_2  and  C_19
REMARK    2  A    between atoms: N_3  and  C_4
REMARK    3  A    between atoms: C_4  and  C_5
REMARK    4  A    between atoms: C_8  and  C_9
REMARK    5  A    between atoms: C_10  and  C_11
REMARK                            x       y       z     vdW  Elec       q    Type
REMARK                         _______ _______ _______ _____ _____    ______ ____
ROOT
ATOM      1  O   UNL     1      36.969  -1.538  18.929  0.00  0.00    +0.000 OA
ATOM      2  C   UNL     1      37.932  -0.960  18.427  0.00  0.00    +0.000 C 
ATOM      3  N   UNL     1      39.222  -1.392  18.603  0.00  0.00    +0.000 N 
ATOM      4  H   UNL     1      39.987  -0.741  18.451  0.00  0.00    +0.000 HD
ENDROOT
BRANCH   2   5
ATOM      5  C   UNL     1      37.756   0.204  17.569  0.00  0.00    +0.000 A 
ATOM      6  C   UNL     1      37.129   0.111  16.337  0.00  0.00    +0.000 A 
ATOM      7  S   UNL     1      37.045   1.607  15.510  0.00  0.00    +0.000 S 
ATOM      8  C   UNL     1      37.820   2.419  16.791  0.00  0.00    +0.000 A 
ATOM      9  N   UNL     1      38.065   3.758  16.740  0.00  0.00    +0.000 NA
ATOM     10  C   UNL     1      38.637   4.231  17.795  0.00  0.00    +0.000 A 
ATOM     11  N   UNL     1      38.988   3.504  18.897  0.00  0.00    +0.000 N 
ATOM     12  C   UNL     1      38.811   2.150  18.973  0.00  0.00    +0.000 A 
ATOM     13  O   UNL     1      39.237   1.519  19.929  0.00  0.00    +0.000 OA
ATOM     14  C   UNL     1      38.147   1.564  17.823  0.00  0.00    +0.000 A 
ATOM     15  H   UNL     1      39.464   3.920  19.681  0.00  0.00    +0.000 HD
ENDBRANCH   2   5
BRANCH   3  16
ATOM     16  C   UNL     1      39.534  -2.512  19.462  0.00  0.00    +0.000 C 
BRANCH  16  17
ATOM     17  C   UNL     1      40.766  -3.260  19.012  0.00  0.00    +0.000 A 
ATOM     18  C   UNL     1      41.114  -3.273  17.664  0.00  0.00    +0.000 A 
ATOM     19  C   UNL     1      42.253  -3.967  17.263  0.00  0.00    +0.000 A 
ATOM     20  C   UNL     1      43.030  -4.643  18.202  0.00  0.00    +0.000 A 
ATOM     21  C   UNL     1      42.590  -4.592  19.524  0.00  0.00    +0.000 A 
ATOM     22  N   UNL     1      41.491  -3.920  19.951  0.00  0.00    +0.000 NA
BRANCH  20  23
ATOM     23  C   UNL     1      44.219  -5.432  17.847  0.00  0.00    +0.000 C 
ATOM     24  C   UNL     1      45.357  -5.454  18.561  0.00  0.00    +0.000 C 
BRANCH  24  25
ATOM     25  C   UNL     1      46.550  -6.236  18.201  0.00  0.00    +0.000 A 
ATOM     26  C   UNL     1      47.543  -5.744  17.344  0.00  0.00    +0.000 A 
ATOM     27  C   UNL     1      48.692  -6.492  17.081  0.00  0.00    +0.000 A 
ATOM     28  C   UNL     1      48.866  -7.737  17.680  0.00  0.00    +0.000 A 
ATOM     29  C   UNL     1      47.892  -8.236  18.541  0.00  0.00    +0.000 A 
ATOM     30  C   UNL     1      46.741  -7.490  18.801  0.00  0.00    +0.000 A 
ENDBRANCH  24  25
ENDBRANCH  20  23
ENDBRANCH  16  17
ENDBRANCH   3  16
TORSDOF 5
ENDMDL
MODEL 9
REMARK VINA RESULT:    -4.817     11.858     15.360
REMARK INTER + INTRA:          -7.297
REMARK INTER:                  -6.223
REMARK INTRA:                  -1.073
REMARK UNBOUND:                -1.071
REMARK  Name = 
REMARK  5 active torsions:
REMARK  status: ('A' for Active; 'I' for Inactive)
REMARK    1  A    between atoms: C_2  and  C_19
REMARK    2  A    between atoms: N_3  and  C_4
REMARK    3  A    between atoms: C_4  and  C_5
REMARK    4  A    between atoms: C_8  and  C_9
REMARK    5  A    between atoms: C_10  and  C_11
REMARK                            x       y       z     vdW  Elec       q    Type
REMARK                         _______ _______ _______ _____ _____    ______ ____
ROOT
ATOM      1  O   UNL     1      38.447  -0.156  11.416  0.00  0.00    +0.000 OA
ATOM      2  C   UNL     1      37.832  -1.210  11.256  0.00  0.00    +0.000 C 
ATOM      3  N   UNL     1      37.197  -1.855  12.286  0.00  0.00    +0.000 N 
ATOM      4  H   UNL     1      36.980  -2.843  12.193  0.00  0.00    +0.000 HD
ENDROOT
BRANCH   2   5
ATOM      5  C   UNL     1      37.698  -1.818   9.938  0.00  0.00    +0.000 A 
ATOM      6  C   UNL     1      36.910  -1.248   8.951  0.00  0.00    +0.000 A 
ATOM      7  S   UNL     1      36.905  -2.145   7.494  0.00  0.00    +0.000 S 
ATOM      8  C   UNL     1      37.977  -3.300   8.139  0.00  0.00    +0.000 A 
ATOM      9  N   UNL     1      38.403  -4.365   7.404  0.00  0.00    +0.000 NA
ATOM     10  C   UNL     1      39.229  -5.138   8.022  0.00  0.00    +0.000 A 
ATOM     11  N   UNL     1      39.675  -4.956   9.301  0.00  0.00    +0.000 N 
ATOM     12  C   UNL     1      39.236  -3.934  10.096  0.00  0.00    +0.000 A 
ATOM     13  O   UNL     1      39.573  -3.868  11.269  0.00  0.00    +0.000 OA
ATOM     14  C   UNL     1      38.321  -3.015   9.444  0.00  0.00    +0.000 A 
ATOM     15  H   UNL     1      40.296  -5.612   9.747  0.00  0.00    +0.000 HD
ENDBRANCH   2   5
BRANCH   3  16
ATOM     16  C   UNL     1      37.286  -1.375  13.647  0.00  0.00    +0.000 C 
BRANCH  16  17
ATOM     17  C   UNL     1      38.423  -2.011  14.412  0.00  0.00    +0.000 A 
ATOM     18  C   UNL     1      38.606  -3.390  14.359  0.00  0.00    +0.000 A 
ATOM     19  C   UNL     1      39.658  -3.963  15.069  0.00  0.00    +0.000 A 
ATOM     20  C   UNL     1      40.514  -3.162  15.825  0.00  0.00    +0.000 A 
ATOM     21  C   UNL     1      40.238  -1.797  15.833  0.00  0.00    +0.000 A 
ATOM     22  N   UNL     1      39.227  -1.204  15.148  0.00  0.00    +0.000 NA
BRANCH  20  23
ATOM     23  C   UNL     1      41.617  -3.702  16.633  0.00  0.00    +0.000 C 
ATOM     24  C   UNL     1      42.262  -4.850  16.368  0.00  0.00    +0.000 C 
BRANCH  24  25
ATOM     25  C   UNL     1      43.360  -5.396  17.182  0.00  0.00    +0.000 A 
ATOM     26  C   UNL     1      43.904  -6.667  16.957  0.00  0.00    +0.000 A 
ATOM     27  C   UNL     1      44.989  -7.120  17.710  0.00  0.00    +0.000 A 
ATOM     28  C   UNL     1      45.549  -6.304  18.688  0.00  0.00    +0.000 A 
ATOM     29  C   UNL     1      45.024  -5.034  18.918  0.00  0.00    +0.000 A 
ATOM     30  C   UNL     1      43.936  -4.582  18.168  0.00  0.00    +0.000 A 
ENDBRANCH  24  25
ENDBRANCH  20  23
ENDBRANCH  16  17
ENDBRANCH   3  16
TORSDOF 5
ENDMDL
