MODEL 1
REMARK VINA RESULT:    -8.342      0.000      0.000
REMARK INTER + INTRA:         -14.777
REMARK INTER:                 -13.706
REMARK INTRA:                  -1.071
REMARK UNBOUND:                -1.071
REMARK  Name = 
REMARK  12 active torsions:
REMARK  status: ('A' for Active; 'I' for Inactive)
REMARK    1  A    between atoms: N_1  and  C_2
REMARK    2  A    between atoms: C_2  and  C_3
REMARK    3  A    between atoms: C_3  and  N_4
REMARK    4  A    between atoms: C_3  and  C_22
REMARK    5  A    between atoms: N_4  and  C_5
REMARK    6  A    between atoms: C_5  and  C_6
REMARK    7  A    between atoms: C_9  and  C_10
REMARK    8  A    between atoms: C_10  and  N_11
REMARK    9  A    between atoms: N_11  and  CA_12
REMARK   10  A    between atoms: CA_12  and  C_13
REMARK   11  A    between atoms: CA_12  and  C_15
REMARK   12  A    between atoms: C_13  and  O_14
REMARK                            x       y       z     vdW  Elec       q    Type
REMARK                         _______ _______ _______ _____ _____    ______ ____
ROOT
ATOM      1  C   UNL     1      48.264   6.166  14.678  0.00  0.00    +0.000 C 
ENDROOT
BRANCH   1   2
ATOM      2  C   UNL     1      47.205   5.411  13.910  0.00  0.00    +0.000 A 
ATOM      3  C   UNL     1      47.164   4.013  13.904  0.00  0.00    +0.000 A 
ATOM      4  C   UNL     1      46.210   3.343  13.137  0.00  0.00    +0.000 A 
ATOM      5  C   UNL     1      45.262   4.056  12.387  0.00  0.00    +0.000 A 
ATOM      6  C   UNL     1      45.265   5.453  12.444  0.00  0.00    +0.000 A 
ATOM      7  C   UNL     1      46.229   6.123  13.194  0.00  0.00    +0.000 A 
BRANCH   5   8
ATOM      8  C   UNL     1      44.312   3.336  11.461  0.00  0.00    +0.000 C 
BRANCH   8   9
ATOM      9  N   UNL     1      45.035   2.575  10.446  0.00  0.00    +0.000 NA
ATOM     10  H   UNL     1      44.817   1.583  10.588  0.00  0.00    +0.000 HD
BRANCH   9  11
ATOM     11  CA  UNL     1      44.599   2.914   9.068  0.00  0.00    +0.000 C 
BRANCH  11  12
ATOM     12  C   UNL     1      45.725   2.459   8.128  0.00  0.00    +0.000 C 
ATOM     13  N   UNL     1      46.360   1.326   8.289  0.00  0.00    +0.000 NA
ATOM     14  C   UNL     1      47.333   1.312   7.150  0.00  0.00    +0.000 C 
ATOM     15  C   UNL     1      46.854   2.379   6.160  0.00  0.00    +0.000 C 
ATOM     16  N   UNL     1      46.108   3.227   7.047  0.00  0.00    +0.000 N 
ATOM     17  H   UNL     1      45.408   3.861   6.670  0.00  0.00    +0.000 HD
ENDBRANCH  11  12
BRANCH  11  18
ATOM     18  C   UNL     1      44.358   4.422   8.860  0.00  0.00    +0.000 C 
BRANCH  18  19
ATOM     19  O   UNL     1      45.578   5.169   8.913  0.00  0.00    +0.000 OA
ATOM     20  H   UNL     1      45.759   5.309   9.861  0.00  0.00    +0.000 HD
ENDBRANCH  18  19
ENDBRANCH  11  18
ENDBRANCH   9  11
ENDBRANCH   8   9
ENDBRANCH   5   8
ENDBRANCH   1   2
BRANCH   1  21
ATOM     21  N   UNL     1      48.067   6.089  16.130  0.00  0.00    +0.000 NA
ATOM     22  H   UNL     1      48.776   6.663  16.582  0.00  0.00    +0.000 HD
BRANCH  21  23
ATOM     23  C   UNL     1      48.215   4.707  16.640  0.00  0.00    +0.000 C 
BRANCH  23  24
ATOM     24  C   UNL     1      49.620   4.591  17.251  0.00  0.00    +0.000 A 
ATOM     25  C   UNL     1      50.290   5.661  17.823  0.00  0.00    +0.000 A 
ATOM     26  S   UNL     1      51.825   5.273  18.455  0.00  0.00    +0.000 S 
ATOM     27  C   UNL     1      51.673   3.644  17.975  0.00  0.00    +0.000 A 
ATOM     28  N   UNL     1      52.665   2.746  18.232  0.00  0.00    +0.000 NA
ATOM     29  C   UNL     1      52.411   1.547  17.855  0.00  0.00    +0.000 A 
ATOM     30  N   UNL     1      51.269   1.168  17.208  0.00  0.00    +0.000 N 
ATOM     31  C   UNL     1      50.265   2.052  16.849  0.00  0.00    +0.000 A 
ATOM     32  O   UNL     1      49.305   1.692  16.177  0.00  0.00    +0.000 OA
ATOM     33  C   UNL     1      50.471   3.407  17.325  0.00  0.00    +0.000 A 
ATOM     34  H   UNL     1      51.148   0.204  16.898  0.00  0.00    +0.000 HD
ENDBRANCH  23  24
BRANCH  23  35
ATOM     35  C   UNL     1      47.065   4.299  17.634  0.00  0.00    +0.000 C 
BRANCH  35  36
ATOM     36  N   UNL     1      46.684   2.869  17.681  0.00  0.00    +0.000 NA
ATOM     37  H   UNL     1      46.521   2.523  16.738  0.00  0.00    +0.000 HD
ATOM     38  H   UNL     1      45.806   2.779  18.194  0.00  0.00    +0.000 HD
ENDBRANCH  35  36
ENDBRANCH  23  35
ENDBRANCH  21  23
ENDBRANCH   1  21
TORSDOF 12
ENDMDL
MODEL 2
REMARK VINA RESULT:    -7.930      1.292      1.912
REMARK INTER + INTRA:         -14.101
REMARK INTER:                 -13.393
REMARK INTRA:                  -0.708
REMARK UNBOUND:                -1.071
REMARK  Name = 
REMARK  12 active torsions:
REMARK  status: ('A' for Active; 'I' for Inactive)
REMARK    1  A    between atoms: N_1  and  C_2
REMARK    2  A    between atoms: C_2  and  C_3
REMARK    3  A    between atoms: C_3  and  N_4
REMARK    4  A    between atoms: C_3  and  C_22
REMARK    5  A    between atoms: N_4  and  C_5
REMARK    6  A    between atoms: C_5  and  C_6
REMARK    7  A    between atoms: C_9  and  C_10
REMARK    8  A    between atoms: C_10  and  N_11
REMARK    9  A    between atoms: N_11  and  CA_12
REMARK   10  A    between atoms: CA_12  and  C_13
REMARK   11  A    between atoms: CA_12  and  C_15
REMARK   12  A    between atoms: C_13  and  O_14
REMARK                            x       y       z     vdW  Elec       q    Type
REMARK                         _______ _______ _______ _____ _____    ______ ____
ROOT
ATOM      1  C   UNL     1      48.737   6.479  15.071  0.00  0.00    +0.000 C 
ENDROOT
BRANCH   1   2
ATOM      2  C   UNL     1      47.553   6.327  14.146  0.00  0.00    +0.000 A 
ATOM      3  C   UNL     1      47.176   7.348  13.267  0.00  0.00    +0.000 A 
ATOM      4  C   UNL     1      46.042   7.201  12.467  0.00  0.00    +0.000 A 
ATOM      5  C   UNL     1      45.283   6.022  12.508  0.00  0.00    +0.000 A 
ATOM      6  C   UNL     1      45.697   4.977  13.340  0.00  0.00    +0.000 A 
ATOM      7  C   UNL     1      46.818   5.131  14.154  0.00  0.00    +0.000 A 
BRANCH   5   8
ATOM      8  C   UNL     1      43.989   5.911  11.739  0.00  0.00    +0.000 C 
BRANCH   8   9
ATOM      9  N   UNL     1      44.185   5.221  10.466  0.00  0.00    +0.000 NA
ATOM     10  H   UNL     1      44.929   5.712   9.959  0.00  0.00    +0.000 HD
BRANCH   9  11
ATOM     11  CA  UNL     1      44.645   3.821  10.646  0.00  0.00    +0.000 C 
BRANCH  11  12
ATOM     12  C   UNL     1      45.169   3.352   9.281  0.00  0.00    +0.000 C 
ATOM     13  N   UNL     1      45.450   4.187   8.312  0.00  0.00    +0.000 NA
ATOM     14  C   UNL     1      45.929   3.288   7.213  0.00  0.00    +0.000 C 
ATOM     15  C   UNL     1      46.236   1.935   7.865  0.00  0.00    +0.000 C 
ATOM     16  N   UNL     1      45.386   2.015   9.020  0.00  0.00    +0.000 N 
ATOM     17  H   UNL     1      45.570   1.419   9.823  0.00  0.00    +0.000 HD
ENDBRANCH  11  12
BRANCH  11  18
ATOM     18  C   UNL     1      43.523   2.867  11.102  0.00  0.00    +0.000 C 
BRANCH  18  19
ATOM     19  O   UNL     1      43.738   2.391  12.435  0.00  0.00    +0.000 OA
ATOM     20  H   UNL     1      43.030   2.790  12.973  0.00  0.00    +0.000 HD
ENDBRANCH  18  19
ENDBRANCH  11  18
ENDBRANCH   9  11
ENDBRANCH   8   9
ENDBRANCH   5   8
ENDBRANCH   1   2
BRANCH   1  21
ATOM     21  N   UNL     1      48.391   6.232  16.474  0.00  0.00    +0.000 NA
ATOM     22  H   UNL     1      49.063   6.721  17.063  0.00  0.00    +0.000 HD
BRANCH  21  23
ATOM     23  C   UNL     1      48.453   4.793  16.818  0.00  0.00    +0.000 C 
BRANCH  23  24
ATOM     24  C   UNL     1      49.845   4.523  17.412  0.00  0.00    +0.000 A 
ATOM     25  C   UNL     1      50.598   5.493  18.054  0.00  0.00    +0.000 A 
ATOM     26  S   UNL     1      52.097   4.942  18.648  0.00  0.00    +0.000 S 
ATOM     27  C   UNL     1      51.815   3.367  18.057  0.00  0.00    +0.000 A 
ATOM     28  N   UNL     1      52.732   2.378  18.245  0.00  0.00    +0.000 NA
ATOM     29  C   UNL     1      52.383   1.232  17.787  0.00  0.00    +0.000 A 
ATOM     30  N   UNL     1      51.215   0.991  17.121  0.00  0.00    +0.000 N 
ATOM     31  C   UNL     1      50.285   1.975  16.830  0.00  0.00    +0.000 A 
ATOM     32  O   UNL     1      49.299   1.741  16.140  0.00  0.00    +0.000 OA
ATOM     33  C   UNL     1      50.598   3.273  17.399  0.00  0.00    +0.000 A 
ATOM     34  H   UNL     1      51.018   0.064  16.745  0.00  0.00    +0.000 HD
ENDBRANCH  23  24
BRANCH  23  35
ATOM     35  C   UNL     1      47.274   4.340  17.757  0.00  0.00    +0.000 C 
BRANCH  35  36
ATOM     36  N   UNL     1      46.758   2.964  17.582  0.00  0.00    +0.000 NA
ATOM     37  H   UNL     1      45.745   2.959  17.676  0.00  0.00    +0.000 HD
ATOM     38  H   UNL     1      47.135   2.373  18.326  0.00  0.00    +0.000 HD
ENDBRANCH  35  36
ENDBRANCH  23  35
ENDBRANCH  21  23
ENDBRANCH   1  21
TORSDOF 12
ENDMDL
MODEL 3
REMARK VINA RESULT:    -6.987      2.419      3.673
REMARK INTER + INTRA:         -12.551
REMARK INTER:                 -11.048
REMARK INTRA:                  -1.503
REMARK UNBOUND:                -1.071
REMARK  Name = 
REMARK  12 active torsions:
REMARK  status: ('A' for Active; 'I' for Inactive)
REMARK    1  A    between atoms: N_1  and  C_2
REMARK    2  A    between atoms: C_2  and  C_3
REMARK    3  A    between atoms: C_3  and  N_4
REMARK    4  A    between atoms: C_3  and  C_22
REMARK    5  A    between atoms: N_4  and  C_5
REMARK    6  A    between atoms: C_5  and  C_6
REMARK    7  A    between atoms: C_9  and  C_10
REMARK    8  A    between atoms: C_10  and  N_11
REMARK    9  A    between atoms: N_11  and  CA_12
REMARK   10  A    between atoms: CA_12  and  C_13
REMARK   11  A    between atoms: CA_12  and  C_15
REMARK   12  A    between atoms: C_13  and  O_14
REMARK                            x       y       z     vdW  Elec       q    Type
REMARK                         _______ _______ _______ _____ _____    ______ ____
ROOT
ATOM      1  C   UNL     1      50.119   8.030  13.791  0.00  0.00    +0.000 C 
ENDROOT
BRANCH   1   2
ATOM      2  C   UNL     1      48.742   7.883  13.189  0.00  0.00    +0.000 A 
ATOM      3  C   UNL     1      47.657   8.635  13.654  0.00  0.00    +0.000 A 
ATOM      4  C   UNL     1      46.384   8.435  13.118  0.00  0.00    +0.000 A 
ATOM      5  C   UNL     1      46.177   7.504  12.088  0.00  0.00    +0.000 A 
ATOM      6  C   UNL     1      47.274   6.799  11.581  0.00  0.00    +0.000 A 
ATOM      7  C   UNL     1      48.541   6.985  12.130  0.00  0.00    +0.000 A 
BRANCH   5   8
ATOM      8  C   UNL     1      44.784   7.197  11.595  0.00  0.00    +0.000 C 
BRANCH   8   9
ATOM      9  N   UNL     1      44.812   6.248  10.485  0.00  0.00    +0.000 NA
ATOM     10  H   UNL     1      45.764   6.242  10.105  0.00  0.00    +0.000 HD
BRANCH   9  11
ATOM     11  CA  UNL     1      44.519   4.859  10.921  0.00  0.00    +0.000 C 
BRANCH  11  12
ATOM     12  C   UNL     1      44.839   3.948   9.727  0.00  0.00    +0.000 C 
ATOM     13  N   UNL     1      45.012   4.413   8.515  0.00  0.00    +0.000 NA
ATOM     14  C   UNL     1      45.310   3.183   7.714  0.00  0.00    +0.000 C 
ATOM     15  C   UNL     1      45.659   2.084   8.725  0.00  0.00    +0.000 C 
ATOM     16  N   UNL     1      44.976   2.584   9.884  0.00  0.00    +0.000 N 
ATOM     17  H   UNL     1      45.248   2.259  10.809  0.00  0.00    +0.000 HD
ENDBRANCH  11  12
BRANCH  11  18
ATOM     18  C   UNL     1      43.047   4.647  11.327  0.00  0.00    +0.000 C 
BRANCH  18  19
ATOM     19  O   UNL     1      42.705   3.258  11.382  0.00  0.00    +0.000 OA
ATOM     20  H   UNL     1      42.981   2.955  12.267  0.00  0.00    +0.000 HD
ENDBRANCH  18  19
ENDBRANCH  11  18
ENDBRANCH   9  11
ENDBRANCH   8   9
ENDBRANCH   5   8
ENDBRANCH   1   2
BRANCH   1  21
ATOM     21  N   UNL     1      50.362   7.077  14.879  0.00  0.00    +0.000 NA
ATOM     22  H   UNL     1      49.922   6.191  14.636  0.00  0.00    +0.000 HD
BRANCH  21  23
ATOM     23  C   UNL     1      49.779   7.533  16.161  0.00  0.00    +0.000 C 
BRANCH  23  24
ATOM     24  C   UNL     1      49.756   6.324  17.110  0.00  0.00    +0.000 A 
ATOM     25  C   UNL     1      50.587   6.208  18.212  0.00  0.00    +0.000 A 
ATOM     26  S   UNL     1      50.353   4.787  19.123  0.00  0.00    +0.000 S 
ATOM     27  C   UNL     1      49.128   4.246  18.068  0.00  0.00    +0.000 A 
ATOM     28  N   UNL     1      48.487   3.064  18.293  0.00  0.00    +0.000 NA
ATOM     29  C   UNL     1      47.560   2.791  17.449  0.00  0.00    +0.000 A 
ATOM     30  N   UNL     1      47.239   3.573  16.377  0.00  0.00    +0.000 N 
ATOM     31  C   UNL     1      47.911   4.741  16.054  0.00  0.00    +0.000 A 
ATOM     32  O   UNL     1      47.662   5.360  15.026  0.00  0.00    +0.000 OA
ATOM     33  C   UNL     1      48.915   5.134  17.025  0.00  0.00    +0.000 A 
ATOM     34  H   UNL     1      46.518   3.277  15.719  0.00  0.00    +0.000 HD
ENDBRANCH  23  24
BRANCH  23  35
ATOM     35  C   UNL     1      50.525   8.783  16.759  0.00  0.00    +0.000 C 
BRANCH  35  36
ATOM     36  N   UNL     1      49.725   9.727  17.571  0.00  0.00    +0.000 NA
ATOM     37  H   UNL     1      50.020  10.682  17.383  0.00  0.00    +0.000 HD
ATOM     38  H   UNL     1      49.903   9.544  18.560  0.00  0.00    +0.000 HD
ENDBRANCH  35  36
ENDBRANCH  23  35
ENDBRANCH  21  23
ENDBRANCH   1  21
TORSDOF 12
ENDMDL
MODEL 4
REMARK VINA RESULT:    -6.859      2.027      2.888
REMARK INTER + INTRA:         -12.341
REMARK INTER:                 -11.599
REMARK INTRA:                  -0.741
REMARK UNBOUND:                -1.071
REMARK  Name = 
REMARK  12 active torsions:
REMARK  status: ('A' for Active; 'I' for Inactive)
REMARK    1  A    between atoms: N_1  and  C_2
REMARK    2  A    between atoms: C_2  and  C_3
REMARK    3  A    between atoms: C_3  and  N_4
REMARK    4  A    between atoms: C_3  and  C_22
REMARK    5  A    between atoms: N_4  and  C_5
REMARK    6  A    between atoms: C_5  and  C_6
REMARK    7  A    between atoms: C_9  and  C_10
REMARK    8  A    between atoms: C_10  and  N_11
REMARK    9  A    between atoms: N_11  and  CA_12
REMARK   10  A    between atoms: CA_12  and  C_13
REMARK   11  A    between atoms: CA_12  and  C_15
REMARK   12  A    between atoms: C_13  and  O_14
REMARK                            x       y       z     vdW  Elec       q    Type
REMARK                         _______ _______ _______ _____ _____    ______ ____
ROOT
ATOM      1  C   UNL     1      48.351   6.828  13.965  0.00  0.00    +0.000 C 
ENDROOT
BRANCH   1   2
ATOM      2  C   UNL     1      47.256   5.967  13.383  0.00  0.00    +0.000 A 
ATOM      3  C   UNL     1      47.152   4.607  13.694  0.00  0.00    +0.000 A 
ATOM      4  C   UNL     1      46.166   3.823  13.095  0.00  0.00    +0.000 A 
ATOM      5  C   UNL     1      45.245   4.389  12.199  0.00  0.00    +0.000 A 
ATOM      6  C   UNL     1      45.310   5.761  11.938  0.00  0.00    +0.000 A 
ATOM      7  C   UNL     1      46.308   6.540  12.521  0.00  0.00    +0.000 A 
BRANCH   5   8
ATOM      8  C   UNL     1      44.259   3.521  11.456  0.00  0.00    +0.000 C 
BRANCH   8   9
ATOM      9  N   UNL     1      44.938   2.624  10.524  0.00  0.00    +0.000 NA
ATOM     10  H   UNL     1      44.660   1.666  10.758  0.00  0.00    +0.000 HD
BRANCH   9  11
ATOM     11  CA  UNL     1      44.528   2.856   9.116  0.00  0.00    +0.000 C 
BRANCH  11  12
ATOM     12  C   UNL     1      45.673   2.337   8.235  0.00  0.00    +0.000 C 
ATOM     13  N   UNL     1      46.182   1.139   8.379  0.00  0.00    +0.000 NA
ATOM     14  C   UNL     1      47.234   1.083   7.313  0.00  0.00    +0.000 C 
ATOM     15  C   UNL     1      46.936   2.239   6.352  0.00  0.00    +0.000 C 
ATOM     16  N   UNL     1      46.210   3.114   7.229  0.00  0.00    +0.000 N 
ATOM     17  H   UNL     1      45.605   3.832   6.839  0.00  0.00    +0.000 HD
ENDBRANCH  11  12
BRANCH  11  18
ATOM     18  C   UNL     1      44.286   4.343   8.791  0.00  0.00    +0.000 C 
BRANCH  18  19
ATOM     19  O   UNL     1      45.515   5.067   8.666  0.00  0.00    +0.000 OA
ATOM     20  H   UNL     1      45.534   5.395   7.748  0.00  0.00    +0.000 HD
ENDBRANCH  18  19
ENDBRANCH  11  18
ENDBRANCH   9  11
ENDBRANCH   8   9
ENDBRANCH   5   8
ENDBRANCH   1   2
BRANCH   1  21
ATOM     21  N   UNL     1      48.905   6.273  15.204  0.00  0.00    +0.000 NA
ATOM     22  H   UNL     1      48.138   5.903  15.763  0.00  0.00    +0.000 HD
BRANCH  21  23
ATOM     23  C   UNL     1      49.598   7.300  16.014  0.00  0.00    +0.000 C 
BRANCH  23  24
ATOM     24  C   UNL     1      49.071   7.183  17.453  0.00  0.00    +0.000 A 
ATOM     25  C   UNL     1      48.497   8.240  18.140  0.00  0.00    +0.000 A 
ATOM     26  S   UNL     1      47.967   7.853  19.713  0.00  0.00    +0.000 S 
ATOM     27  C   UNL     1      48.500   6.240  19.555  0.00  0.00    +0.000 A 
ATOM     28  N   UNL     1      48.333   5.349  20.572  0.00  0.00    +0.000 NA
ATOM     29  C   UNL     1      48.741   4.161  20.313  0.00  0.00    +0.000 A 
ATOM     30  N   UNL     1      49.337   3.789  19.142  0.00  0.00    +0.000 N 
ATOM     31  C   UNL     1      49.606   4.671  18.108  0.00  0.00    +0.000 A 
ATOM     32  O   UNL     1      50.236   4.322  17.116  0.00  0.00    +0.000 OA
ATOM     33  C   UNL     1      49.090   6.010  18.322  0.00  0.00    +0.000 A 
ATOM     34  H   UNL     1      49.677   2.836  19.016  0.00  0.00    +0.000 HD
ENDBRANCH  23  24
BRANCH  23  35
ATOM     35  C   UNL     1      51.165   7.200  15.913  0.00  0.00    +0.000 C 
BRANCH  35  36
ATOM     36  N   UNL     1      51.788   7.587  14.627  0.00  0.00    +0.000 NA
ATOM     37  H   UNL     1      51.769   8.600  14.524  0.00  0.00    +0.000 HD
ATOM     38  H   UNL     1      51.238   7.194  13.862  0.00  0.00    +0.000 HD
ENDBRANCH  35  36
ENDBRANCH  23  35
ENDBRANCH  21  23
ENDBRANCH   1  21
TORSDOF 12
ENDMDL
MODEL 5
REMARK VINA RESULT:    -6.689      3.235      8.879
REMARK INTER + INTRA:         -12.061
REMARK INTER:                 -10.419
REMARK INTRA:                  -1.642
REMARK UNBOUND:                -1.071
REMARK  Name = 
REMARK  12 active torsions:
REMARK  status: ('A' for Active; 'I' for Inactive)
REMARK    1  A    between atoms: N_1  and  C_2
REMARK    2  A    between atoms: C_2  and  C_3
REMARK    3  A    between atoms: C_3  and  N_4
REMARK    4  A    between atoms: C_3  and  C_22
REMARK    5  A    between atoms: N_4  and  C_5
REMARK    6  A    between atoms: C_5  and  C_6
REMARK    7  A    between atoms: C_9  and  C_10
REMARK    8  A    between atoms: C_10  and  N_11
REMARK    9  A    between atoms: N_11  and  CA_12
REMARK   10  A    between atoms: CA_12  and  C_13
REMARK   11  A    between atoms: CA_12  and  C_15
REMARK   12  A    between atoms: C_13  and  O_14
REMARK                            x       y       z     vdW  Elec       q    Type
REMARK                         _______ _______ _______ _____ _____    ______ ____
ROOT
ATOM      1  C   UNL     1      47.712   8.048  12.005  0.00  0.00    +0.000 C 
ENDROOT
BRANCH   1   2
ATOM      2  C   UNL     1      48.384   8.063  13.357  0.00  0.00    +0.000 A 
ATOM      3  C   UNL     1      49.646   7.491  13.552  0.00  0.00    +0.000 A 
ATOM      4  C   UNL     1      50.217   7.468  14.824  0.00  0.00    +0.000 A 
ATOM      5  C   UNL     1      49.553   8.042  15.919  0.00  0.00    +0.000 A 
ATOM      6  C   UNL     1      48.320   8.669  15.712  0.00  0.00    +0.000 A 
ATOM      7  C   UNL     1      47.741   8.675  14.444  0.00  0.00    +0.000 A 
BRANCH   5   8
ATOM      8  C   UNL     1      50.109   7.907  17.316  0.00  0.00    +0.000 C 
BRANCH   8   9
ATOM      9  N   UNL     1      50.305   6.505  17.676  0.00  0.00    +0.000 NA
ATOM     10  H   UNL     1      51.192   6.437  18.186  0.00  0.00    +0.000 HD
BRANCH   9  11
ATOM     11  CA  UNL     1      49.249   6.004  18.591  0.00  0.00    +0.000 C 
BRANCH  11  12
ATOM     12  C   UNL     1      48.466   4.936  17.813  0.00  0.00    +0.000 C 
ATOM     13  N   UNL     1      48.489   4.862  16.506  0.00  0.00    +0.000 NA
ATOM     14  C   UNL     1      47.611   3.683  16.214  0.00  0.00    +0.000 C 
ATOM     15  C   UNL     1      47.455   2.923  17.536  0.00  0.00    +0.000 C 
ATOM     16  N   UNL     1      47.710   3.985  18.468  0.00  0.00    +0.000 N 
ATOM     17  H   UNL     1      47.985   3.764  19.422  0.00  0.00    +0.000 HD
ENDBRANCH  11  12
BRANCH  11  18
ATOM     18  C   UNL     1      48.269   7.103  19.048  0.00  0.00    +0.000 C 
BRANCH  18  19
ATOM     19  O   UNL     1      46.956   6.901  18.514  0.00  0.00    +0.000 OA
ATOM     20  H   UNL     1      46.853   7.569  17.812  0.00  0.00    +0.000 HD
ENDBRANCH  18  19
ENDBRANCH  11  18
ENDBRANCH   9  11
ENDBRANCH   8   9
ENDBRANCH   5   8
ENDBRANCH   1   2
BRANCH   1  21
ATOM     21  N   UNL     1      47.122   6.744  11.684  0.00  0.00    +0.000 NA
ATOM     22  H   UNL     1      47.715   6.282  10.998  0.00  0.00    +0.000 HD
BRANCH  21  23
ATOM     23  C   UNL     1      45.769   6.874  11.096  0.00  0.00    +0.000 C 
BRANCH  23  24
ATOM     24  C   UNL     1      45.090   5.500  11.202  0.00  0.00    +0.000 A 
ATOM     25  C   UNL     1      44.436   5.062  12.342  0.00  0.00    +0.000 A 
ATOM     26  S   UNL     1      43.741   3.512  12.204  0.00  0.00    +0.000 S 
ATOM     27  C   UNL     1      44.299   3.344  10.601  0.00  0.00    +0.000 A 
ATOM     28  N   UNL     1      44.028   2.218   9.884  0.00  0.00    +0.000 NA
ATOM     29  C   UNL     1      44.471   2.232   8.680  0.00  0.00    +0.000 A 
ATOM     30  N   UNL     1      45.194   3.256   8.137  0.00  0.00    +0.000 N 
ATOM     31  C   UNL     1      45.568   4.386   8.845  0.00  0.00    +0.000 A 
ATOM     32  O   UNL     1      46.305   5.235   8.354  0.00  0.00    +0.000 OA
ATOM     33  C   UNL     1      45.022   4.452  10.187  0.00  0.00    +0.000 A 
ATOM     34  H   UNL     1      45.553   3.186   7.185  0.00  0.00    +0.000 HD
ENDBRANCH  23  24
BRANCH  23  35
ATOM     35  C   UNL     1      44.932   8.037  11.745  0.00  0.00    +0.000 C 
BRANCH  35  36
ATOM     36  N   UNL     1      43.633   8.370  11.118  0.00  0.00    +0.000 NA
ATOM     37  H   UNL     1      42.920   8.479  11.836  0.00  0.00    +0.000 HD
ATOM     38  H   UNL     1      43.346   7.593  10.521  0.00  0.00    +0.000 HD
ENDBRANCH  35  36
ENDBRANCH  23  35
ENDBRANCH  21  23
ENDBRANCH   1  21
TORSDOF 12
ENDMDL
MODEL 6
REMARK VINA RESULT:    -6.684      2.233      3.270
REMARK INTER + INTRA:         -12.054
REMARK INTER:                 -10.502
REMARK INTRA:                  -1.552
REMARK UNBOUND:                -1.071
REMARK  Name = 
REMARK  12 active torsions:
REMARK  status: ('A' for Active; 'I' for Inactive)
REMARK    1  A    between atoms: N_1  and  C_2
REMARK    2  A    between atoms: C_2  and  C_3
REMARK    3  A    between atoms: C_3  and  N_4
REMARK    4  A    between atoms: C_3  and  C_22
REMARK    5  A    between atoms: N_4  and  C_5
REMARK    6  A    between atoms: C_5  and  C_6
REMARK    7  A    between atoms: C_9  and  C_10
REMARK    8  A    between atoms: C_10  and  N_11
REMARK    9  A    between atoms: N_11  and  CA_12
REMARK   10  A    between atoms: CA_12  and  C_13
REMARK   11  A    between atoms: CA_12  and  C_15
REMARK   12  A    between atoms: C_13  and  O_14
REMARK                            x       y       z     vdW  Elec       q    Type
REMARK                         _______ _______ _______ _____ _____    ______ ____
ROOT
ATOM      1  C   UNL     1      49.432   8.199  15.117  0.00  0.00    +0.000 C 
ENDROOT
BRANCH   1   2
ATOM      2  C   UNL     1      48.254   7.865  14.233  0.00  0.00    +0.000 A 
ATOM      3  C   UNL     1      47.288   8.825  13.909  0.00  0.00    +0.000 A 
ATOM      4  C   UNL     1      46.180   8.472  13.139  0.00  0.00    +0.000 A 
ATOM      5  C   UNL     1      46.030   7.164  12.653  0.00  0.00    +0.000 A 
ATOM      6  C   UNL     1      47.027   6.222  12.925  0.00  0.00    +0.000 A 
ATOM      7  C   UNL     1      48.125   6.569  13.710  0.00  0.00    +0.000 A 
BRANCH   5   8
ATOM      8  C   UNL     1      44.773   6.750  11.928  0.00  0.00    +0.000 C 
BRANCH   8   9
ATOM      9  N   UNL     1      45.079   5.912  10.771  0.00  0.00    +0.000 NA
ATOM     10  H   UNL     1      46.097   5.912  10.648  0.00  0.00    +0.000 HD
BRANCH   9  11
ATOM     11  CA  UNL     1      44.674   4.498  10.973  0.00  0.00    +0.000 C 
BRANCH  11  12
ATOM     12  C   UNL     1      45.015   3.755   9.673  0.00  0.00    +0.000 C 
ATOM     13  N   UNL     1      45.297   4.381   8.559  0.00  0.00    +0.000 NA
ATOM     14  C   UNL     1      45.569   3.265   7.597  0.00  0.00    +0.000 C 
ATOM     15  C   UNL     1      45.781   2.006   8.446  0.00  0.00    +0.000 C 
ATOM     16  N   UNL     1      45.055   2.376   9.628  0.00  0.00    +0.000 N 
ATOM     17  H   UNL     1      45.244   1.898  10.506  0.00  0.00    +0.000 HD
ENDBRANCH  11  12
BRANCH  11  18
ATOM     18  C   UNL     1      43.169   4.332  11.260  0.00  0.00    +0.000 C 
BRANCH  18  19
ATOM     19  O   UNL     1      42.816   2.962  11.475  0.00  0.00    +0.000 OA
ATOM     20  H   UNL     1      42.990   2.510  10.629  0.00  0.00    +0.000 HD
ENDBRANCH  18  19
ENDBRANCH  11  18
ENDBRANCH   9  11
ENDBRANCH   8   9
ENDBRANCH   5   8
ENDBRANCH   1   2
BRANCH   1  21
ATOM     21  N   UNL     1      49.895   7.046  15.896  0.00  0.00    +0.000 NA
ATOM     22  H   UNL     1      49.854   6.219  15.304  0.00  0.00    +0.000 HD
BRANCH  21  23
ATOM     23  C   UNL     1      49.042   6.794  17.080  0.00  0.00    +0.000 C 
BRANCH  23  24
ATOM     24  C   UNL     1      48.804   5.278  17.160  0.00  0.00    +0.000 A 
ATOM     25  C   UNL     1      47.543   4.705  17.130  0.00  0.00    +0.000 A 
ATOM     26  S   UNL     1      47.542   3.002  17.208  0.00  0.00    +0.000 S 
ATOM     27  C   UNL     1      49.244   2.950  17.303  0.00  0.00    +0.000 A 
ATOM     28  N   UNL     1      49.901   1.760  17.383  0.00  0.00    +0.000 NA
ATOM     29  C   UNL     1      51.180   1.856  17.410  0.00  0.00    +0.000 A 
ATOM     30  N   UNL     1      51.864   3.038  17.402  0.00  0.00    +0.000 N 
ATOM     31  C   UNL     1      51.246   4.278  17.404  0.00  0.00    +0.000 A 
ATOM     32  O   UNL     1      51.892   5.315  17.502  0.00  0.00    +0.000 OA
ATOM     33  C   UNL     1      49.801   4.220  17.292  0.00  0.00    +0.000 A 
ATOM     34  H   UNL     1      52.881   3.046  17.468  0.00  0.00    +0.000 HD
ENDBRANCH  23  24
BRANCH  23  35
ATOM     35  C   UNL     1      49.639   7.404  18.402  0.00  0.00    +0.000 C 
BRANCH  35  36
ATOM     36  N   UNL     1      50.969   8.048  18.312  0.00  0.00    +0.000 NA
ATOM     37  H   UNL     1      50.995   8.678  17.513  0.00  0.00    +0.000 HD
ATOM     38  H   UNL     1      51.674   7.326  18.152  0.00  0.00    +0.000 HD
ENDBRANCH  35  36
ENDBRANCH  23  35
ENDBRANCH  21  23
ENDBRANCH   1  21
TORSDOF 12
ENDMDL
MODEL 7
REMARK VINA RESULT:    -6.677      2.728      4.116
REMARK INTER + INTRA:         -12.041
REMARK INTER:                 -10.486
REMARK INTRA:                  -1.555
REMARK UNBOUND:                -1.071
REMARK  Name = 
REMARK  12 active torsions:
REMARK  status: ('A' for Active; 'I' for Inactive)
REMARK    1  A    between atoms: N_1  and  C_2
REMARK    2  A    between atoms: C_2  and  C_3
REMARK    3  A    between atoms: C_3  and  N_4
REMARK    4  A    between atoms: C_3  and  C_22
REMARK    5  A    between atoms: N_4  and  C_5
REMARK    6  A    between atoms: C_5  and  C_6
REMARK    7  A    between atoms: C_9  and  C_10
REMARK    8  A    between atoms: C_10  and  N_11
REMARK    9  A    between atoms: N_11  and  CA_12
REMARK   10  A    between atoms: CA_12  and  C_13
REMARK   11  A    between atoms: CA_12  and  C_15
REMARK   12  A    between atoms: C_13  and  O_14
REMARK                            x       y       z     vdW  Elec       q    Type
REMARK                         _______ _______ _______ _____ _____    ______ ____
ROOT
ATOM      1  C   UNL     1      49.746   7.994  13.808  0.00  0.00    +0.000 C 
ENDROOT
BRANCH   1   2
ATOM      2  C   UNL     1      48.401   7.555  13.283  0.00  0.00    +0.000 A 
ATOM      3  C   UNL     1      47.637   8.379  12.449  0.00  0.00    +0.000 A 
ATOM      4  C   UNL     1      46.371   7.970  12.027  0.00  0.00    +0.000 A 
ATOM      5  C   UNL     1      45.858   6.719  12.404  0.00  0.00    +0.000 A 
ATOM      6  C   UNL     1      46.649   5.870  13.186  0.00  0.00    +0.000 A 
ATOM      7  C   UNL     1      47.905   6.286  13.623  0.00  0.00    +0.000 A 
BRANCH   5   8
ATOM      8  C   UNL     1      44.443   6.329  12.054  0.00  0.00    +0.000 C 
BRANCH   8   9
ATOM      9  N   UNL     1      44.397   5.557  10.815  0.00  0.00    +0.000 NA
ATOM     10  H   UNL     1      45.214   5.820  10.255  0.00  0.00    +0.000 HD
BRANCH   9  11
ATOM     11  CA  UNL     1      44.498   4.095  11.056  0.00  0.00    +0.000 C 
BRANCH  11  12
ATOM     12  C   UNL     1      44.951   3.463   9.731  0.00  0.00    +0.000 C 
ATOM     13  N   UNL     1      45.293   4.181   8.691  0.00  0.00    +0.000 NA
ATOM     14  C   UNL     1      45.665   3.151   7.670  0.00  0.00    +0.000 C 
ATOM     15  C   UNL     1      45.854   1.835   8.433  0.00  0.00    +0.000 C 
ATOM     16  N   UNL     1      45.035   2.094   9.584  0.00  0.00    +0.000 N 
ATOM     17  H   UNL     1      45.176   1.554  10.435  0.00  0.00    +0.000 HD
ENDBRANCH  11  12
BRANCH  11  18
ATOM     18  C   UNL     1      43.162   3.455  11.480  0.00  0.00    +0.000 C 
BRANCH  18  19
ATOM     19  O   UNL     1      43.346   2.132  11.996  0.00  0.00    +0.000 OA
ATOM     20  H   UNL     1      42.481   1.873  12.365  0.00  0.00    +0.000 HD
ENDBRANCH  18  19
ENDBRANCH  11  18
ENDBRANCH   9  11
ENDBRANCH   8   9
ENDBRANCH   5   8
ENDBRANCH   1   2
BRANCH   1  21
ATOM     21  N   UNL     1      50.383   6.974  14.648  0.00  0.00    +0.000 NA
ATOM     22  H   UNL     1      49.657   6.370  15.029  0.00  0.00    +0.000 HD
BRANCH  21  23
ATOM     23  C   UNL     1      51.117   7.569  15.788  0.00  0.00    +0.000 C 
BRANCH  23  24
ATOM     24  C   UNL     1      50.089   7.867  16.890  0.00  0.00    +0.000 A 
ATOM     25  C   UNL     1      49.957   9.109  17.491  0.00  0.00    +0.000 A 
ATOM     26  S   UNL     1      48.728   9.195  18.668  0.00  0.00    +0.000 S 
ATOM     27  C   UNL     1      48.319   7.555  18.441  0.00  0.00    +0.000 A 
ATOM     28  N   UNL     1      47.310   6.983  19.157  0.00  0.00    +0.000 NA
ATOM     29  C   UNL     1      47.078   5.756  18.864  0.00  0.00    +0.000 A 
ATOM     30  N   UNL     1      47.787   5.034  17.947  0.00  0.00    +0.000 N 
ATOM     31  C   UNL     1      48.874   5.540  17.252  0.00  0.00    +0.000 A 
ATOM     32  O   UNL     1      49.549   4.830  16.516  0.00  0.00    +0.000 OA
ATOM     33  C   UNL     1      49.125   6.949  17.490  0.00  0.00    +0.000 A 
ATOM     34  H   UNL     1      47.578   4.048  17.793  0.00  0.00    +0.000 HD
ENDBRANCH  23  24
BRANCH  23  35
ATOM     35  C   UNL     1      52.315   6.672  16.276  0.00  0.00    +0.000 C 
BRANCH  35  36
ATOM     36  N   UNL     1      53.528   6.641  15.429  0.00  0.00    +0.000 NA
ATOM     37  H   UNL     1      53.285   6.866  14.467  0.00  0.00    +0.000 HD
ATOM     38  H   UNL     1      53.907   5.693  15.432  0.00  0.00    +0.000 HD
ENDBRANCH  35  36
ENDBRANCH  23  35
ENDBRANCH  21  23
ENDBRANCH   1  21
TORSDOF 12
ENDMDL
MODEL 8
REMARK VINA RESULT:    -6.495      3.677      9.012
REMARK INTER + INTRA:         -11.742
REMARK INTER:                 -10.038
REMARK INTRA:                  -1.704
REMARK UNBOUND:                -1.071
REMARK  Name = 
REMARK  12 active torsions:
REMARK  status: ('A' for Active; 'I' for Inactive)
REMARK    1  A    between atoms: N_1  and  C_2
REMARK    2  A    between atoms: C_2  and  C_3
REMARK    3  A    between atoms: C_3  and  N_4
REMARK    4  A    between atoms: C_3  and  C_22
REMARK    5  A    between atoms: N_4  and  C_5
REMARK    6  A    between atoms: C_5  and  C_6
REMARK    7  A    between atoms: C_9  and  C_10
REMARK    8  A    between atoms: C_10  and  N_11
REMARK    9  A    between atoms: N_11  and  CA_12
REMARK   10  A    between atoms: CA_12  and  C_13
REMARK   11  A    between atoms: CA_12  and  C_15
REMARK   12  A    between atoms: C_13  and  O_14
REMARK                            x       y       z     vdW  Elec       q    Type
REMARK                         _______ _______ _______ _____ _____    ______ ____
ROOT
ATOM      1  C   UNL     1      47.997   7.584  12.236  0.00  0.00    +0.000 C 
ENDROOT
BRANCH   1   2
ATOM      2  C   UNL     1      48.387   7.809  13.677  0.00  0.00    +0.000 A 
ATOM      3  C   UNL     1      49.313   6.982  14.322  0.00  0.00    +0.000 A 
ATOM      4  C   UNL     1      49.609   7.178  15.671  0.00  0.00    +0.000 A 
ATOM      5  C   UNL     1      49.009   8.221  16.393  0.00  0.00    +0.000 A 
ATOM      6  C   UNL     1      48.132   9.086  15.731  0.00  0.00    +0.000 A 
ATOM      7  C   UNL     1      47.821   8.878  14.389  0.00  0.00    +0.000 A 
BRANCH   5   8
ATOM      8  C   UNL     1      49.232   8.358  17.879  0.00  0.00    +0.000 C 
BRANCH   8   9
ATOM      9  N   UNL     1      48.103   7.821  18.636  0.00  0.00    +0.000 NA
ATOM     10  H   UNL     1      47.403   7.497  17.961  0.00  0.00    +0.000 HD
BRANCH   9  11
ATOM     11  CA  UNL     1      48.482   6.642  19.456  0.00  0.00    +0.000 C 
BRANCH  11  12
ATOM     12  C   UNL     1      48.314   5.410  18.555  0.00  0.00    +0.000 C 
ATOM     13  N   UNL     1      49.217   4.464  18.483  0.00  0.00    +0.000 NA
ATOM     14  C   UNL     1      48.618   3.492  17.514  0.00  0.00    +0.000 C 
ATOM     15  C   UNL     1      47.133   3.853  17.401  0.00  0.00    +0.000 C 
ATOM     16  N   UNL     1      47.181   5.235  17.787  0.00  0.00    +0.000 N 
ATOM     17  H   UNL     1      46.336   5.698  18.112  0.00  0.00    +0.000 HD
ENDBRANCH  11  12
BRANCH  11  18
ATOM     18  C   UNL     1      47.602   6.465  20.709  0.00  0.00    +0.000 C 
BRANCH  18  19
ATOM     19  O   UNL     1      47.312   5.087  20.966  0.00  0.00    +0.000 OA
ATOM     20  H   UNL     1      47.495   4.953  21.914  0.00  0.00    +0.000 HD
ENDBRANCH  18  19
ENDBRANCH  11  18
ENDBRANCH   9  11
ENDBRANCH   8   9
ENDBRANCH   5   8
ENDBRANCH   1   2
BRANCH   1  21
ATOM     21  N   UNL     1      46.969   6.549  12.085  0.00  0.00    +0.000 NA
ATOM     22  H   UNL     1      47.424   5.679  11.816  0.00  0.00    +0.000 HD
BRANCH  21  23
ATOM     23  C   UNL     1      45.987   6.889  11.031  0.00  0.00    +0.000 C 
BRANCH  23  24
ATOM     24  C   UNL     1      45.410   5.568  10.499  0.00  0.00    +0.000 A 
ATOM     25  C   UNL     1      45.541   5.159   9.181  0.00  0.00    +0.000 A 
ATOM     26  S   UNL     1      44.837   3.644   8.841  0.00  0.00    +0.000 S 
ATOM     27  C   UNL     1      44.305   3.467  10.452  0.00  0.00    +0.000 A 
ATOM     28  N   UNL     1      43.625   2.354  10.842  0.00  0.00    +0.000 NA
ATOM     29  C   UNL     1      43.315   2.326  12.087  0.00  0.00    +0.000 A 
ATOM     30  N   UNL     1      43.591   3.329  12.972  0.00  0.00    +0.000 N 
ATOM     31  C   UNL     1      44.206   4.517  12.613  0.00  0.00    +0.000 A 
ATOM     32  O   UNL     1      44.342   5.436  13.414  0.00  0.00    +0.000 OA
ATOM     33  C   UNL     1      44.648   4.562  11.232  0.00  0.00    +0.000 A 
ATOM     34  H   UNL     1      43.279   3.263  13.941  0.00  0.00    +0.000 HD
ENDBRANCH  23  24
BRANCH  23  35
ATOM     35  C   UNL     1      44.884   7.896  11.528  0.00  0.00    +0.000 C 
BRANCH  35  36
ATOM     36  N   UNL     1      43.495   7.661  11.073  0.00  0.00    +0.000 NA
ATOM     37  H   UNL     1      43.400   7.934  10.098  0.00  0.00    +0.000 HD
ATOM     38  H   UNL     1      42.866   8.253  11.617  0.00  0.00    +0.000 HD
ENDBRANCH  35  36
ENDBRANCH  23  35
ENDBRANCH  21  23
ENDBRANCH   1  21
TORSDOF 12
ENDMDL
MODEL 9
REMARK VINA RESULT:    -6.443      3.049      9.629
REMARK INTER + INTRA:         -11.657
REMARK INTER:                 -10.938
REMARK INTRA:                  -0.718
REMARK UNBOUND:                -1.071
REMARK  Name = 
REMARK  12 active torsions:
REMARK  status: ('A' for Active; 'I' for Inactive)
REMARK    1  A    between atoms: N_1  and  C_2
REMARK    2  A    between atoms: C_2  and  C_3
REMARK    3  A    between atoms: C_3  and  N_4
REMARK    4  A    between atoms: C_3  and  C_22
REMARK    5  A    between atoms: N_4  and  C_5
REMARK    6  A    between atoms: C_5  and  C_6
REMARK    7  A    between atoms: C_9  and  C_10
REMARK    8  A    between atoms: C_10  and  N_11
REMARK    9  A    between atoms: N_11  and  CA_12
REMARK   10  A    between atoms: CA_12  and  C_13
REMARK   11  A    between atoms: CA_12  and  C_15
REMARK   12  A    between atoms: C_13  and  O_14
REMARK                            x       y       z     vdW  Elec       q    Type
REMARK                         _______ _______ _______ _____ _____    ______ ____
ROOT
ATOM      1  C   UNL     1      47.347   6.681  12.552  0.00  0.00    +0.000 C 
ENDROOT
BRANCH   1   2
ATOM      2  C   UNL     1      47.574   5.982  13.870  0.00  0.00    +0.000 A 
ATOM      3  C   UNL     1      47.004   4.733  14.143  0.00  0.00    +0.000 A 
ATOM      4  C   UNL     1      47.182   4.138  15.392  0.00  0.00    +0.000 A 
ATOM      5  C   UNL     1      47.958   4.763  16.381  0.00  0.00    +0.000 A 
ATOM      6  C   UNL     1      48.579   5.981  16.085  0.00  0.00    +0.000 A 
ATOM      7  C   UNL     1      48.385   6.585  14.844  0.00  0.00    +0.000 A 
BRANCH   5   8
ATOM      8  C   UNL     1      48.049   4.183  17.771  0.00  0.00    +0.000 C 
BRANCH   8   9
ATOM      9  N   UNL     1      49.433   4.133  18.236  0.00  0.00    +0.000 NA
ATOM     10  H   UNL     1      50.036   4.369  17.441  0.00  0.00    +0.000 HD
BRANCH   9  11
ATOM     11  CA  UNL     1      49.711   5.137  19.294  0.00  0.00    +0.000 C 
BRANCH  11  12
ATOM     12  C   UNL     1      51.173   4.935  19.717  0.00  0.00    +0.000 C 
ATOM     13  N   UNL     1      51.766   5.711  20.588  0.00  0.00    +0.000 NA
ATOM     14  C   UNL     1      53.142   5.128  20.688  0.00  0.00    +0.000 C 
ATOM     15  C   UNL     1      53.064   3.729  20.067  0.00  0.00    +0.000 C 
ATOM     16  N   UNL     1      51.930   3.901  19.203  0.00  0.00    +0.000 N 
ATOM     17  H   UNL     1      51.419   3.086  18.872  0.00  0.00    +0.000 HD
ENDBRANCH  11  12
BRANCH  11  18
ATOM     18  C   UNL     1      48.808   4.979  20.533  0.00  0.00    +0.000 C 
BRANCH  18  19
ATOM     19  O   UNL     1      48.497   3.606  20.793  0.00  0.00    +0.000 OA
ATOM     20  H   UNL     1      49.280   3.101  20.506  0.00  0.00    +0.000 HD
ENDBRANCH  18  19
ENDBRANCH  11  18
ENDBRANCH   9  11
ENDBRANCH   8   9
ENDBRANCH   5   8
ENDBRANCH   1   2
BRANCH   1  21
ATOM     21  N   UNL     1      46.119   7.483  12.544  0.00  0.00    +0.000 NA
ATOM     22  H   UNL     1      45.557   7.220  13.351  0.00  0.00    +0.000 HD
BRANCH  21  23
ATOM     23  C   UNL     1      45.304   7.242  11.331  0.00  0.00    +0.000 C 
BRANCH  23  24
ATOM     24  C   UNL     1      44.694   5.838  11.459  0.00  0.00    +0.000 A 
ATOM     25  C   UNL     1      43.973   5.421  12.566  0.00  0.00    +0.000 A 
ATOM     26  S   UNL     1      43.377   3.828  12.459  0.00  0.00    +0.000 S 
ATOM     27  C   UNL     1      44.076   3.611  10.919  0.00  0.00    +0.000 A 
ATOM     28  N   UNL     1      43.928   2.435  10.247  0.00  0.00    +0.000 NA
ATOM     29  C   UNL     1      44.468   2.414   9.083  0.00  0.00    +0.000 A 
ATOM     30  N   UNL     1      45.177   3.449   8.543  0.00  0.00    +0.000 N 
ATOM     31  C   UNL     1      45.428   4.635   9.214  0.00  0.00    +0.000 A 
ATOM     32  O   UNL     1      46.156   5.498   8.737  0.00  0.00    +0.000 OA
ATOM     33  C   UNL     1      44.769   4.737  10.502  0.00  0.00    +0.000 A 
ATOM     34  H   UNL     1      45.617   3.351   7.629  0.00  0.00    +0.000 HD
ENDBRANCH  23  24
BRANCH  23  35
ATOM     35  C   UNL     1      44.233   8.369  11.083  0.00  0.00    +0.000 C 
BRANCH  35  36
ATOM     36  N   UNL     1      42.827   7.942  10.912  0.00  0.00    +0.000 NA
ATOM     37  H   UNL     1      42.200   8.678  11.229  0.00  0.00    +0.000 HD
ATOM     38  H   UNL     1      42.656   7.124  11.500  0.00  0.00    +0.000 HD
ENDBRANCH  35  36
ENDBRANCH  23  35
ENDBRANCH  21  23
ENDBRANCH   1  21
TORSDOF 12
ENDMDL
