MODEL 1
REMARK VINA RESULT:    -8.602      0.000      0.000
REMARK INTER + INTRA:         -13.600
REMARK INTER:                 -12.625
REMARK INTRA:                  -0.974
REMARK UNBOUND:                -0.974
REMARK  Name = 
REMARK  8 active torsions:
REMARK  status: ('A' for Active; 'I' for Inactive)
REMARK    1  A    between atoms: C_2  and  C_3
REMARK    2  A    between atoms: C_5  and  C_6
REMARK    3  A    between atoms: C_6  and  N_7
REMARK    4  A    between atoms: C_8  and  C_10
REMARK    5  A    between atoms: C_22  and  C_23
REMARK    6  A    between atoms: C_23  and  N_24
REMARK    7  A    between atoms: N_24  and  C_25
REMARK    8  A    between atoms: C_25  and  C_26
REMARK                            x       y       z     vdW  Elec       q    Type
REMARK                         _______ _______ _______ _____ _____    ______ ____
ROOT
ATOM      1  C   UNL     1      44.610   5.187  12.308  0.00  0.00    +0.000 A 
ATOM      2  C   UNL     1      45.664   5.977  12.791  0.00  0.00    +0.000 A 
ATOM      3  C   UNL     1      46.788   5.387  13.373  0.00  0.00    +0.000 A 
ATOM      4  C   UNL     1      46.814   4.002  13.416  0.00  0.00    +0.000 A 
ATOM      5  N   UNL     1      45.828   3.209  12.933  0.00  0.00    +0.000 NA
ATOM      6  C   UNL     1      44.722   3.797  12.388  0.00  0.00    +0.000 A 
ENDROOT
BRANCH   1   8
ATOM      7  N   UNL     1      42.517   6.368  11.341  0.00  0.00    +0.000 NA
ATOM      8  C   UNL     1      43.466   5.849  11.762  0.00  0.00    +0.000 C 
ENDBRANCH   1   8
BRANCH   3   9
ATOM      9  C   UNL     1      47.930   6.217  13.882  0.00  0.00    +0.000 C 
BRANCH   9  10
ATOM     10  N   UNL     1      47.877   6.360  15.314  0.00  0.00    +0.000 N 
ATOM     11  C   UNL     1      49.023   6.465  16.063  0.00  0.00    +0.000 C 
ATOM     12  O   UNL     1      50.135   6.479  15.544  0.00  0.00    +0.000 OA
ATOM     13  H   UNL     1      47.008   6.115  15.781  0.00  0.00    +0.000 HD
BRANCH  11  14
ATOM     14  C   UNL     1      48.848   6.625  17.512  0.00  0.00    +0.000 A 
ATOM     15  C   UNL     1      48.788   7.900  18.061  0.00  0.00    +0.000 A 
ATOM     16  S   UNL     1      48.535   7.909  19.747  0.00  0.00    +0.000 S 
ATOM     17  C   UNL     1      48.550   6.208  19.813  0.00  0.00    +0.000 A 
ATOM     18  N   UNL     1      48.409   5.554  20.998  0.00  0.00    +0.000 NA
ATOM     19  C   UNL     1      48.471   4.268  20.908  0.00  0.00    +0.000 A 
ATOM     20  N   UNL     1      48.651   3.575  19.737  0.00  0.00    +0.000 N 
ATOM     21  C   UNL     1      48.758   4.190  18.513  0.00  0.00    +0.000 A 
ATOM     22  O   UNL     1      48.861   3.545  17.479  0.00  0.00    +0.000 OA
ATOM     23  C   UNL     1      48.720   5.642  18.562  0.00  0.00    +0.000 A 
ATOM     24  H   UNL     1      48.678   2.567  19.737  0.00  0.00    +0.000 HD
ENDBRANCH  11  14
ENDBRANCH   9  10
ENDBRANCH   3   9
BRANCH   6  25
ATOM     25  C   UNL     1      43.660   2.843  11.839  0.00  0.00    +0.000 C 
BRANCH  25  26
ATOM     26  N   UNL     1      44.105   2.142  10.630  0.00  0.00    +0.000 NA
ATOM     27  H   UNL     1      43.427   1.427  10.375  0.00  0.00    +0.000 HD
BRANCH  26  28
ATOM     28  C   UNL     1      44.272   3.052   9.490  0.00  0.00    +0.000 C 
BRANCH  28  29
ATOM     29  C   UNL     1      45.379   2.594   8.554  0.00  0.00    +0.000 A 
ATOM     30  C   UNL     1      45.995   3.507   7.696  0.00  0.00    +0.000 A 
ATOM     31  C   UNL     1      47.016   3.067   6.858  0.00  0.00    +0.000 A 
ATOM     32  C   UNL     1      47.394   1.731   6.891  0.00  0.00    +0.000 A 
ATOM     33  C   UNL     1      46.733   0.888   7.768  0.00  0.00    +0.000 A 
ATOM     34  N   UNL     1      45.741   1.286   8.597  0.00  0.00    +0.000 NA
ENDBRANCH  28  29
ENDBRANCH  26  28
ENDBRANCH  25  26
ENDBRANCH   6  25
TORSDOF 8
ENDMDL
MODEL 2
REMARK VINA RESULT:    -8.445      1.513      2.352
REMARK INTER + INTRA:         -13.369
REMARK INTER:                 -12.281
REMARK INTRA:                  -1.089
REMARK UNBOUND:                -0.974
REMARK  Name = 
REMARK  8 active torsions:
REMARK  status: ('A' for Active; 'I' for Inactive)
REMARK    1  A    between atoms: C_2  and  C_3
REMARK    2  A    between atoms: C_5  and  C_6
REMARK    3  A    between atoms: C_6  and  N_7
REMARK    4  A    between atoms: C_8  and  C_10
REMARK    5  A    between atoms: C_22  and  C_23
REMARK    6  A    between atoms: C_23  and  N_24
REMARK    7  A    between atoms: N_24  and  C_25
REMARK    8  A    between atoms: C_25  and  C_26
REMARK                            x       y       z     vdW  Elec       q    Type
REMARK                         _______ _______ _______ _____ _____    ______ ____
ROOT
ATOM      1  C   UNL     1      45.522   5.441  12.426  0.00  0.00    +0.000 A 
ATOM      2  C   UNL     1      46.471   6.253  13.064  0.00  0.00    +0.000 A 
ATOM      3  C   UNL     1      46.493   7.632  12.842  0.00  0.00    +0.000 A 
ATOM      4  C   UNL     1      45.522   8.144  11.996  0.00  0.00    +0.000 A 
ATOM      5  N   UNL     1      44.573   7.392  11.387  0.00  0.00    +0.000 NA
ATOM      6  C   UNL     1      44.576   6.041  11.592  0.00  0.00    +0.000 A 
ENDROOT
BRANCH   1   8
ATOM      7  N   UNL     1      45.613   2.891  12.877  0.00  0.00    +0.000 NA
ATOM      8  C   UNL     1      45.576   4.030  12.657  0.00  0.00    +0.000 C 
ENDBRANCH   1   8
BRANCH   3   9
ATOM      9  C   UNL     1      47.493   8.516  13.527  0.00  0.00    +0.000 C 
BRANCH   9  10
ATOM     10  N   UNL     1      47.788   8.043  14.855  0.00  0.00    +0.000 N 
ATOM     11  C   UNL     1      48.903   7.284  15.110  0.00  0.00    +0.000 C 
ATOM     12  O   UNL     1      49.712   7.008  14.230  0.00  0.00    +0.000 OA
ATOM     13  H   UNL     1      47.034   8.050  15.537  0.00  0.00    +0.000 HD
BRANCH  11  14
ATOM     14  C   UNL     1      49.112   6.872  16.504  0.00  0.00    +0.000 A 
ATOM     15  C   UNL     1      49.712   7.751  17.398  0.00  0.00    +0.000 A 
ATOM     16  S   UNL     1      49.837   7.137  18.984  0.00  0.00    +0.000 S 
ATOM     17  C   UNL     1      49.142   5.653  18.522  0.00  0.00    +0.000 A 
ATOM     18  N   UNL     1      48.982   4.647  19.424  0.00  0.00    +0.000 NA
ATOM     19  C   UNL     1      48.473   3.567  18.933  0.00  0.00    +0.000 A 
ATOM     20  N   UNL     1      48.099   3.406  17.622  0.00  0.00    +0.000 N 
ATOM     21  C   UNL     1      48.204   4.406  16.686  0.00  0.00    +0.000 A 
ATOM     22  O   UNL     1      47.810   4.253  15.538  0.00  0.00    +0.000 OA
ATOM     23  C   UNL     1      48.797   5.636  17.183  0.00  0.00    +0.000 A 
ATOM     24  H   UNL     1      47.695   2.537  17.307  0.00  0.00    +0.000 HD
ENDBRANCH  11  14
ENDBRANCH   9  10
ENDBRANCH   3   9
BRANCH   6  25
ATOM     25  C   UNL     1      43.463   5.258  10.895  0.00  0.00    +0.000 C 
BRANCH  25  26
ATOM     26  N   UNL     1      43.855   4.790   9.561  0.00  0.00    +0.000 NA
ATOM     27  H   UNL     1      44.675   5.303   9.242  0.00  0.00    +0.000 HD
BRANCH  26  28
ATOM     28  C   UNL     1      44.169   3.356   9.545  0.00  0.00    +0.000 C 
BRANCH  28  29
ATOM     29  C   UNL     1      45.302   3.032   8.583  0.00  0.00    +0.000 A 
ATOM     30  C   UNL     1      45.811   1.734   8.511  0.00  0.00    +0.000 A 
ATOM     31  C   UNL     1      46.839   1.459   7.613  0.00  0.00    +0.000 A 
ATOM     32  C   UNL     1      47.336   2.480   6.815  0.00  0.00    +0.000 A 
ATOM     33  C   UNL     1      46.779   3.741   6.947  0.00  0.00    +0.000 A 
ATOM     34  N   UNL     1      45.777   4.039   7.807  0.00  0.00    +0.000 NA
ENDBRANCH  28  29
ENDBRANCH  26  28
ENDBRANCH  25  26
ENDBRANCH   6  25
TORSDOF 8
ENDMDL
MODEL 3
REMARK VINA RESULT:    -8.356      1.520      2.284
REMARK INTER + INTRA:         -13.239
REMARK INTER:                 -12.095
REMARK INTRA:                  -1.144
REMARK UNBOUND:                -0.974
REMARK  Name = 
REMARK  8 active torsions:
REMARK  status: ('A' for Active; 'I' for Inactive)
REMARK    1  A    between atoms: C_2  and  C_3
REMARK    2  A    between atoms: C_5  and  C_6
REMARK    3  A    between atoms: C_6  and  N_7
REMARK    4  A    between atoms: C_8  and  C_10
REMARK    5  A    between atoms: C_22  and  C_23
REMARK    6  A    between atoms: C_23  and  N_24
REMARK    7  A    between atoms: N_24  and  C_25
REMARK    8  A    between atoms: C_25  and  C_26
REMARK                            x       y       z     vdW  Elec       q    Type
REMARK                         _______ _______ _______ _____ _____    ______ ____
ROOT
ATOM      1  C   UNL     1      44.874   5.295  12.371  0.00  0.00    +0.000 A 
ATOM      2  C   UNL     1      45.928   6.021  12.948  0.00  0.00    +0.000 A 
ATOM      3  C   UNL     1      46.962   5.364  13.616  0.00  0.00    +0.000 A 
ATOM      4  C   UNL     1      46.905   3.979  13.649  0.00  0.00    +0.000 A 
ATOM      5  N   UNL     1      45.918   3.247  13.077  0.00  0.00    +0.000 NA
ATOM      6  C   UNL     1      44.898   3.901  12.447  0.00  0.00    +0.000 A 
ENDROOT
BRANCH   1   8
ATOM      7  N   UNL     1      42.987   6.635  11.207  0.00  0.00    +0.000 NA
ATOM      8  C   UNL     1      43.819   6.025  11.738  0.00  0.00    +0.000 C 
ENDBRANCH   1   8
BRANCH   3   9
ATOM      9  C   UNL     1      48.103   6.124  14.226  0.00  0.00    +0.000 C 
BRANCH   9  10
ATOM     10  N   UNL     1      47.858   6.411  15.615  0.00  0.00    +0.000 N 
ATOM     11  C   UNL     1      48.659   5.892  16.603  0.00  0.00    +0.000 C 
ATOM     12  O   UNL     1      49.634   5.194  16.344  0.00  0.00    +0.000 OA
ATOM     13  H   UNL     1      46.943   6.775  15.868  0.00  0.00    +0.000 HD
BRANCH  11  14
ATOM     14  C   UNL     1      48.326   6.267  17.983  0.00  0.00    +0.000 A 
ATOM     15  C   UNL     1      48.264   5.287  18.967  0.00  0.00    +0.000 A 
ATOM     16  S   UNL     1      47.913   5.896  20.520  0.00  0.00    +0.000 S 
ATOM     17  C   UNL     1      47.778   7.485  19.926  0.00  0.00    +0.000 A 
ATOM     18  N   UNL     1      47.459   8.515  20.755  0.00  0.00    +0.000 NA
ATOM     19  C   UNL     1      47.358   9.661  20.168  0.00  0.00    +0.000 A 
ATOM     20  N   UNL     1      47.558   9.871  18.827  0.00  0.00    +0.000 N 
ATOM     21  C   UNL     1      47.920   8.870  17.959  0.00  0.00    +0.000 A 
ATOM     22  O   UNL     1      48.148   9.097  16.779  0.00  0.00    +0.000 OA
ATOM     23  C   UNL     1      48.022   7.554  18.566  0.00  0.00    +0.000 A 
ATOM     24  H   UNL     1      47.474  10.797  18.435  0.00  0.00    +0.000 HD
ENDBRANCH  11  14
ENDBRANCH   9  10
ENDBRANCH   3   9
BRANCH   6  25
ATOM     25  C   UNL     1      43.832   3.013  11.803  0.00  0.00    +0.000 C 
BRANCH  25  26
ATOM     26  N   UNL     1      44.336   2.295  10.627  0.00  0.00    +0.000 NA
ATOM     27  H   UNL     1      43.718   1.515  10.408  0.00  0.00    +0.000 HD
BRANCH  26  28
ATOM     28  C   UNL     1      44.430   3.161   9.445  0.00  0.00    +0.000 C 
BRANCH  28  29
ATOM     29  C   UNL     1      45.472   2.663   8.456  0.00  0.00    +0.000 A 
ATOM     30  C   UNL     1      45.989   3.525   7.488  0.00  0.00    +0.000 A 
ATOM     31  C   UNL     1      46.952   3.050   6.602  0.00  0.00    +0.000 A 
ATOM     32  C   UNL     1      47.373   1.729   6.699  0.00  0.00    +0.000 A 
ATOM     33  C   UNL     1      46.810   0.937   7.685  0.00  0.00    +0.000 A 
ATOM     34  N   UNL     1      45.875   1.370   8.563  0.00  0.00    +0.000 NA
ENDBRANCH  28  29
ENDBRANCH  26  28
ENDBRANCH  25  26
ENDBRANCH   6  25
TORSDOF 8
ENDMDL
MODEL 4
REMARK VINA RESULT:    -8.327      1.957      2.962
REMARK INTER + INTRA:         -13.196
REMARK INTER:                 -12.168
REMARK INTRA:                  -1.029
REMARK UNBOUND:                -0.974
REMARK  Name = 
REMARK  8 active torsions:
REMARK  status: ('A' for Active; 'I' for Inactive)
REMARK    1  A    between atoms: C_2  and  C_3
REMARK    2  A    between atoms: C_5  and  C_6
REMARK    3  A    between atoms: C_6  and  N_7
REMARK    4  A    between atoms: C_8  and  C_10
REMARK    5  A    between atoms: C_22  and  C_23
REMARK    6  A    between atoms: C_23  and  N_24
REMARK    7  A    between atoms: N_24  and  C_25
REMARK    8  A    between atoms: C_25  and  C_26
REMARK                            x       y       z     vdW  Elec       q    Type
REMARK                         _______ _______ _______ _____ _____    ______ ____
ROOT
ATOM      1  C   UNL     1      45.867   4.969  12.900  0.00  0.00    +0.000 A 
ATOM      2  C   UNL     1      46.277   6.289  13.139  0.00  0.00    +0.000 A 
ATOM      3  C   UNL     1      45.613   7.362  12.540  0.00  0.00    +0.000 A 
ATOM      4  C   UNL     1      44.526   7.053  11.737  0.00  0.00    +0.000 A 
ATOM      5  N   UNL     1      44.085   5.792  11.508  0.00  0.00    +0.000 NA
ATOM      6  C   UNL     1      44.758   4.749  12.079  0.00  0.00    +0.000 A 
ENDROOT
BRANCH   1   8
ATOM      7  N   UNL     1      47.192   3.043  14.015  0.00  0.00    +0.000 NA
ATOM      8  C   UNL     1      46.613   3.910  13.504  0.00  0.00    +0.000 C 
ENDBRANCH   1   8
BRANCH   3   9
ATOM      9  C   UNL     1      46.030   8.780  12.798  0.00  0.00    +0.000 C 
BRANCH   9  10
ATOM     10  N   UNL     1      46.744   8.899  14.043  0.00  0.00    +0.000 N 
ATOM     11  C   UNL     1      48.112   9.016  14.072  0.00  0.00    +0.000 C 
ATOM     12  O   UNL     1      48.779   9.062  13.043  0.00  0.00    +0.000 OA
ATOM     13  H   UNL     1      46.258   8.627  14.893  0.00  0.00    +0.000 HD
BRANCH  11  14
ATOM     14  C   UNL     1      48.731   9.149  15.397  0.00  0.00    +0.000 A 
ATOM     15  C   UNL     1      48.913  10.411  15.948  0.00  0.00    +0.000 A 
ATOM     16  S   UNL     1      49.600  10.386  17.509  0.00  0.00    +0.000 S 
ATOM     17  C   UNL     1      49.728   8.689  17.484  0.00  0.00    +0.000 A 
ATOM     18  N   UNL     1      50.273   8.015  18.532  0.00  0.00    +0.000 NA
ATOM     19  C   UNL     1      50.338   6.736  18.368  0.00  0.00    +0.000 A 
ATOM     20  N   UNL     1      49.898   6.069  17.253  0.00  0.00    +0.000 N 
ATOM     21  C   UNL     1      49.305   6.702  16.188  0.00  0.00    +0.000 A 
ATOM     22  O   UNL     1      48.870   6.076  15.231  0.00  0.00    +0.000 OA
ATOM     23  C   UNL     1      49.230   8.148  16.311  0.00  0.00    +0.000 A 
ATOM     24  H   UNL     1      49.968   5.064  17.195  0.00  0.00    +0.000 HD
ENDBRANCH  11  14
ENDBRANCH   9  10
ENDBRANCH   3   9
BRANCH   6  25
ATOM     25  C   UNL     1      44.191   3.356  11.799  0.00  0.00    +0.000 C 
BRANCH  25  26
ATOM     26  N   UNL     1      44.980   2.618  10.806  0.00  0.00    +0.000 NA
ATOM     27  H   UNL     1      44.934   1.620  11.001  0.00  0.00    +0.000 HD
BRANCH  26  28
ATOM     28  C   UNL     1      44.503   2.847   9.437  0.00  0.00    +0.000 C 
BRANCH  28  29
ATOM     29  C   UNL     1      45.551   2.474   8.399  0.00  0.00    +0.000 A 
ATOM     30  C   UNL     1      45.994   3.424   7.478  0.00  0.00    +0.000 A 
ATOM     31  C   UNL     1      46.964   3.063   6.547  0.00  0.00    +0.000 A 
ATOM     32  C   UNL     1      47.464   1.767   6.553  0.00  0.00    +0.000 A 
ATOM     33  C   UNL     1      46.971   0.883   7.498  0.00  0.00    +0.000 A 
ATOM     34  N   UNL     1      46.032   1.205   8.418  0.00  0.00    +0.000 NA
ENDBRANCH  28  29
ENDBRANCH  26  28
ENDBRANCH  25  26
ENDBRANCH   6  25
TORSDOF 8
ENDMDL
MODEL 5
REMARK VINA RESULT:    -8.110      4.025      5.502
REMARK INTER + INTRA:         -12.877
REMARK INTER:                 -11.635
REMARK INTRA:                  -1.242
REMARK UNBOUND:                -0.974
REMARK  Name = 
REMARK  8 active torsions:
REMARK  status: ('A' for Active; 'I' for Inactive)
REMARK    1  A    between atoms: C_2  and  C_3
REMARK    2  A    between atoms: C_5  and  C_6
REMARK    3  A    between atoms: C_6  and  N_7
REMARK    4  A    between atoms: C_8  and  C_10
REMARK    5  A    between atoms: C_22  and  C_23
REMARK    6  A    between atoms: C_23  and  N_24
REMARK    7  A    between atoms: N_24  and  C_25
REMARK    8  A    between atoms: C_25  and  C_26
REMARK                            x       y       z     vdW  Elec       q    Type
REMARK                         _______ _______ _______ _____ _____    ______ ____
ROOT
ATOM      1  C   UNL     1      45.742   4.999  12.966  0.00  0.00    +0.000 A 
ATOM      2  C   UNL     1      46.024   6.360  13.160  0.00  0.00    +0.000 A 
ATOM      3  C   UNL     1      45.262   7.343  12.527  0.00  0.00    +0.000 A 
ATOM      4  C   UNL     1      44.211   6.905  11.735  0.00  0.00    +0.000 A 
ATOM      5  N   UNL     1      43.893   5.602  11.550  0.00  0.00    +0.000 NA
ATOM      6  C   UNL     1      44.660   4.647  12.154  0.00  0.00    +0.000 A 
ENDROOT
BRANCH   1   8
ATOM      7  N   UNL     1      47.287   3.281  14.137  0.00  0.00    +0.000 NA
ATOM      8  C   UNL     1      46.585   4.037  13.605  0.00  0.00    +0.000 C 
ENDBRANCH   1   8
BRANCH   3   9
ATOM      9  C   UNL     1      45.542   8.802  12.735  0.00  0.00    +0.000 C 
BRANCH   9  10
ATOM     10  N   UNL     1      46.957   9.062  12.790  0.00  0.00    +0.000 N 
ATOM     11  C   UNL     1      47.520  10.096  12.084  0.00  0.00    +0.000 C 
ATOM     12  O   UNL     1      46.840  10.863  11.409  0.00  0.00    +0.000 OA
ATOM     13  H   UNL     1      47.560   8.320  13.135  0.00  0.00    +0.000 HD
BRANCH  11  14
ATOM     14  C   UNL     1      48.970  10.278  12.229  0.00  0.00    +0.000 A 
ATOM     15  C   UNL     1      49.469  11.488  12.695  0.00  0.00    +0.000 A 
ATOM     16  S   UNL     1      51.166  11.516  12.850  0.00  0.00    +0.000 S 
ATOM     17  C   UNL     1      51.302   9.930  12.248  0.00  0.00    +0.000 A 
ATOM     18  N   UNL     1      52.520   9.343  12.095  0.00  0.00    +0.000 NA
ATOM     19  C   UNL     1      52.479   8.152  11.599  0.00  0.00    +0.000 A 
ATOM     20  N   UNL     1      51.329   7.489  11.251  0.00  0.00    +0.000 N 
ATOM     21  C   UNL     1      50.076   8.026  11.425  0.00  0.00    +0.000 A 
ATOM     22  O   UNL     1      49.065   7.390  11.159  0.00  0.00    +0.000 OA
ATOM     23  C   UNL     1      50.067   9.378  11.957  0.00  0.00    +0.000 A 
ATOM     24  H   UNL     1      51.368   6.553  10.879  0.00  0.00    +0.000 HD
ENDBRANCH  11  14
ENDBRANCH   9  10
ENDBRANCH   3   9
BRANCH   6  25
ATOM     25  C   UNL     1      44.230   3.198  11.922  0.00  0.00    +0.000 C 
BRANCH  25  26
ATOM     26  N   UNL     1      45.047   2.524  10.907  0.00  0.00    +0.000 NA
ATOM     27  H   UNL     1      45.150   1.539  11.144  0.00  0.00    +0.000 HD
BRANCH  26  28
ATOM     28  C   UNL     1      44.458   2.622   9.566  0.00  0.00    +0.000 C 
BRANCH  28  29
ATOM     29  C   UNL     1      45.498   2.430   8.473  0.00  0.00    +0.000 A 
ATOM     30  C   UNL     1      45.821   3.485   7.619  0.00  0.00    +0.000 A 
ATOM     31  C   UNL     1      46.786   3.290   6.634  0.00  0.00    +0.000 A 
ATOM     32  C   UNL     1      47.401   2.050   6.522  0.00  0.00    +0.000 A 
ATOM     33  C   UNL     1      47.023   1.053   7.406  0.00  0.00    +0.000 A 
ATOM     34  N   UNL     1      46.092   1.213   8.375  0.00  0.00    +0.000 NA
ENDBRANCH  28  29
ENDBRANCH  26  28
ENDBRANCH  25  26
ENDBRANCH   6  25
TORSDOF 8
ENDMDL
MODEL 6
REMARK VINA RESULT:    -7.223      3.655      5.513
REMARK INTER + INTRA:         -11.576
REMARK INTER:                 -10.506
REMARK INTRA:                  -1.069
REMARK UNBOUND:                -0.974
REMARK  Name = 
REMARK  8 active torsions:
REMARK  status: ('A' for Active; 'I' for Inactive)
REMARK    1  A    between atoms: C_2  and  C_3
REMARK    2  A    between atoms: C_5  and  C_6
REMARK    3  A    between atoms: C_6  and  N_7
REMARK    4  A    between atoms: C_8  and  C_10
REMARK    5  A    between atoms: C_22  and  C_23
REMARK    6  A    between atoms: C_23  and  N_24
REMARK    7  A    between atoms: N_24  and  C_25
REMARK    8  A    between atoms: C_25  and  C_26
REMARK                            x       y       z     vdW  Elec       q    Type
REMARK                         _______ _______ _______ _____ _____    ______ ____
ROOT
ATOM      1  C   UNL     1      46.144   5.126  12.922  0.00  0.00    +0.000 A 
ATOM      2  C   UNL     1      46.777   6.378  12.925  0.00  0.00    +0.000 A 
ATOM      3  C   UNL     1      46.226   7.456  12.229  0.00  0.00    +0.000 A 
ATOM      4  C   UNL     1      45.026   7.229  11.573  0.00  0.00    +0.000 A 
ATOM      5  N   UNL     1      44.374   6.042  11.575  0.00  0.00    +0.000 NA
ATOM      6  C   UNL     1      44.934   4.987  12.238  0.00  0.00    +0.000 A 
ENDROOT
BRANCH   1   8
ATOM      7  N   UNL     1      47.262   3.158  14.182  0.00  0.00    +0.000 NA
ATOM      8  C   UNL     1      46.778   4.048  13.615  0.00  0.00    +0.000 C 
ENDBRANCH   1   8
BRANCH   3   9
ATOM      9  C   UNL     1      46.883   8.805  12.234  0.00  0.00    +0.000 C 
BRANCH   9  10
ATOM     10  N   UNL     1      48.306   8.695  12.427  0.00  0.00    +0.000 N 
ATOM     11  C   UNL     1      48.908   9.159  13.571  0.00  0.00    +0.000 C 
ATOM     12  O   UNL     1      48.258   9.651  14.489  0.00  0.00    +0.000 OA
ATOM     13  H   UNL     1      48.882   8.519  11.608  0.00  0.00    +0.000 HD
BRANCH  11  14
ATOM     14  C   UNL     1      50.362   8.977  13.668  0.00  0.00    +0.000 A 
ATOM     15  C   UNL     1      50.901   8.321  14.768  0.00  0.00    +0.000 A 
ATOM     16  S   UNL     1      52.597   8.152  14.701  0.00  0.00    +0.000 S 
ATOM     17  C   UNL     1      52.677   8.998  13.226  0.00  0.00    +0.000 A 
ATOM     18  N   UNL     1      53.873   9.234  12.622  0.00  0.00    +0.000 NA
ATOM     19  C   UNL     1      53.792   9.913  11.527  0.00  0.00    +0.000 A 
ATOM     20  N   UNL     1      52.621  10.369  10.976  0.00  0.00    +0.000 N 
ATOM     21  C   UNL     1      51.389  10.121  11.528  0.00  0.00    +0.000 A 
ATOM     22  O   UNL     1      50.357  10.491  10.985  0.00  0.00    +0.000 OA
ATOM     23  C   UNL     1      51.426   9.381  12.778  0.00  0.00    +0.000 A 
ATOM     24  H   UNL     1      52.629  10.885  10.109  0.00  0.00    +0.000 HD
ENDBRANCH  11  14
ENDBRANCH   9  10
ENDBRANCH   3   9
BRANCH   6  25
ATOM     25  C   UNL     1      44.132   3.685  12.220  0.00  0.00    +0.000 C 
BRANCH  25  26
ATOM     26  N   UNL     1      44.564   2.774  11.153  0.00  0.00    +0.000 NA
ATOM     27  H   UNL     1      44.138   1.859  11.286  0.00  0.00    +0.000 HD
BRANCH  26  28
ATOM     28  C   UNL     1      44.201   3.268   9.820  0.00  0.00    +0.000 C 
BRANCH  28  29
ATOM     29  C   UNL     1      45.241   2.898   8.773  0.00  0.00    +0.000 A 
ATOM     30  C   UNL     1      45.720   3.864   7.887  0.00  0.00    +0.000 A 
ATOM     31  C   UNL     1      46.681   3.505   6.947  0.00  0.00    +0.000 A 
ATOM     32  C   UNL     1      47.138   2.194   6.909  0.00  0.00    +0.000 A 
ATOM     33  C   UNL     1      46.612   1.294   7.821  0.00  0.00    +0.000 A 
ATOM     34  N   UNL     1      45.680   1.613   8.749  0.00  0.00    +0.000 NA
ENDBRANCH  28  29
ENDBRANCH  26  28
ENDBRANCH  25  26
ENDBRANCH   6  25
TORSDOF 8
ENDMDL
MODEL 7
REMARK VINA RESULT:    -7.210      2.454      3.376
REMARK INTER + INTRA:         -11.557
REMARK INTER:                 -11.152
REMARK INTRA:                  -0.405
REMARK UNBOUND:                -0.974
REMARK  Name = 
REMARK  8 active torsions:
REMARK  status: ('A' for Active; 'I' for Inactive)
REMARK    1  A    between atoms: C_2  and  C_3
REMARK    2  A    between atoms: C_5  and  C_6
REMARK    3  A    between atoms: C_6  and  N_7
REMARK    4  A    between atoms: C_8  and  C_10
REMARK    5  A    between atoms: C_22  and  C_23
REMARK    6  A    between atoms: C_23  and  N_24
REMARK    7  A    between atoms: N_24  and  C_25
REMARK    8  A    between atoms: C_25  and  C_26
REMARK                            x       y       z     vdW  Elec       q    Type
REMARK                         _______ _______ _______ _____ _____    ______ ____
ROOT
ATOM      1  C   UNL     1      46.798   5.356  13.046  0.00  0.00    +0.000 A 
ATOM      2  C   UNL     1      47.410   5.820  14.220  0.00  0.00    +0.000 A 
ATOM      3  C   UNL     1      48.026   7.073  14.254  0.00  0.00    +0.000 A 
ATOM      4  C   UNL     1      47.970   7.829  13.093  0.00  0.00    +0.000 A 
ATOM      5  N   UNL     1      47.361   7.423  11.953  0.00  0.00    +0.000 NA
ATOM      6  C   UNL     1      46.784   6.185  11.922  0.00  0.00    +0.000 A 
ENDROOT
BRANCH   1   8
ATOM      7  N   UNL     1      45.775   2.976  13.039  0.00  0.00    +0.000 NA
ATOM      8  C   UNL     1      46.223   4.046  13.058  0.00  0.00    +0.000 C 
ENDBRANCH   1   8
BRANCH   3   9
ATOM      9  C   UNL     1      48.673   7.590  15.505  0.00  0.00    +0.000 C 
BRANCH   9  10
ATOM     10  N   UNL     1      49.737   6.724  15.942  0.00  0.00    +0.000 N 
ATOM     11  C   UNL     1      49.658   6.041  17.131  0.00  0.00    +0.000 C 
ATOM     12  O   UNL     1      48.667   6.111  17.852  0.00  0.00    +0.000 OA
ATOM     13  H   UNL     1      50.645   6.831  15.499  0.00  0.00    +0.000 HD
BRANCH  11  14
ATOM     14  C   UNL     1      50.793   5.173  17.466  0.00  0.00    +0.000 A 
ATOM     15  C   UNL     1      51.986   5.737  17.901  0.00  0.00    +0.000 A 
ATOM     16  S   UNL     1      53.185   4.589  18.293  0.00  0.00    +0.000 S 
ATOM     17  C   UNL     1      52.171   3.297  17.846  0.00  0.00    +0.000 A 
ATOM     18  N   UNL     1      52.608   2.011  17.915  0.00  0.00    +0.000 NA
ATOM     19  C   UNL     1      51.749   1.134  17.516  0.00  0.00    +0.000 A 
ATOM     20  N   UNL     1      50.487   1.426  17.062  0.00  0.00    +0.000 N 
ATOM     21  C   UNL     1      49.989   2.705  17.012  0.00  0.00    +0.000 A 
ATOM     22  O   UNL     1      48.841   2.931  16.656  0.00  0.00    +0.000 OA
ATOM     23  C   UNL     1      50.927   3.735  17.427  0.00  0.00    +0.000 A 
ATOM     24  H   UNL     1      49.861   0.689  16.776  0.00  0.00    +0.000 HD
ENDBRANCH  11  14
ENDBRANCH   9  10
ENDBRANCH   3   9
BRANCH   6  25
ATOM     25  C   UNL     1      46.094   5.802  10.612  0.00  0.00    +0.000 C 
BRANCH  25  26
ATOM     26  N   UNL     1      44.637   5.964  10.677  0.00  0.00    +0.000 NA
ATOM     27  H   UNL     1      44.342   6.697  10.033  0.00  0.00    +0.000 HD
BRANCH  26  28
ATOM     28  C   UNL     1      43.925   4.728  10.332  0.00  0.00    +0.000 C 
BRANCH  28  29
ATOM     29  C   UNL     1      44.735   3.848   9.393  0.00  0.00    +0.000 A 
ATOM     30  C   UNL     1      45.395   4.410   8.300  0.00  0.00    +0.000 A 
ATOM     31  C   UNL     1      46.142   3.587   7.462  0.00  0.00    +0.000 A 
ATOM     32  C   UNL     1      46.208   2.225   7.730  0.00  0.00    +0.000 A 
ATOM     33  C   UNL     1      45.523   1.744   8.832  0.00  0.00    +0.000 A 
ATOM     34  N   UNL     1      44.792   2.519   9.668  0.00  0.00    +0.000 NA
ENDBRANCH  28  29
ENDBRANCH  26  28
ENDBRANCH  25  26
ENDBRANCH   6  25
TORSDOF 8
ENDMDL
MODEL 8
REMARK VINA RESULT:    -7.137      3.836      8.970
REMARK INTER + INTRA:         -11.449
REMARK INTER:                 -10.235
REMARK INTRA:                  -1.214
REMARK UNBOUND:                -0.974
REMARK  Name = 
REMARK  8 active torsions:
REMARK  status: ('A' for Active; 'I' for Inactive)
REMARK    1  A    between atoms: C_2  and  C_3
REMARK    2  A    between atoms: C_5  and  C_6
REMARK    3  A    between atoms: C_6  and  N_7
REMARK    4  A    between atoms: C_8  and  C_10
REMARK    5  A    between atoms: C_22  and  C_23
REMARK    6  A    between atoms: C_23  and  N_24
REMARK    7  A    between atoms: N_24  and  C_25
REMARK    8  A    between atoms: C_25  and  C_26
REMARK                            x       y       z     vdW  Elec       q    Type
REMARK                         _______ _______ _______ _____ _____    ______ ____
ROOT
ATOM      1  C   UNL     1      48.191   5.115  16.435  0.00  0.00    +0.000 A 
ATOM      2  C   UNL     1      47.905   5.605  15.152  0.00  0.00    +0.000 A 
ATOM      3  C   UNL     1      48.647   6.657  14.609  0.00  0.00    +0.000 A 
ATOM      4  C   UNL     1      49.681   7.157  15.385  0.00  0.00    +0.000 A 
ATOM      5  N   UNL     1      50.002   6.688  16.615  0.00  0.00    +0.000 NA
ATOM      6  C   UNL     1      49.254   5.676  17.146  0.00  0.00    +0.000 A 
ENDROOT
BRANCH   1   8
ATOM      7  N   UNL     1      46.719   3.193  17.358  0.00  0.00    +0.000 NA
ATOM      8  C   UNL     1      47.369   4.067  16.956  0.00  0.00    +0.000 C 
ENDBRANCH   1   8
BRANCH   3   9
ATOM      9  C   UNL     1      48.363   7.183  13.233  0.00  0.00    +0.000 C 
BRANCH   9  10
ATOM     10  N   UNL     1      47.580   6.249  12.466  0.00  0.00    +0.000 N 
ATOM     11  C   UNL     1      46.477   6.656  11.757  0.00  0.00    +0.000 C 
ATOM     12  O   UNL     1      46.134   7.834  11.716  0.00  0.00    +0.000 OA
ATOM     13  H   UNL     1      47.692   5.259  12.670  0.00  0.00    +0.000 HD
BRANCH  11  14
ATOM     14  C   UNL     1      45.765   5.621  10.997  0.00  0.00    +0.000 A 
ATOM     15  C   UNL     1      45.816   5.630   9.608  0.00  0.00    +0.000 A 
ATOM     16  S   UNL     1      44.978   4.334   8.883  0.00  0.00    +0.000 S 
ATOM     17  C   UNL     1      44.471   3.743  10.397  0.00  0.00    +0.000 A 
ATOM     18  N   UNL     1      43.678   2.642  10.487  0.00  0.00    +0.000 NA
ATOM     19  C   UNL     1      43.343   2.323  11.692  0.00  0.00    +0.000 A 
ATOM     20  N   UNL     1      43.737   3.001  12.818  0.00  0.00    +0.000 N 
ATOM     21  C   UNL     1      44.569   4.093  12.779  0.00  0.00    +0.000 A 
ATOM     22  O   UNL     1      44.951   4.644  13.803  0.00  0.00    +0.000 OA
ATOM     23  C   UNL     1      44.956   4.510  11.442  0.00  0.00    +0.000 A 
ATOM     24  H   UNL     1      43.447   2.690  13.733  0.00  0.00    +0.000 HD
ENDBRANCH  11  14
ENDBRANCH   9  10
ENDBRANCH   3   9
BRANCH   6  25
ATOM     25  C   UNL     1      49.688   5.179  18.526  0.00  0.00    +0.000 C 
BRANCH  25  26
ATOM     26  N   UNL     1      50.991   4.504  18.496  0.00  0.00    +0.000 NA
ATOM     27  H   UNL     1      51.311   4.329  19.447  0.00  0.00    +0.000 HD
BRANCH  26  28
ATOM     28  C   UNL     1      50.937   3.224  17.780  0.00  0.00    +0.000 C 
BRANCH  28  29
ATOM     29  C   UNL     1      52.173   2.376  18.037  0.00  0.00    +0.000 A 
ATOM     30  C   UNL     1      52.273   1.097  17.486  0.00  0.00    +0.000 A 
ATOM     31  C   UNL     1      53.420   0.345  17.724  0.00  0.00    +0.000 A 
ATOM     32  C   UNL     1      54.435   0.881  18.508  0.00  0.00    +0.000 A 
ATOM     33  C   UNL     1      54.258   2.155  19.019  0.00  0.00    +0.000 A 
ATOM     34  N   UNL     1      53.157   2.913  18.803  0.00  0.00    +0.000 NA
ENDBRANCH  28  29
ENDBRANCH  26  28
ENDBRANCH  25  26
ENDBRANCH   6  25
TORSDOF 8
ENDMDL
MODEL 9
REMARK VINA RESULT:    -7.070      4.206      5.985
REMARK INTER + INTRA:         -11.352
REMARK INTER:                 -10.064
REMARK INTRA:                  -1.288
REMARK UNBOUND:                -0.974
REMARK  Name = 
REMARK  8 active torsions:
REMARK  status: ('A' for Active; 'I' for Inactive)
REMARK    1  A    between atoms: C_2  and  C_3
REMARK    2  A    between atoms: C_5  and  C_6
REMARK    3  A    between atoms: C_6  and  N_7
REMARK    4  A    between atoms: C_8  and  C_10
REMARK    5  A    between atoms: C_22  and  C_23
REMARK    6  A    between atoms: C_23  and  N_24
REMARK    7  A    between atoms: N_24  and  C_25
REMARK    8  A    between atoms: C_25  and  C_26
REMARK                            x       y       z     vdW  Elec       q    Type
REMARK                         _______ _______ _______ _____ _____    ______ ____
ROOT
ATOM      1  C   UNL     1      46.421   5.318  12.737  0.00  0.00    +0.000 A 
ATOM      2  C   UNL     1      47.441   5.696  13.624  0.00  0.00    +0.000 A 
ATOM      3  C   UNL     1      48.023   6.963  13.542  0.00  0.00    +0.000 A 
ATOM      4  C   UNL     1      47.522   7.819  12.572  0.00  0.00    +0.000 A 
ATOM      5  N   UNL     1      46.519   7.496  11.721  0.00  0.00    +0.000 NA
ATOM      6  C   UNL     1      45.974   6.245  11.793  0.00  0.00    +0.000 A 
ENDROOT
BRANCH   1   8
ATOM      7  N   UNL     1      45.441   2.926  12.904  0.00  0.00    +0.000 NA
ATOM      8  C   UNL     1      45.894   3.993  12.841  0.00  0.00    +0.000 C 
ENDBRANCH   1   8
BRANCH   3   9
ATOM      9  C   UNL     1      49.104   7.388  14.491  0.00  0.00    +0.000 C 
BRANCH   9  10
ATOM     10  N   UNL     1      50.373   7.508  13.821  0.00  0.00    +0.000 N 
ATOM     11  C   UNL     1      51.069   8.692  13.818  0.00  0.00    +0.000 C 
ATOM     12  O   UNL     1      50.659   9.683  14.415  0.00  0.00    +0.000 OA
ATOM     13  H   UNL     1      50.614   6.797  13.135  0.00  0.00    +0.000 HD
BRANCH  11  14
ATOM     14  C   UNL     1      52.360   8.693  13.119  0.00  0.00    +0.000 A 
ATOM     15  C   UNL     1      53.492   9.175  13.764  0.00  0.00    +0.000 A 
ATOM     16  S   UNL     1      54.914   9.061  12.831  0.00  0.00    +0.000 S 
ATOM     17  C   UNL     1      54.060   8.413  11.509  0.00  0.00    +0.000 A 
ATOM     18  N   UNL     1      54.698   8.108  10.347  0.00  0.00    +0.000 NA
ATOM     19  C   UNL     1      53.926   7.655   9.417  0.00  0.00    +0.000 A 
ATOM     20  N   UNL     1      52.573   7.469   9.548  0.00  0.00    +0.000 N 
ATOM     21  C   UNL     1      51.892   7.724  10.713  0.00  0.00    +0.000 A 
ATOM     22  O   UNL     1      50.695   7.495  10.819  0.00  0.00    +0.000 OA
ATOM     23  C   UNL     1      52.713   8.262  11.786  0.00  0.00    +0.000 A 
ATOM     24  H   UNL     1      52.029   7.098   8.783  0.00  0.00    +0.000 HD
ENDBRANCH  11  14
ENDBRANCH   9  10
ENDBRANCH   3   9
BRANCH   6  25
ATOM     25  C   UNL     1      44.831   5.958  10.819  0.00  0.00    +0.000 C 
BRANCH  25  26
ATOM     26  N   UNL     1      45.302   5.394   9.550  0.00  0.00    +0.000 NA
ATOM     27  H   UNL     1      46.311   5.260   9.584  0.00  0.00    +0.000 HD
BRANCH  26  28
ATOM     28  C   UNL     1      44.672   4.103   9.247  0.00  0.00    +0.000 C 
BRANCH  28  29
ATOM     29  C   UNL     1      45.585   3.202   8.430  0.00  0.00    +0.000 A 
ATOM     30  C   UNL     1      46.395   3.744   7.430  0.00  0.00    +0.000 A 
ATOM     31  C   UNL     1      47.233   2.901   6.705  0.00  0.00    +0.000 A 
ATOM     32  C   UNL     1      47.240   1.542   6.989  0.00  0.00    +0.000 A 
ATOM     33  C   UNL     1      46.406   1.082   7.995  0.00  0.00    +0.000 A 
ATOM     34  N   UNL     1      45.584   1.876   8.719  0.00  0.00    +0.000 NA
ENDBRANCH  28  29
ENDBRANCH  26  28
ENDBRANCH  25  26
ENDBRANCH   6  25
TORSDOF 8
ENDMDL
