MODEL 1
REMARK VINA RESULT:    -7.481      0.000      0.000
REMARK INTER + INTRA:         -10.774
REMARK INTER:                 -10.105
REMARK INTRA:                  -0.669
REMARK UNBOUND:                -0.669
REMARK  Name = 
REMARK  7 active torsions:
REMARK  status: ('A' for Active; 'I' for Inactive)
REMARK    1  A    between atoms: N_1  and  C_2
REMARK    2  A    between atoms: C_2  and  C_3
REMARK    3  A    between atoms: C_6  and  O_7
REMARK    4  A    between atoms: O_7  and  C_8
REMARK    5  A    between atoms: C_8  and  C_9
REMARK    6  A    between atoms: C_9  and  O_10
REMARK    7  A    between atoms: C_9  and  C_11
REMARK                            x       y       z     vdW  Elec       q    Type
REMARK                         _______ _______ _______ _____ _____    ______ ____
ROOT
ATOM      1  C   UNL     1      46.191   2.037   7.979  0.00  0.00    +0.000 A 
ATOM      2  C   UNL     1      45.382   1.639   9.057  0.00  0.00    +0.000 A 
ATOM      3  C   UNL     1      44.511   2.543   9.670  0.00  0.00    +0.000 A 
ATOM      4  C   UNL     1      44.418   3.859   9.218  0.00  0.00    +0.000 A 
ATOM      5  C   UNL     1      45.221   4.269   8.155  0.00  0.00    +0.000 A 
ATOM      6  C   UNL     1      46.096   3.365   7.539  0.00  0.00    +0.000 A 
ATOM      7 CL   UNL     1      47.024   3.952   6.201  0.00  0.00    +0.000 Cl
ENDROOT
BRANCH   1   8
ATOM      8  C   UNL     1      47.069   1.016   7.303  0.00  0.00    +0.000 C 
BRANCH   8   9
ATOM      9  N   UNL     1      46.754  -0.330   7.769  0.00  0.00    +0.000 NA
ATOM     10  H   UNL     1      47.602  -0.893   7.752  0.00  0.00    +0.000 HD
ATOM     11  H   UNL     1      46.118  -0.768   7.103  0.00  0.00    +0.000 HD
ENDBRANCH   8   9
ENDBRANCH   1   8
BRANCH   4  12
ATOM     12  O   UNL     1      43.501   4.638   9.871  0.00  0.00    +0.000 OA
BRANCH  12  13
ATOM     13  C   UNL     1      43.280   4.346  11.259  0.00  0.00    +0.000 C 
BRANCH  13  14
ATOM     14  C   UNL     1      43.672   5.552  12.136  0.00  0.00    +0.000 C 
BRANCH  14  15
ATOM     15  C   UNL     1      45.129   5.587  12.542  0.00  0.00    +0.000 A 
ATOM     16  C   UNL     1      45.592   4.762  13.572  0.00  0.00    +0.000 A 
ATOM     17  C   UNL     1      46.934   4.815  13.921  0.00  0.00    +0.000 A 
ATOM     18  N   UNL     1      47.835   5.622  13.326  0.00  0.00    +0.000 NA
ATOM     19  C   UNL     1      47.376   6.404  12.328  0.00  0.00    +0.000 A 
ATOM     20  C   UNL     1      46.055   6.418  11.905  0.00  0.00    +0.000 A 
ENDBRANCH  14  15
BRANCH  14  21
ATOM     21  O   UNL     1      42.858   5.618  13.307  0.00  0.00    +0.000 OA
ATOM     22  H   UNL     1      42.124   6.223  13.096  0.00  0.00    +0.000 HD
ENDBRANCH  14  21
ENDBRANCH  13  14
ENDBRANCH  12  13
ENDBRANCH   4  12
TORSDOF 7
ENDMDL
MODEL 2
REMARK VINA RESULT:    -7.345      1.535      1.886
REMARK INTER + INTRA:         -10.591
REMARK INTER:                  -9.943
REMARK INTRA:                  -0.647
REMARK UNBOUND:                -0.669
REMARK  Name = 
REMARK  7 active torsions:
REMARK  status: ('A' for Active; 'I' for Inactive)
REMARK    1  A    between atoms: N_1  and  C_2
REMARK    2  A    between atoms: C_2  and  C_3
REMARK    3  A    between atoms: C_6  and  O_7
REMARK    4  A    between atoms: O_7  and  C_8
REMARK    5  A    between atoms: C_8  and  C_9
REMARK    6  A    between atoms: C_9  and  O_10
REMARK    7  A    between atoms: C_9  and  C_11
REMARK                            x       y       z     vdW  Elec       q    Type
REMARK                         _______ _______ _______ _____ _____    ______ ____
ROOT
ATOM      1  C   UNL     1      46.334   2.796   7.243  0.00  0.00    +0.000 A 
ATOM      2  C   UNL     1      45.760   4.010   7.657  0.00  0.00    +0.000 A 
ATOM      3  C   UNL     1      44.941   4.066   8.788  0.00  0.00    +0.000 A 
ATOM      4  C   UNL     1      44.683   2.918   9.536  0.00  0.00    +0.000 A 
ATOM      5  C   UNL     1      45.238   1.705   9.131  0.00  0.00    +0.000 A 
ATOM      6  C   UNL     1      46.060   1.646   7.997  0.00  0.00    +0.000 A 
ATOM      7 CL   UNL     1      46.737   0.106   7.593  0.00  0.00    +0.000 Cl
ENDROOT
BRANCH   1   8
ATOM      8  C   UNL     1      47.263   2.789   6.057  0.00  0.00    +0.000 C 
BRANCH   8   9
ATOM      9  N   UNL     1      48.639   2.547   6.476  0.00  0.00    +0.000 NA
ATOM     10  H   UNL     1      48.666   1.710   7.055  0.00  0.00    +0.000 HD
ATOM     11  H   UNL     1      48.937   3.313   7.080  0.00  0.00    +0.000 HD
ENDBRANCH   8   9
ENDBRANCH   1   8
BRANCH   4  12
ATOM     12  O   UNL     1      43.901   3.106  10.643  0.00  0.00    +0.000 OA
BRANCH  12  13
ATOM     13  C   UNL     1      43.504   4.455  10.931  0.00  0.00    +0.000 C 
BRANCH  13  14
ATOM     14  C   UNL     1      43.829   4.816  12.394  0.00  0.00    +0.000 C 
BRANCH  14  15
ATOM     15  C   UNL     1      45.267   5.213  12.640  0.00  0.00    +0.000 A 
ATOM     16  C   UNL     1      46.002   4.601  13.661  0.00  0.00    +0.000 A 
ATOM     17  C   UNL     1      47.320   4.985  13.861  0.00  0.00    +0.000 A 
ATOM     18  N   UNL     1      47.950   5.924  13.127  0.00  0.00    +0.000 NA
ATOM     19  C   UNL     1      47.232   6.498  12.140  0.00  0.00    +0.000 A 
ATOM     20  C   UNL     1      45.913   6.178  11.860  0.00  0.00    +0.000 A 
ENDBRANCH  14  15
BRANCH  14  21
ATOM     21  O   UNL     1      43.483   3.745  13.273  0.00  0.00    +0.000 OA
ATOM     22  H   UNL     1      44.124   3.032  13.101  0.00  0.00    +0.000 HD
ENDBRANCH  14  21
ENDBRANCH  13  14
ENDBRANCH  12  13
ENDBRANCH   4  12
TORSDOF 7
ENDMDL
MODEL 3
REMARK VINA RESULT:    -7.161      2.521      6.322
REMARK INTER + INTRA:         -10.342
REMARK INTER:                  -9.834
REMARK INTRA:                  -0.508
REMARK UNBOUND:                -0.669
REMARK  Name = 
REMARK  7 active torsions:
REMARK  status: ('A' for Active; 'I' for Inactive)
REMARK    1  A    between atoms: N_1  and  C_2
REMARK    2  A    between atoms: C_2  and  C_3
REMARK    3  A    between atoms: C_6  and  O_7
REMARK    4  A    between atoms: O_7  and  C_8
REMARK    5  A    between atoms: C_8  and  C_9
REMARK    6  A    between atoms: C_9  and  O_10
REMARK    7  A    between atoms: C_9  and  C_11
REMARK                            x       y       z     vdW  Elec       q    Type
REMARK                         _______ _______ _______ _____ _____    ______ ____
ROOT
ATOM      1  C   UNL     1      47.234   6.231  13.146  0.00  0.00    +0.000 A 
ATOM      2  C   UNL     1      46.780   6.680  11.895  0.00  0.00    +0.000 A 
ATOM      3  C   UNL     1      45.802   5.972  11.191  0.00  0.00    +0.000 A 
ATOM      4  C   UNL     1      45.247   4.807  11.722  0.00  0.00    +0.000 A 
ATOM      5  C   UNL     1      45.695   4.346  12.959  0.00  0.00    +0.000 A 
ATOM      6  C   UNL     1      46.676   5.054  13.666  0.00  0.00    +0.000 A 
ATOM      7 CL   UNL     1      47.142   4.428  15.211  0.00  0.00    +0.000 Cl
ENDROOT
BRANCH   1   8
ATOM      8  C   UNL     1      48.242   7.057  13.902  0.00  0.00    +0.000 C 
BRANCH   8   9
ATOM      9  N   UNL     1      49.580   6.875  13.352  0.00  0.00    +0.000 NA
ATOM     10  H   UNL     1      49.853   7.722  12.857  0.00  0.00    +0.000 HD
ATOM     11  H   UNL     1      49.547   6.140  12.646  0.00  0.00    +0.000 HD
ENDBRANCH   8   9
ENDBRANCH   1   8
BRANCH   4  12
ATOM     12  O   UNL     1      44.270   4.225  10.961  0.00  0.00    +0.000 OA
BRANCH  12  13
ATOM     13  C   UNL     1      44.590   2.962  10.359  0.00  0.00    +0.000 C 
BRANCH  13  14
ATOM     14  C   UNL     1      44.496   3.054   8.823  0.00  0.00    +0.000 C 
BRANCH  14  15
ATOM     15  C   UNL     1      45.709   2.531   8.086  0.00  0.00    +0.000 A 
ATOM     16  C   UNL     1      46.473   3.389   7.289  0.00  0.00    +0.000 A 
ATOM     17  C   UNL     1      47.582   2.881   6.628  0.00  0.00    +0.000 A 
ATOM     18  N   UNL     1      47.977   1.594   6.701  0.00  0.00    +0.000 NA
ATOM     19  C   UNL     1      47.236   0.781   7.481  0.00  0.00    +0.000 A 
ATOM     20  C   UNL     1      46.116   1.197   8.185  0.00  0.00    +0.000 A 
ENDBRANCH  14  15
BRANCH  14  21
ATOM     21  O   UNL     1      44.239   4.396   8.407  0.00  0.00    +0.000 OA
ATOM     22  H   UNL     1      43.471   4.700   8.923  0.00  0.00    +0.000 HD
ENDBRANCH  14  21
ENDBRANCH  13  14
ENDBRANCH  12  13
ENDBRANCH   4  12
TORSDOF 7
ENDMDL
MODEL 4
REMARK VINA RESULT:    -6.986      2.147      6.273
REMARK INTER + INTRA:         -10.105
REMARK INTER:                  -9.884
REMARK INTRA:                  -0.221
REMARK UNBOUND:                -0.669
REMARK  Name = 
REMARK  7 active torsions:
REMARK  status: ('A' for Active; 'I' for Inactive)
REMARK    1  A    between atoms: N_1  and  C_2
REMARK    2  A    between atoms: C_2  and  C_3
REMARK    3  A    between atoms: C_6  and  O_7
REMARK    4  A    between atoms: O_7  and  C_8
REMARK    5  A    between atoms: C_8  and  C_9
REMARK    6  A    between atoms: C_9  and  O_10
REMARK    7  A    between atoms: C_9  and  C_11
REMARK                            x       y       z     vdW  Elec       q    Type
REMARK                         _______ _______ _______ _____ _____    ______ ____
ROOT
ATOM      1  C   UNL     1      47.127   6.013  13.533  0.00  0.00    +0.000 A 
ATOM      2  C   UNL     1      46.318   4.880  13.723  0.00  0.00    +0.000 A 
ATOM      3  C   UNL     1      45.389   4.493  12.753  0.00  0.00    +0.000 A 
ATOM      4  C   UNL     1      45.253   5.219  11.569  0.00  0.00    +0.000 A 
ATOM      5  C   UNL     1      46.044   6.350  11.373  0.00  0.00    +0.000 A 
ATOM      6  C   UNL     1      46.975   6.741  12.344  0.00  0.00    +0.000 A 
ATOM      7 CL   UNL     1      47.941   8.134  11.997  0.00  0.00    +0.000 Cl
ENDROOT
BRANCH   1   8
ATOM      8  C   UNL     1      48.161   6.359  14.573  0.00  0.00    +0.000 C 
BRANCH   8   9
ATOM      9  N   UNL     1      48.075   5.454  15.713  0.00  0.00    +0.000 NA
ATOM     10  H   UNL     1      47.663   4.575  15.408  0.00  0.00    +0.000 HD
ATOM     11  H   UNL     1      47.421   5.845  16.393  0.00  0.00    +0.000 HD
ENDBRANCH   8   9
ENDBRANCH   1   8
BRANCH   4  12
ATOM     12  O   UNL     1      44.341   4.720  10.679  0.00  0.00    +0.000 OA
BRANCH  12  13
ATOM     13  C   UNL     1      44.717   3.530   9.971  0.00  0.00    +0.000 C 
BRANCH  13  14
ATOM     14  C   UNL     1      45.032   3.853   8.496  0.00  0.00    +0.000 C 
BRANCH  14  15
ATOM     15  C   UNL     1      45.971   2.877   7.824  0.00  0.00    +0.000 A 
ATOM     16  C   UNL     1      46.776   3.294   6.759  0.00  0.00    +0.000 A 
ATOM     17  C   UNL     1      47.629   2.376   6.164  0.00  0.00    +0.000 A 
ATOM     18  N   UNL     1      47.734   1.088   6.548  0.00  0.00    +0.000 NA
ATOM     19  C   UNL     1      46.959   0.703   7.582  0.00  0.00    +0.000 A 
ATOM     20  C   UNL     1      46.081   1.547   8.243  0.00  0.00    +0.000 A 
ENDBRANCH  14  15
BRANCH  14  21
ATOM     21  O   UNL     1      45.558   5.174   8.364  0.00  0.00    +0.000 OA
ATOM     22  H   UNL     1      46.528   5.084   8.366  0.00  0.00    +0.000 HD
ENDBRANCH  14  21
ENDBRANCH  13  14
ENDBRANCH  12  13
ENDBRANCH   4  12
TORSDOF 7
ENDMDL
MODEL 5
REMARK VINA RESULT:    -6.500      2.471      6.401
REMARK INTER + INTRA:          -9.450
REMARK INTER:                  -9.119
REMARK INTRA:                  -0.331
REMARK UNBOUND:                -0.669
REMARK  Name = 
REMARK  7 active torsions:
REMARK  status: ('A' for Active; 'I' for Inactive)
REMARK    1  A    between atoms: N_1  and  C_2
REMARK    2  A    between atoms: C_2  and  C_3
REMARK    3  A    between atoms: C_6  and  O_7
REMARK    4  A    between atoms: O_7  and  C_8
REMARK    5  A    between atoms: C_8  and  C_9
REMARK    6  A    between atoms: C_9  and  O_10
REMARK    7  A    between atoms: C_9  and  C_11
REMARK                            x       y       z     vdW  Elec       q    Type
REMARK                         _______ _______ _______ _____ _____    ______ ____
ROOT
ATOM      1  C   UNL     1      45.246   7.584  12.248  0.00  0.00    +0.000 A 
ATOM      2  C   UNL     1      43.885   7.400  11.950  0.00  0.00    +0.000 A 
ATOM      3  C   UNL     1      43.418   6.176  11.462  0.00  0.00    +0.000 A 
ATOM      4  C   UNL     1      44.294   5.107  11.269  0.00  0.00    +0.000 A 
ATOM      5  C   UNL     1      45.648   5.281  11.552  0.00  0.00    +0.000 A 
ATOM      6  C   UNL     1      46.118   6.506  12.041  0.00  0.00    +0.000 A 
ATOM      7 CL   UNL     1      47.807   6.616  12.402  0.00  0.00    +0.000 Cl
ENDROOT
BRANCH   1   8
ATOM      8  C   UNL     1      45.698   8.897  12.834  0.00  0.00    +0.000 C 
BRANCH   8   9
ATOM      9  N   UNL     1      44.738   9.955  12.540  0.00  0.00    +0.000 NA
ATOM     10  H   UNL     1      43.817   9.666  12.861  0.00  0.00    +0.000 HD
ATOM     11  H   UNL     1      44.660  10.054  11.527  0.00  0.00    +0.000 HD
ENDBRANCH   8   9
ENDBRANCH   1   8
BRANCH   4  12
ATOM     12  O   UNL     1      43.714   3.950  10.826  0.00  0.00    +0.000 OA
BRANCH  12  13
ATOM     13  C   UNL     1      44.593   2.961  10.269  0.00  0.00    +0.000 C 
BRANCH  13  14
ATOM     14  C   UNL     1      44.507   2.965   8.730  0.00  0.00    +0.000 C 
BRANCH  14  15
ATOM     15  C   UNL     1      45.740   2.440   8.029  0.00  0.00    +0.000 A 
ATOM     16  C   UNL     1      46.537   3.300   7.267  0.00  0.00    +0.000 A 
ATOM     17  C   UNL     1      47.663   2.789   6.638  0.00  0.00    +0.000 A 
ATOM     18  N   UNL     1      48.046   1.498   6.712  0.00  0.00    +0.000 NA
ATOM     19  C   UNL     1      47.273   0.683   7.458  0.00  0.00    +0.000 A 
ATOM     20  C   UNL     1      46.133   1.101   8.128  0.00  0.00    +0.000 A 
ENDBRANCH  14  15
BRANCH  14  21
ATOM     21  O   UNL     1      44.212   4.273   8.238  0.00  0.00    +0.000 OA
ATOM     22  H   UNL     1      43.854   4.775   8.993  0.00  0.00    +0.000 HD
ENDBRANCH  14  21
ENDBRANCH  13  14
ENDBRANCH  12  13
ENDBRANCH   4  12
TORSDOF 7
ENDMDL
MODEL 6
REMARK VINA RESULT:    -6.015      2.839      6.698
REMARK INTER + INTRA:          -8.794
REMARK INTER:                  -8.422
REMARK INTRA:                  -0.373
REMARK UNBOUND:                -0.669
REMARK  Name = 
REMARK  7 active torsions:
REMARK  status: ('A' for Active; 'I' for Inactive)
REMARK    1  A    between atoms: N_1  and  C_2
REMARK    2  A    between atoms: C_2  and  C_3
REMARK    3  A    between atoms: C_6  and  O_7
REMARK    4  A    between atoms: O_7  and  C_8
REMARK    5  A    between atoms: C_8  and  C_9
REMARK    6  A    between atoms: C_9  and  O_10
REMARK    7  A    between atoms: C_9  and  C_11
REMARK                            x       y       z     vdW  Elec       q    Type
REMARK                         _______ _______ _______ _____ _____    ______ ____
ROOT
ATOM      1  C   UNL     1      48.126   6.217  14.713  0.00  0.00    +0.000 A 
ATOM      2  C   UNL     1      47.985   7.070  13.605  0.00  0.00    +0.000 A 
ATOM      3  C   UNL     1      47.168   6.716  12.528  0.00  0.00    +0.000 A 
ATOM      4  C   UNL     1      46.465   5.511  12.535  0.00  0.00    +0.000 A 
ATOM      5  C   UNL     1      46.603   4.652  13.625  0.00  0.00    +0.000 A 
ATOM      6  C   UNL     1      47.422   5.004  14.705  0.00  0.00    +0.000 A 
ATOM      7 CL   UNL     1      47.500   3.895  16.031  0.00  0.00    +0.000 Cl
ENDROOT
BRANCH   1   8
ATOM      8  C   UNL     1      48.964   6.665  15.882  0.00  0.00    +0.000 C 
BRANCH   8   9
ATOM      9  N   UNL     1      48.232   7.610  16.716  0.00  0.00    +0.000 NA
ATOM     10  H   UNL     1      48.879   8.314  17.067  0.00  0.00    +0.000 HD
ATOM     11  H   UNL     1      47.883   7.119  17.540  0.00  0.00    +0.000 HD
ENDBRANCH   8   9
ENDBRANCH   1   8
BRANCH   4  12
ATOM     12  O   UNL     1      45.667   5.294  11.445  0.00  0.00    +0.000 OA
BRANCH  12  13
ATOM     13  C   UNL     1      44.698   4.241  11.556  0.00  0.00    +0.000 C 
BRANCH  13  14
ATOM     14  C   UNL     1      44.064   3.940  10.183  0.00  0.00    +0.000 C 
BRANCH  14  15
ATOM     15  C   UNL     1      45.023   3.378   9.157  0.00  0.00    +0.000 A 
ATOM     16  C   UNL     1      45.681   4.232   8.266  0.00  0.00    +0.000 A 
ATOM     17  C   UNL     1      46.556   3.687   7.338  0.00  0.00    +0.000 A 
ATOM     18  N   UNL     1      46.818   2.368   7.234  0.00  0.00    +0.000 NA
ATOM     19  C   UNL     1      46.183   1.559   8.105  0.00  0.00    +0.000 A 
ATOM     20  C   UNL     1      45.296   2.009   9.071  0.00  0.00    +0.000 A 
ENDBRANCH  14  15
BRANCH  14  21
ATOM     21  O   UNL     1      43.434   5.103   9.645  0.00  0.00    +0.000 OA
ATOM     22  H   UNL     1      42.848   5.444  10.344  0.00  0.00    +0.000 HD
ENDBRANCH  14  21
ENDBRANCH  13  14
ENDBRANCH  12  13
ENDBRANCH   4  12
TORSDOF 7
ENDMDL
MODEL 7
REMARK VINA RESULT:    -5.374      4.600      6.693
REMARK INTER + INTRA:          -7.928
REMARK INTER:                  -7.591
REMARK INTRA:                  -0.337
REMARK UNBOUND:                -0.669
REMARK  Name = 
REMARK  7 active torsions:
REMARK  status: ('A' for Active; 'I' for Inactive)
REMARK    1  A    between atoms: N_1  and  C_2
REMARK    2  A    between atoms: C_2  and  C_3
REMARK    3  A    between atoms: C_6  and  O_7
REMARK    4  A    between atoms: O_7  and  C_8
REMARK    5  A    between atoms: C_8  and  C_9
REMARK    6  A    between atoms: C_9  and  O_10
REMARK    7  A    between atoms: C_9  and  C_11
REMARK                            x       y       z     vdW  Elec       q    Type
REMARK                         _______ _______ _______ _____ _____    ______ ____
ROOT
ATOM      1  C   UNL     1      45.456   6.234  12.081  0.00  0.00    +0.000 A 
ATOM      2  C   UNL     1      44.877   4.991  12.389  0.00  0.00    +0.000 A 
ATOM      3  C   UNL     1      45.536   4.079  13.218  0.00  0.00    +0.000 A 
ATOM      4  C   UNL     1      46.780   4.388  13.767  0.00  0.00    +0.000 A 
ATOM      5  C   UNL     1      47.370   5.614  13.463  0.00  0.00    +0.000 A 
ATOM      6  C   UNL     1      46.712   6.530  12.631  0.00  0.00    +0.000 A 
ATOM      7 CL   UNL     1      47.502   8.042  12.341  0.00  0.00    +0.000 Cl
ENDROOT
BRANCH   1   8
ATOM      8  C   UNL     1      44.685   7.215  11.237  0.00  0.00    +0.000 C 
BRANCH   8   9
ATOM      9  N   UNL     1      43.253   6.947  11.307  0.00  0.00    +0.000 NA
ATOM     10  H   UNL     1      42.867   7.417  12.123  0.00  0.00    +0.000 HD
ATOM     11  H   UNL     1      43.114   5.949  11.470  0.00  0.00    +0.000 HD
ENDBRANCH   8   9
ENDBRANCH   1   8
BRANCH   4  12
ATOM     12  O   UNL     1      47.307   3.434  14.595  0.00  0.00    +0.000 OA
BRANCH  12  13
ATOM     13  C   UNL     1      47.352   3.749  15.994  0.00  0.00    +0.000 C 
BRANCH  13  14
ATOM     14  C   UNL     1      48.282   2.771  16.740  0.00  0.00    +0.000 C 
BRANCH  14  15
ATOM     15  C   UNL     1      49.263   3.431  17.684  0.00  0.00    +0.000 A 
ATOM     16  C   UNL     1      50.639   3.331  17.453  0.00  0.00    +0.000 A 
ATOM     17  C   UNL     1      51.513   3.949  18.335  0.00  0.00    +0.000 A 
ATOM     18  N   UNL     1      51.119   4.650  19.418  0.00  0.00    +0.000 NA
ATOM     19  C   UNL     1      49.790   4.746  19.621  0.00  0.00    +0.000 A 
ATOM     20  C   UNL     1      48.839   4.168  18.794  0.00  0.00    +0.000 A 
ENDBRANCH  14  15
BRANCH  14  21
ATOM     21  O   UNL     1      49.001   1.948  15.821  0.00  0.00    +0.000 OA
ATOM     22  H   UNL     1      49.009   2.427  14.973  0.00  0.00    +0.000 HD
ENDBRANCH  14  21
ENDBRANCH  13  14
ENDBRANCH  12  13
ENDBRANCH   4  12
TORSDOF 7
ENDMDL
MODEL 8
REMARK VINA RESULT:    -5.365      3.125      6.582
REMARK INTER + INTRA:          -7.916
REMARK INTER:                  -7.325
REMARK INTRA:                  -0.591
REMARK UNBOUND:                -0.669
REMARK  Name = 
REMARK  7 active torsions:
REMARK  status: ('A' for Active; 'I' for Inactive)
REMARK    1  A    between atoms: N_1  and  C_2
REMARK    2  A    between atoms: C_2  and  C_3
REMARK    3  A    between atoms: C_6  and  O_7
REMARK    4  A    between atoms: O_7  and  C_8
REMARK    5  A    between atoms: C_8  and  C_9
REMARK    6  A    between atoms: C_9  and  O_10
REMARK    7  A    between atoms: C_9  and  C_11
REMARK                            x       y       z     vdW  Elec       q    Type
REMARK                         _______ _______ _______ _____ _____    ______ ____
ROOT
ATOM      1  C   UNL     1      48.404   8.073  13.304  0.00  0.00    +0.000 A 
ATOM      2  C   UNL     1      47.742   7.969  12.069  0.00  0.00    +0.000 A 
ATOM      3  C   UNL     1      46.970   6.846  11.763  0.00  0.00    +0.000 A 
ATOM      4  C   UNL     1      46.832   5.806  12.682  0.00  0.00    +0.000 A 
ATOM      5  C   UNL     1      47.491   5.893  13.907  0.00  0.00    +0.000 A 
ATOM      6  C   UNL     1      48.266   7.018  14.217  0.00  0.00    +0.000 A 
ATOM      7 CL   UNL     1      49.014   7.056  15.777  0.00  0.00    +0.000 Cl
ENDROOT
BRANCH   1   8
ATOM      8  C   UNL     1      49.173   9.330  13.622  0.00  0.00    +0.000 C 
BRANCH   8   9
ATOM      9  N   UNL     1      48.341  10.276  14.356  0.00  0.00    +0.000 NA
ATOM     10  H   UNL     1      47.507  10.478  13.809  0.00  0.00    +0.000 HD
ATOM     11  H   UNL     1      48.842  11.162  14.433  0.00  0.00    +0.000 HD
ENDBRANCH   8   9
ENDBRANCH   1   8
BRANCH   4  12
ATOM     12  O   UNL     1      46.019   4.779  12.285  0.00  0.00    +0.000 OA
BRANCH  12  13
ATOM     13  C   UNL     1      44.610   4.958  12.486  0.00  0.00    +0.000 C 
BRANCH  13  14
ATOM     14  C   UNL     1      43.864   4.946  11.137  0.00  0.00    +0.000 C 
BRANCH  14  15
ATOM     15  C   UNL     1      44.530   4.124  10.056  0.00  0.00    +0.000 A 
ATOM     16  C   UNL     1      44.366   2.735  10.026  0.00  0.00    +0.000 A 
ATOM     17  C   UNL     1      44.988   2.008   9.021  0.00  0.00    +0.000 A 
ATOM     18  N   UNL     1      45.753   2.559   8.057  0.00  0.00    +0.000 NA
ATOM     19  C   UNL     1      45.894   3.899   8.093  0.00  0.00    +0.000 A 
ATOM     20  C   UNL     1      45.308   4.711   9.053  0.00  0.00    +0.000 A 
ENDBRANCH  14  15
BRANCH  14  21
ATOM     21  O   UNL     1      43.659   6.274  10.654  0.00  0.00    +0.000 OA
ATOM     22  H   UNL     1      44.534   6.604  10.381  0.00  0.00    +0.000 HD
ENDBRANCH  14  21
ENDBRANCH  13  14
ENDBRANCH  12  13
ENDBRANCH   4  12
TORSDOF 7
ENDMDL
MODEL 9
REMARK VINA RESULT:    -5.200      4.808      8.031
REMARK INTER + INTRA:          -7.693
REMARK INTER:                  -7.341
REMARK INTRA:                  -0.352
REMARK UNBOUND:                -0.669
REMARK  Name = 
REMARK  7 active torsions:
REMARK  status: ('A' for Active; 'I' for Inactive)
REMARK    1  A    between atoms: N_1  and  C_2
REMARK    2  A    between atoms: C_2  and  C_3
REMARK    3  A    between atoms: C_6  and  O_7
REMARK    4  A    between atoms: O_7  and  C_8
REMARK    5  A    between atoms: C_8  and  C_9
REMARK    6  A    between atoms: C_9  and  O_10
REMARK    7  A    between atoms: C_9  and  C_11
REMARK                            x       y       z     vdW  Elec       q    Type
REMARK                         _______ _______ _______ _____ _____    ______ ____
ROOT
ATOM      1  C   UNL     1      49.955   4.263  18.068  0.00  0.00    +0.000 A 
ATOM      2  C   UNL     1      49.656   3.008  17.511  0.00  0.00    +0.000 A 
ATOM      3  C   UNL     1      48.569   2.847  16.647  0.00  0.00    +0.000 A 
ATOM      4  C   UNL     1      47.762   3.934  16.312  0.00  0.00    +0.000 A 
ATOM      5  C   UNL     1      48.041   5.183  16.865  0.00  0.00    +0.000 A 
ATOM      6  C   UNL     1      49.130   5.346  17.731  0.00  0.00    +0.000 A 
ATOM      7 CL   UNL     1      49.424   6.940  18.337  0.00  0.00    +0.000 Cl
ENDROOT
BRANCH   1   8
ATOM      8  C   UNL     1      51.173   4.408  18.942  0.00  0.00    +0.000 C 
BRANCH   8   9
ATOM      9  N   UNL     1      50.807   4.381  20.353  0.00  0.00    +0.000 NA
ATOM     10  H   UNL     1      51.652   4.446  20.916  0.00  0.00    +0.000 HD
ATOM     11  H   UNL     1      50.400   3.470  20.569  0.00  0.00    +0.000 HD
ENDBRANCH   8   9
ENDBRANCH   1   8
BRANCH   4  12
ATOM     12  O   UNL     1      46.754   3.662  15.427  0.00  0.00    +0.000 OA
BRANCH  12  13
ATOM     13  C   UNL     1      46.916   4.163  14.092  0.00  0.00    +0.000 C 
BRANCH  13  14
ATOM     14  C   UNL     1      45.669   4.958  13.656  0.00  0.00    +0.000 C 
BRANCH  14  15
ATOM     15  C   UNL     1      44.991   4.434  12.410  0.00  0.00    +0.000 A 
ATOM     16  C   UNL     1      44.077   3.379  12.496  0.00  0.00    +0.000 A 
ATOM     17  C   UNL     1      43.469   2.921  11.336  0.00  0.00    +0.000 A 
ATOM     18  N   UNL     1      43.707   3.432  10.111  0.00  0.00    +0.000 NA
ATOM     19  C   UNL     1      44.583   4.454  10.045  0.00  0.00    +0.000 A 
ATOM     20  C   UNL     1      45.235   4.983  11.148  0.00  0.00    +0.000 A 
ENDBRANCH  14  15
BRANCH  14  21
ATOM     21  O   UNL     1      45.982   6.339  13.472  0.00  0.00    +0.000 OA
ATOM     22  H   UNL     1      45.541   6.819  14.196  0.00  0.00    +0.000 HD
ENDBRANCH  14  21
ENDBRANCH  13  14
ENDBRANCH  12  13
ENDBRANCH   4  12
TORSDOF 7
ENDMDL
