MODEL 1
REMARK VINA RESULT:    -9.504      0.000      0.000
REMARK INTER + INTRA:         -13.947
REMARK INTER:                 -13.394
REMARK INTRA:                  -0.553
REMARK UNBOUND:                -0.553
REMARK  Name = 
REMARK  7 active torsions:
REMARK  status: ('A' for Active; 'I' for Inactive)
REMARK    1  A    between atoms: C_2  and  C_4
REMARK    2  A    between atoms: C_7  and  N_8
REMARK    3  A    between atoms: N_8  and  C_9
REMARK    4  A    between atoms: C_9  and  C_10
REMARK    5  A    between atoms: C_10  and  C_13
REMARK    6  A    between atoms: C_17  and  O_18
REMARK    7  A    between atoms: O_18  and  C_19
REMARK                            x       y       z     vdW  Elec       q    Type
REMARK                         _______ _______ _______ _____ _____    ______ ____
ROOT
ATOM      1  C   UNL     1      43.409   4.377  11.259  0.00  0.00    +0.000 C 
ENDROOT
BRANCH   1   2
ATOM      2  C   UNL     1      43.600   5.520  12.291  0.00  0.00    +0.000 C 
ATOM      3  F   UNL     1      43.222   6.688  11.678  0.00  0.00    +0.000 F 
ATOM      4  F   UNL     1      42.672   5.333  13.281  0.00  0.00    +0.000 F 
BRANCH   2   5
ATOM      5  C   UNL     1      45.008   5.599  12.838  0.00  0.00    +0.000 A 
ATOM      6  C   UNL     1      45.821   6.696  12.518  0.00  0.00    +0.000 A 
ATOM      7  C   UNL     1      47.120   6.788  13.017  0.00  0.00    +0.000 A 
ATOM      8  C   UNL     1      47.630   5.787  13.845  0.00  0.00    +0.000 A 
ATOM      9  C   UNL     1      46.838   4.689  14.172  0.00  0.00    +0.000 A 
ATOM     10  C   UNL     1      45.532   4.600  13.674  0.00  0.00    +0.000 A 
BRANCH   9  11
ATOM     11  O   UNL     1      47.218   3.669  15.010  0.00  0.00    +0.000 OA
BRANCH  11  12
ATOM     12  C   UNL     1      47.615   3.969  16.357  0.00  0.00    +0.000 C 
ATOM     13  C   UNL     1      48.791   3.174  16.961  0.00  0.00    +0.000 C 
ATOM     14  C   UNL     1      47.874   2.939  18.166  0.00  0.00    +0.000 C 
ATOM     15  N   UNL     1      46.725   3.278  17.317  0.00  0.00    +0.000 NA
ATOM     16  H   UNL     1      46.027   3.879  17.746  0.00  0.00    +0.000 HD
ENDBRANCH  11  12
ENDBRANCH   9  11
ENDBRANCH   2   5
ENDBRANCH   1   2
BRANCH   1  17
ATOM     17  N   UNL     1      43.760   4.743   9.868  0.00  0.00    +0.000 N 
ATOM     18  H   UNL     1      42.974   5.112   9.334  0.00  0.00    +0.000 HD
BRANCH  17  22
ATOM     19  C   UNL     1      46.454   2.298   7.716  0.00  0.00    +0.000 A 
ATOM     20  C   UNL     1      46.397   3.679   7.503  0.00  0.00    +0.000 A 
ATOM     21  C   UNL     1      45.463   4.457   8.200  0.00  0.00    +0.000 A 
ATOM     22  C   UNL     1      44.567   3.879   9.115  0.00  0.00    +0.000 A 
ATOM     23  C   UNL     1      44.647   2.484   9.296  0.00  0.00    +0.000 A 
ATOM     24  F   UNL     1      43.830   1.852  10.151  0.00  0.00    +0.000 F 
ATOM     25  C   UNL     1      45.559   1.698   8.598  0.00  0.00    +0.000 A 
BRANCH  19  27
ATOM     26  N   UNL     1      48.566   2.057   6.543  0.00  0.00    +0.000 N 
ATOM     27  C   UNL     1      47.455   1.436   7.040  0.00  0.00    +0.000 C 
ATOM     28  O   UNL     1      47.319   0.222   6.976  0.00  0.00    +0.000 OA
ATOM     29  H   UNL     1      49.302   1.444   6.215  0.00  0.00    +0.000 HD
ATOM     30  H   UNL     1      48.829   2.991   6.826  0.00  0.00    +0.000 HD
ENDBRANCH  19  27
ENDBRANCH  17  22
ENDBRANCH   1  17
TORSDOF 7
ENDMDL
MODEL 2
REMARK VINA RESULT:    -8.697      3.166      4.787
REMARK INTER + INTRA:         -12.809
REMARK INTER:                 -12.022
REMARK INTRA:                  -0.787
REMARK UNBOUND:                -0.553
REMARK  Name = 
REMARK  7 active torsions:
REMARK  status: ('A' for Active; 'I' for Inactive)
REMARK    1  A    between atoms: C_2  and  C_4
REMARK    2  A    between atoms: C_7  and  N_8
REMARK    3  A    between atoms: N_8  and  C_9
REMARK    4  A    between atoms: C_9  and  C_10
REMARK    5  A    between atoms: C_10  and  C_13
REMARK    6  A    between atoms: C_17  and  O_18
REMARK    7  A    between atoms: O_18  and  C_19
REMARK                            x       y       z     vdW  Elec       q    Type
REMARK                         _______ _______ _______ _____ _____    ______ ____
ROOT
ATOM      1  C   UNL     1      43.689   4.891  11.345  0.00  0.00    +0.000 C 
ENDROOT
BRANCH   1   2
ATOM      2  C   UNL     1      44.833   4.982  12.390  0.00  0.00    +0.000 C 
ATOM      3  F   UNL     1      44.265   4.826  13.629  0.00  0.00    +0.000 F 
ATOM      4  F   UNL     1      45.620   3.872  12.227  0.00  0.00    +0.000 F 
BRANCH   2   5
ATOM      5  C   UNL     1      45.630   6.264  12.291  0.00  0.00    +0.000 A 
ATOM      6  C   UNL     1      47.024   6.210  12.149  0.00  0.00    +0.000 A 
ATOM      7  C   UNL     1      47.774   7.381  12.052  0.00  0.00    +0.000 A 
ATOM      8  C   UNL     1      47.146   8.627  12.093  0.00  0.00    +0.000 A 
ATOM      9  C   UNL     1      45.763   8.700  12.235  0.00  0.00    +0.000 A 
ATOM     10  C   UNL     1      45.009   7.523  12.328  0.00  0.00    +0.000 A 
BRANCH   9  11
ATOM     11  O   UNL     1      45.035   9.865  12.245  0.00  0.00    +0.000 OA
BRANCH  11  12
ATOM     12  C   UNL     1      43.898   9.997  11.377  0.00  0.00    +0.000 C 
ATOM     13  C   UNL     1      43.968  11.039  10.242  0.00  0.00    +0.000 C 
ATOM     14  C   UNL     1      42.599  11.516  10.738  0.00  0.00    +0.000 C 
ATOM     15  N   UNL     1      42.864  10.842  12.016  0.00  0.00    +0.000 NA
ATOM     16  H   UNL     1      42.082  10.322  12.406  0.00  0.00    +0.000 HD
ENDBRANCH  11  12
ENDBRANCH   9  11
ENDBRANCH   2   5
ENDBRANCH   1   2
BRANCH   1  17
ATOM     17  N   UNL     1      44.117   5.119   9.947  0.00  0.00    +0.000 N 
ATOM     18  H   UNL     1      43.425   5.612   9.385  0.00  0.00    +0.000 HD
BRANCH  17  22
ATOM     19  C   UNL     1      46.292   2.107   7.931  0.00  0.00    +0.000 A 
ATOM     20  C   UNL     1      46.468   3.460   7.624  0.00  0.00    +0.000 A 
ATOM     21  C   UNL     1      45.702   4.432   8.279  0.00  0.00    +0.000 A 
ATOM     22  C   UNL     1      44.743   4.080   9.244  0.00  0.00    +0.000 A 
ATOM     23  C   UNL     1      44.587   2.708   9.519  0.00  0.00    +0.000 A 
ATOM     24  F   UNL     1      43.695   2.285  10.428  0.00  0.00    +0.000 F 
ATOM     25  C   UNL     1      45.330   1.731   8.865  0.00  0.00    +0.000 A 
BRANCH  19  27
ATOM     26  N   UNL     1      46.826  -0.246   7.658  0.00  0.00    +0.000 N 
ATOM     27  C   UNL     1      47.111   1.042   7.301  0.00  0.00    +0.000 C 
ATOM     28  O   UNL     1      47.963   1.298   6.462  0.00  0.00    +0.000 OA
ATOM     29  H   UNL     1      47.290  -0.965   7.118  0.00  0.00    +0.000 HD
ATOM     30  H   UNL     1      45.962  -0.495   8.120  0.00  0.00    +0.000 HD
ENDBRANCH  19  27
ENDBRANCH  17  22
ENDBRANCH   1  17
TORSDOF 7
ENDMDL
MODEL 3
REMARK VINA RESULT:    -8.549      2.119      2.502
REMARK INTER + INTRA:         -12.601
REMARK INTER:                 -11.547
REMARK INTRA:                  -1.054
REMARK UNBOUND:                -0.553
REMARK  Name = 
REMARK  7 active torsions:
REMARK  status: ('A' for Active; 'I' for Inactive)
REMARK    1  A    between atoms: C_2  and  C_4
REMARK    2  A    between atoms: C_7  and  N_8
REMARK    3  A    between atoms: N_8  and  C_9
REMARK    4  A    between atoms: C_9  and  C_10
REMARK    5  A    between atoms: C_10  and  C_13
REMARK    6  A    between atoms: C_17  and  O_18
REMARK    7  A    between atoms: O_18  and  C_19
REMARK                            x       y       z     vdW  Elec       q    Type
REMARK                         _______ _______ _______ _____ _____    ______ ____
ROOT
ATOM      1  C   UNL     1      43.653   3.335  11.726  0.00  0.00    +0.000 C 
ENDROOT
BRANCH   1   2
ATOM      2  C   UNL     1      43.414   4.522  12.697  0.00  0.00    +0.000 C 
ATOM      3  F   UNL     1      42.234   5.116  12.330  0.00  0.00    +0.000 F 
ATOM      4  F   UNL     1      43.164   3.990  13.934  0.00  0.00    +0.000 F 
BRANCH   2   5
ATOM      5  C   UNL     1      44.560   5.510  12.724  0.00  0.00    +0.000 A 
ATOM      6  C   UNL     1      44.418   6.759  12.103  0.00  0.00    +0.000 A 
ATOM      7  C   UNL     1      45.462   7.684  12.121  0.00  0.00    +0.000 A 
ATOM      8  C   UNL     1      46.664   7.378  12.761  0.00  0.00    +0.000 A 
ATOM      9  C   UNL     1      46.824   6.142  13.380  0.00  0.00    +0.000 A 
ATOM     10  C   UNL     1      45.774   5.215  13.366  0.00  0.00    +0.000 A 
BRANCH   9  11
ATOM     11  O   UNL     1      47.942   5.749  14.075  0.00  0.00    +0.000 OA
BRANCH  11  12
ATOM     12  C   UNL     1      48.610   6.689  14.932  0.00  0.00    +0.000 C 
ATOM     13  C   UNL     1      49.852   7.419  14.381  0.00  0.00    +0.000 C 
ATOM     14  C   UNL     1      50.543   7.003  15.684  0.00  0.00    +0.000 C 
ATOM     15  N   UNL     1      49.510   5.975  15.866  0.00  0.00    +0.000 NA
ATOM     16  H   UNL     1      49.145   5.885  16.810  0.00  0.00    +0.000 HD
ENDBRANCH  11  12
ENDBRANCH   9  11
ENDBRANCH   2   5
ENDBRANCH   1   2
BRANCH   1  17
ATOM     17  N   UNL     1      43.540   3.685  10.293  0.00  0.00    +0.000 N 
ATOM     18  H   UNL     1      42.631   3.462   9.891  0.00  0.00    +0.000 HD
BRANCH  17  22
ATOM     19  C   UNL     1      46.520   2.636   7.484  0.00  0.00    +0.000 A 
ATOM     20  C   UNL     1      45.739   1.662   8.113  0.00  0.00    +0.000 A 
ATOM     21  C   UNL     1      44.789   2.037   9.072  0.00  0.00    +0.000 A 
ATOM     22  C   UNL     1      44.601   3.383   9.428  0.00  0.00    +0.000 A 
ATOM     23  C   UNL     1      45.413   4.335   8.780  0.00  0.00    +0.000 A 
ATOM     24  F   UNL     1      45.297   5.642   9.059  0.00  0.00    +0.000 F 
ATOM     25  C   UNL     1      46.371   3.974   7.838  0.00  0.00    +0.000 A 
BRANCH  19  27
ATOM     26  N   UNL     1      47.370   2.938   5.230  0.00  0.00    +0.000 N 
ATOM     27  C   UNL     1      47.506   2.296   6.429  0.00  0.00    +0.000 C 
ATOM     28  O   UNL     1      48.430   1.522   6.637  0.00  0.00    +0.000 OA
ATOM     29  H   UNL     1      48.128   2.806   4.572  0.00  0.00    +0.000 HD
ATOM     30  H   UNL     1      46.804   3.769   5.128  0.00  0.00    +0.000 HD
ENDBRANCH  19  27
ENDBRANCH  17  22
ENDBRANCH   1  17
TORSDOF 7
ENDMDL
MODEL 4
REMARK VINA RESULT:    -8.377      2.739      3.366
REMARK INTER + INTRA:         -12.358
REMARK INTER:                 -11.522
REMARK INTRA:                  -0.836
REMARK UNBOUND:                -0.553
REMARK  Name = 
REMARK  7 active torsions:
REMARK  status: ('A' for Active; 'I' for Inactive)
REMARK    1  A    between atoms: C_2  and  C_4
REMARK    2  A    between atoms: C_7  and  N_8
REMARK    3  A    between atoms: N_8  and  C_9
REMARK    4  A    between atoms: C_9  and  C_10
REMARK    5  A    between atoms: C_10  and  C_13
REMARK    6  A    between atoms: C_17  and  O_18
REMARK    7  A    between atoms: O_18  and  C_19
REMARK                            x       y       z     vdW  Elec       q    Type
REMARK                         _______ _______ _______ _____ _____    ______ ____
ROOT
ATOM      1  C   UNL     1      43.405   4.187  11.259  0.00  0.00    +0.000 C 
ENDROOT
BRANCH   1   2
ATOM      2  C   UNL     1      44.408   4.286  12.438  0.00  0.00    +0.000 C 
ATOM      3  F   UNL     1      43.688   4.148  13.597  0.00  0.00    +0.000 F 
ATOM      4  F   UNL     1      45.203   3.172  12.389  0.00  0.00    +0.000 F 
BRANCH   2   5
ATOM      5  C   UNL     1      45.218   5.564  12.425  0.00  0.00    +0.000 A 
ATOM      6  C   UNL     1      44.571   6.801  12.557  0.00  0.00    +0.000 A 
ATOM      7  C   UNL     1      45.302   7.989  12.551  0.00  0.00    +0.000 A 
ATOM      8  C   UNL     1      46.691   7.963  12.415  0.00  0.00    +0.000 A 
ATOM      9  C   UNL     1      47.349   6.744  12.281  0.00  0.00    +0.000 A 
ATOM     10  C   UNL     1      46.616   5.551  12.291  0.00  0.00    +0.000 A 
BRANCH   9  11
ATOM     11  O   UNL     1      48.711   6.594  12.184  0.00  0.00    +0.000 OA
BRANCH  11  12
ATOM     12  C   UNL     1      49.548   7.758  12.100  0.00  0.00    +0.000 C 
ATOM     13  C   UNL     1      50.725   7.736  11.103  0.00  0.00    +0.000 C 
ATOM     14  C   UNL     1      51.587   8.221  12.273  0.00  0.00    +0.000 C 
ATOM     15  N   UNL     1      50.545   7.749  13.194  0.00  0.00    +0.000 NA
ATOM     16  H   UNL     1      50.326   8.377  13.964  0.00  0.00    +0.000 HD
ENDBRANCH  11  12
ENDBRANCH   9  11
ENDBRANCH   2   5
ENDBRANCH   1   2
BRANCH   1  17
ATOM     17  N   UNL     1      43.894   4.766   9.988  0.00  0.00    +0.000 N 
ATOM     18  H   UNL     1      43.177   5.268   9.467  0.00  0.00    +0.000 HD
BRANCH  17  22
ATOM     19  C   UNL     1      46.657   2.594   7.638  0.00  0.00    +0.000 A 
ATOM     20  C   UNL     1      46.608   3.990   7.598  0.00  0.00    +0.000 A 
ATOM     21  C   UNL     1      45.653   4.681   8.355  0.00  0.00    +0.000 A 
ATOM     22  C   UNL     1      44.725   3.998   9.160  0.00  0.00    +0.000 A 
ATOM     23  C   UNL     1      44.798   2.592   9.167  0.00  0.00    +0.000 A 
ATOM     24  F   UNL     1      43.951   1.862   9.909  0.00  0.00    +0.000 F 
ATOM     25  C   UNL     1      45.731   1.893   8.407  0.00  0.00    +0.000 A 
BRANCH  19  27
ATOM     26  N   UNL     1      48.507   2.524   6.068  0.00  0.00    +0.000 N 
ATOM     27  C   UNL     1      47.678   1.818   6.893  0.00  0.00    +0.000 C 
ATOM     28  O   UNL     1      47.810   0.612   7.050  0.00  0.00    +0.000 OA
ATOM     29  H   UNL     1      49.286   2.007   5.680  0.00  0.00    +0.000 HD
ATOM     30  H   UNL     1      48.603   3.528   6.137  0.00  0.00    +0.000 HD
ENDBRANCH  19  27
ENDBRANCH  17  22
ENDBRANCH   1  17
TORSDOF 7
ENDMDL
MODEL 5
REMARK VINA RESULT:    -7.962      2.685      4.107
REMARK INTER + INTRA:         -11.773
REMARK INTER:                 -11.084
REMARK INTRA:                  -0.689
REMARK UNBOUND:                -0.553
REMARK  Name = 
REMARK  7 active torsions:
REMARK  status: ('A' for Active; 'I' for Inactive)
REMARK    1  A    between atoms: C_2  and  C_4
REMARK    2  A    between atoms: C_7  and  N_8
REMARK    3  A    between atoms: N_8  and  C_9
REMARK    4  A    between atoms: C_9  and  C_10
REMARK    5  A    between atoms: C_10  and  C_13
REMARK    6  A    between atoms: C_17  and  O_18
REMARK    7  A    between atoms: O_18  and  C_19
REMARK                            x       y       z     vdW  Elec       q    Type
REMARK                         _______ _______ _______ _____ _____    ______ ____
ROOT
ATOM      1  C   UNL     1      43.304   4.475  11.126  0.00  0.00    +0.000 C 
ENDROOT
BRANCH   1   2
ATOM      2  C   UNL     1      43.592   4.735  12.629  0.00  0.00    +0.000 C 
ATOM      3  F   UNL     1      42.551   5.482  13.119  0.00  0.00    +0.000 F 
ATOM      4  F   UNL     1      43.488   3.532  13.276  0.00  0.00    +0.000 F 
BRANCH   2   5
ATOM      5  C   UNL     1      44.928   5.399  12.873  0.00  0.00    +0.000 A 
ATOM      6  C   UNL     1      46.088   4.617  12.976  0.00  0.00    +0.000 A 
ATOM      7  C   UNL     1      47.329   5.212  13.197  0.00  0.00    +0.000 A 
ATOM      8  C   UNL     1      47.436   6.599  13.316  0.00  0.00    +0.000 A 
ATOM      9  C   UNL     1      46.295   7.391  13.219  0.00  0.00    +0.000 A 
ATOM     10  C   UNL     1      45.049   6.793  12.993  0.00  0.00    +0.000 A 
BRANCH   9  11
ATOM     11  O   UNL     1      46.285   8.764  13.278  0.00  0.00    +0.000 OA
BRANCH  11  12
ATOM     12  C   UNL     1      46.776   9.525  12.163  0.00  0.00    +0.000 C 
ATOM     13  C   UNL     1      48.066  10.347  12.357  0.00  0.00    +0.000 C 
ATOM     14  C   UNL     1      47.286  11.516  11.745  0.00  0.00    +0.000 C 
ATOM     15  N   UNL     1      46.039  10.804  12.056  0.00  0.00    +0.000 NA
ATOM     16  H   UNL     1      45.333  10.820  11.324  0.00  0.00    +0.000 HD
ENDBRANCH  11  12
ENDBRANCH   9  11
ENDBRANCH   2   5
ENDBRANCH   1   2
BRANCH   1  17
ATOM     17  N   UNL     1      43.766   3.159  10.633  0.00  0.00    +0.000 N 
ATOM     18  H   UNL     1      43.934   2.482  11.376  0.00  0.00    +0.000 HD
BRANCH  17  22
ATOM     19  C   UNL     1      46.476   2.859   7.403  0.00  0.00    +0.000 A 
ATOM     20  C   UNL     1      45.904   1.721   7.979  0.00  0.00    +0.000 A 
ATOM     21  C   UNL     1      45.043   1.850   9.077  0.00  0.00    +0.000 A 
ATOM     22  C   UNL     1      44.739   3.107   9.625  0.00  0.00    +0.000 A 
ATOM     23  C   UNL     1      45.342   4.229   9.025  0.00  0.00    +0.000 A 
ATOM     24  F   UNL     1      45.105   5.467   9.485  0.00  0.00    +0.000 F 
ATOM     25  C   UNL     1      46.212   4.115   7.945  0.00  0.00    +0.000 A 
BRANCH  19  27
ATOM     26  N   UNL     1      48.672   2.489   6.435  0.00  0.00    +0.000 N 
ATOM     27  C   UNL     1      47.356   2.782   6.211  0.00  0.00    +0.000 C 
ATOM     28  O   UNL     1      46.917   2.920   5.077  0.00  0.00    +0.000 OA
ATOM     29  H   UNL     1      49.227   2.299   5.610  0.00  0.00    +0.000 HD
ATOM     30  H   UNL     1      48.992   2.101   7.311  0.00  0.00    +0.000 HD
ENDBRANCH  19  27
ENDBRANCH  17  22
ENDBRANCH   1  17
TORSDOF 7
ENDMDL
MODEL 6
REMARK VINA RESULT:    -7.752      2.184      7.712
REMARK INTER + INTRA:         -11.478
REMARK INTER:                 -10.767
REMARK INTRA:                  -0.711
REMARK UNBOUND:                -0.553
REMARK  Name = 
REMARK  7 active torsions:
REMARK  status: ('A' for Active; 'I' for Inactive)
REMARK    1  A    between atoms: C_2  and  C_4
REMARK    2  A    between atoms: C_7  and  N_8
REMARK    3  A    between atoms: N_8  and  C_9
REMARK    4  A    between atoms: C_9  and  C_10
REMARK    5  A    between atoms: C_10  and  C_13
REMARK    6  A    between atoms: C_17  and  O_18
REMARK    7  A    between atoms: O_18  and  C_19
REMARK                            x       y       z     vdW  Elec       q    Type
REMARK                         _______ _______ _______ _____ _____    ______ ____
ROOT
ATOM      1  C   UNL     1      46.874   6.328  12.392  0.00  0.00    +0.000 C 
ENDROOT
BRANCH   1   2
ATOM      2  C   UNL     1      45.399   6.345  11.908  0.00  0.00    +0.000 C 
ATOM      3  F   UNL     1      44.606   6.416  13.024  0.00  0.00    +0.000 F 
ATOM      4  F   UNL     1      45.198   7.536  11.263  0.00  0.00    +0.000 F 
BRANCH   2   5
ATOM      5  C   UNL     1      45.045   5.159  11.038  0.00  0.00    +0.000 A 
ATOM      6  C   UNL     1      44.307   4.095  11.576  0.00  0.00    +0.000 A 
ATOM      7  C   UNL     1      43.967   2.996  10.787  0.00  0.00    +0.000 A 
ATOM      8  C   UNL     1      44.357   2.941   9.448  0.00  0.00    +0.000 A 
ATOM      9  C   UNL     1      45.093   3.987   8.898  0.00  0.00    +0.000 A 
ATOM     10  C   UNL     1      45.429   5.093   9.689  0.00  0.00    +0.000 A 
BRANCH   9  11
ATOM     11  O   UNL     1      45.493   4.061   7.586  0.00  0.00    +0.000 OA
BRANCH  11  12
ATOM     12  C   UNL     1      46.778   3.545   7.207  0.00  0.00    +0.000 C 
ATOM     13  C   UNL     1      46.953   3.016   5.769  0.00  0.00    +0.000 C 
ATOM     14  C   UNL     1      47.567   1.770   6.415  0.00  0.00    +0.000 C 
ATOM     15  N   UNL     1      46.927   2.151   7.681  0.00  0.00    +0.000 NA
ATOM     16  H   UNL     1      47.507   2.052   8.510  0.00  0.00    +0.000 HD
ENDBRANCH  11  12
ENDBRANCH   9  11
ENDBRANCH   2   5
ENDBRANCH   1   2
BRANCH   1  17
ATOM     17  N   UNL     1      47.061   6.752  13.798  0.00  0.00    +0.000 N 
ATOM     18  H   UNL     1      47.466   7.682  13.892  0.00  0.00    +0.000 HD
BRANCH  17  22
ATOM     19  C   UNL     1      48.554   4.212  16.829  0.00  0.00    +0.000 A 
ATOM     20  C   UNL     1      49.072   5.496  16.637  0.00  0.00    +0.000 A 
ATOM     21  C   UNL     1      48.587   6.299  15.596  0.00  0.00    +0.000 A 
ATOM     22  C   UNL     1      47.585   5.839  14.724  0.00  0.00    +0.000 A 
ATOM     23  C   UNL     1      47.095   4.537  14.943  0.00  0.00    +0.000 A 
ATOM     24  F   UNL     1      46.137   4.021  14.158  0.00  0.00    +0.000 F 
ATOM     25  C   UNL     1      47.580   3.724  15.962  0.00  0.00    +0.000 A 
BRANCH  19  27
ATOM     26  N   UNL     1      48.336   3.473  19.131  0.00  0.00    +0.000 N 
ATOM     27  C   UNL     1      49.000   3.340  17.944  0.00  0.00    +0.000 C 
ATOM     28  O   UNL     1      49.881   2.505  17.795  0.00  0.00    +0.000 OA
ATOM     29  H   UNL     1      48.551   2.778  19.836  0.00  0.00    +0.000 HD
ATOM     30  H   UNL     1      47.442   3.940  19.196  0.00  0.00    +0.000 HD
ENDBRANCH  19  27
ENDBRANCH  17  22
ENDBRANCH   1  17
TORSDOF 7
ENDMDL
MODEL 7
REMARK VINA RESULT:    -7.222      3.220      4.433
REMARK INTER + INTRA:         -10.731
REMARK INTER:                  -9.514
REMARK INTRA:                  -1.217
REMARK UNBOUND:                -0.553
REMARK  Name = 
REMARK  7 active torsions:
REMARK  status: ('A' for Active; 'I' for Inactive)
REMARK    1  A    between atoms: C_2  and  C_4
REMARK    2  A    between atoms: C_7  and  N_8
REMARK    3  A    between atoms: N_8  and  C_9
REMARK    4  A    between atoms: C_9  and  C_10
REMARK    5  A    between atoms: C_10  and  C_13
REMARK    6  A    between atoms: C_17  and  O_18
REMARK    7  A    between atoms: O_18  and  C_19
REMARK                            x       y       z     vdW  Elec       q    Type
REMARK                         _______ _______ _______ _____ _____    ______ ____
ROOT
ATOM      1  C   UNL     1      46.163   8.567  12.166  0.00  0.00    +0.000 C 
ENDROOT
BRANCH   1   2
ATOM      2  C   UNL     1      47.671   8.223  12.292  0.00  0.00    +0.000 C 
ATOM      3  F   UNL     1      47.886   7.071  11.579  0.00  0.00    +0.000 F 
ATOM      4  F   UNL     1      48.366   9.187  11.611  0.00  0.00    +0.000 F 
BRANCH   2   5
ATOM      5  C   UNL     1      48.133   8.094  13.727  0.00  0.00    +0.000 A 
ATOM      6  C   UNL     1      48.138   9.221  14.562  0.00  0.00    +0.000 A 
ATOM      7  C   UNL     1      48.558   9.121  15.888  0.00  0.00    +0.000 A 
ATOM      8  C   UNL     1      48.977   7.894  16.404  0.00  0.00    +0.000 A 
ATOM      9  C   UNL     1      48.981   6.765  15.590  0.00  0.00    +0.000 A 
ATOM     10  C   UNL     1      48.555   6.865  14.259  0.00  0.00    +0.000 A 
BRANCH   9  11
ATOM     11  O   UNL     1      49.330   5.501  16.000  0.00  0.00    +0.000 OA
BRANCH  11  12
ATOM     12  C   UNL     1      48.715   4.941  17.171  0.00  0.00    +0.000 C 
ATOM     13  C   UNL     1      48.850   3.422  17.405  0.00  0.00    +0.000 C 
ATOM     14  C   UNL     1      47.334   3.429  17.626  0.00  0.00    +0.000 C 
ATOM     15  N   UNL     1      47.271   4.721  16.931  0.00  0.00    +0.000 NA
ATOM     16  H   UNL     1      46.666   5.418  17.359  0.00  0.00    +0.000 HD
ENDBRANCH  11  12
ENDBRANCH   9  11
ENDBRANCH   2   5
ENDBRANCH   1   2
BRANCH   1  17
ATOM     17  N   UNL     1      45.280   7.791  13.064  0.00  0.00    +0.000 N 
ATOM     18  H   UNL     1      45.572   7.814  14.040  0.00  0.00    +0.000 HD
BRANCH  17  22
ATOM     19  C   UNL     1      44.071   4.031  11.556  0.00  0.00    +0.000 A 
ATOM     20  C   UNL     1      43.597   5.224  11.001  0.00  0.00    +0.000 A 
ATOM     21  C   UNL     1      43.981   6.454  11.550  0.00  0.00    +0.000 A 
ATOM     22  C   UNL     1      44.837   6.523  12.663  0.00  0.00    +0.000 A 
ATOM     23  C   UNL     1      45.286   5.301  13.201  0.00  0.00    +0.000 A 
ATOM     24  F   UNL     1      46.107   5.276  14.262  0.00  0.00    +0.000 F 
ATOM     25  C   UNL     1      44.899   4.072  12.675  0.00  0.00    +0.000 A 
BRANCH  19  27
ATOM     26  N   UNL     1      44.449   2.304   9.892  0.00  0.00    +0.000 N 
ATOM     27  C   UNL     1      43.732   2.705  10.984  0.00  0.00    +0.000 C 
ATOM     28  O   UNL     1      42.890   1.980  11.496  0.00  0.00    +0.000 OA
ATOM     29  H   UNL     1      44.309   1.345   9.602  0.00  0.00    +0.000 HD
ATOM     30  H   UNL     1      45.320   2.747   9.631  0.00  0.00    +0.000 HD
ENDBRANCH  19  27
ENDBRANCH  17  22
ENDBRANCH   1  17
TORSDOF 7
ENDMDL
MODEL 8
REMARK VINA RESULT:    -6.914      3.309      4.973
REMARK INTER + INTRA:         -10.296
REMARK INTER:                  -9.338
REMARK INTRA:                  -0.959
REMARK UNBOUND:                -0.553
REMARK  Name = 
REMARK  7 active torsions:
REMARK  status: ('A' for Active; 'I' for Inactive)
REMARK    1  A    between atoms: C_2  and  C_4
REMARK    2  A    between atoms: C_7  and  N_8
REMARK    3  A    between atoms: N_8  and  C_9
REMARK    4  A    between atoms: C_9  and  C_10
REMARK    5  A    between atoms: C_10  and  C_13
REMARK    6  A    between atoms: C_17  and  O_18
REMARK    7  A    between atoms: O_18  and  C_19
REMARK                            x       y       z     vdW  Elec       q    Type
REMARK                         _______ _______ _______ _____ _____    ______ ____
ROOT
ATOM      1  C   UNL     1      48.533   7.133  13.520  0.00  0.00    +0.000 C 
ENDROOT
BRANCH   1   2
ATOM      2  C   UNL     1      49.301   7.615  14.779  0.00  0.00    +0.000 C 
ATOM      3  F   UNL     1      50.638   7.443  14.529  0.00  0.00    +0.000 F 
ATOM      4  F   UNL     1      49.136   8.973  14.859  0.00  0.00    +0.000 F 
BRANCH   2   5
ATOM      5  C   UNL     1      48.867   6.913  16.046  0.00  0.00    +0.000 A 
ATOM      6  C   UNL     1      48.743   7.640  17.239  0.00  0.00    +0.000 A 
ATOM      7  C   UNL     1      48.340   7.010  18.417  0.00  0.00    +0.000 A 
ATOM      8  C   UNL     1      48.052   5.645  18.423  0.00  0.00    +0.000 A 
ATOM      9  C   UNL     1      48.171   4.907  17.249  0.00  0.00    +0.000 A 
ATOM     10  C   UNL     1      48.571   5.540  16.066  0.00  0.00    +0.000 A 
BRANCH   9  11
ATOM     11  O   UNL     1      47.873   3.571  17.127  0.00  0.00    +0.000 OA
BRANCH  11  12
ATOM     12  C   UNL     1      48.848   2.590  17.514  0.00  0.00    +0.000 C 
ATOM     13  C   UNL     1      50.293   3.064  17.770  0.00  0.00    +0.000 C 
ATOM     14  C   UNL     1      50.721   1.916  16.850  0.00  0.00    +0.000 C 
ATOM     15  N   UNL     1      49.352   1.875  16.320  0.00  0.00    +0.000 NA
ATOM     16  H   UNL     1      48.960   0.945  16.194  0.00  0.00    +0.000 HD
ENDBRANCH  11  12
ENDBRANCH   9  11
ENDBRANCH   2   5
ENDBRANCH   1   2
BRANCH   1  17
ATOM     17  N   UNL     1      47.061   7.257  13.616  0.00  0.00    +0.000 N 
ATOM     18  H   UNL     1      46.721   7.331  14.573  0.00  0.00    +0.000 HD
BRANCH  17  22
ATOM     19  C   UNL     1      44.862   4.786  10.984  0.00  0.00    +0.000 A 
ATOM     20  C   UNL     1      45.283   6.063  10.600  0.00  0.00    +0.000 A 
ATOM     21  C   UNL     1      45.973   6.875  11.509  0.00  0.00    +0.000 A 
ATOM     22  C   UNL     1      46.251   6.439  12.816  0.00  0.00    +0.000 A 
ATOM     23  C   UNL     1      45.802   5.152  13.169  0.00  0.00    +0.000 A 
ATOM     24  F   UNL     1      46.026   4.657  14.396  0.00  0.00    +0.000 F 
ATOM     25  C   UNL     1      45.102   4.341  12.282  0.00  0.00    +0.000 A 
BRANCH  19  27
ATOM     26  N   UNL     1      44.151   4.234   8.729  0.00  0.00    +0.000 N 
ATOM     27  C   UNL     1      44.170   3.868  10.046  0.00  0.00    +0.000 C 
ATOM     28  O   UNL     1      43.687   2.809  10.421  0.00  0.00    +0.000 OA
ATOM     29  H   UNL     1      43.805   3.535   8.083  0.00  0.00    +0.000 HD
ATOM     30  H   UNL     1      44.772   4.941   8.360  0.00  0.00    +0.000 HD
ENDBRANCH  19  27
ENDBRANCH  17  22
ENDBRANCH   1  17
TORSDOF 7
ENDMDL
MODEL 9
REMARK VINA RESULT:    -6.821      3.188      8.376
REMARK INTER + INTRA:         -10.166
REMARK INTER:                  -9.566
REMARK INTRA:                  -0.600
REMARK UNBOUND:                -0.553
REMARK  Name = 
REMARK  7 active torsions:
REMARK  status: ('A' for Active; 'I' for Inactive)
REMARK    1  A    between atoms: C_2  and  C_4
REMARK    2  A    between atoms: C_7  and  N_8
REMARK    3  A    between atoms: N_8  and  C_9
REMARK    4  A    between atoms: C_9  and  C_10
REMARK    5  A    between atoms: C_10  and  C_13
REMARK    6  A    between atoms: C_17  and  O_18
REMARK    7  A    between atoms: O_18  and  C_19
REMARK                            x       y       z     vdW  Elec       q    Type
REMARK                         _______ _______ _______ _____ _____    ______ ____
ROOT
ATOM      1  C   UNL     1      47.055   5.082  14.067  0.00  0.00    +0.000 C 
ENDROOT
BRANCH   1   2
ATOM      2  C   UNL     1      46.432   5.777  12.827  0.00  0.00    +0.000 C 
ATOM      3  F   UNL     1      45.814   6.919  13.269  0.00  0.00    +0.000 F 
ATOM      4  F   UNL     1      47.467   6.223  12.049  0.00  0.00    +0.000 F 
BRANCH   2   5
ATOM      5  C   UNL     1      45.485   4.883  12.057  0.00  0.00    +0.000 A 
ATOM      6  C   UNL     1      44.687   3.956  12.744  0.00  0.00    +0.000 A 
ATOM      7  C   UNL     1      43.805   3.128  12.051  0.00  0.00    +0.000 A 
ATOM      8  C   UNL     1      43.703   3.211  10.661  0.00  0.00    +0.000 A 
ATOM      9  C   UNL     1      44.488   4.124   9.963  0.00  0.00    +0.000 A 
ATOM     10  C   UNL     1      45.370   4.959  10.659  0.00  0.00    +0.000 A 
BRANCH   9  11
ATOM     11  O   UNL     1      44.441   4.323   8.605  0.00  0.00    +0.000 OA
BRANCH  11  12
ATOM     12  C   UNL     1      45.054   3.366   7.726  0.00  0.00    +0.000 C 
ATOM     13  C   UNL     1      45.961   2.286   8.350  0.00  0.00    +0.000 C 
ATOM     14  C   UNL     1      46.986   2.681   7.282  0.00  0.00    +0.000 C 
ATOM     15  N   UNL     1      46.265   3.948   7.105  0.00  0.00    +0.000 NA
ATOM     16  H   UNL     1      46.137   4.247   6.141  0.00  0.00    +0.000 HD
ENDBRANCH  11  12
ENDBRANCH   9  11
ENDBRANCH   2   5
ENDBRANCH   1   2
BRANCH   1  17
ATOM     17  N   UNL     1      47.558   6.013  15.102  0.00  0.00    +0.000 N 
ATOM     18  H   UNL     1      47.773   6.942  14.743  0.00  0.00    +0.000 HD
BRANCH  17  22
ATOM     19  C   UNL     1      50.457   4.378  17.708  0.00  0.00    +0.000 A 
ATOM     20  C   UNL     1      49.257   3.710  17.445  0.00  0.00    +0.000 A 
ATOM     21  C   UNL     1      48.297   4.297  16.610  0.00  0.00    +0.000 A 
ATOM     22  C   UNL     1      48.507   5.559  16.029  0.00  0.00    +0.000 A 
ATOM     23  C   UNL     1      49.722   6.206  16.326  0.00  0.00    +0.000 A 
ATOM     24  F   UNL     1      50.003   7.412  15.811  0.00  0.00    +0.000 F 
ATOM     25  C   UNL     1      50.677   5.641  17.165  0.00  0.00    +0.000 A 
BRANCH  19  27
ATOM     26  N   UNL     1      51.682   4.292  19.802  0.00  0.00    +0.000 N 
ATOM     27  C   UNL     1      51.526   3.780  18.546  0.00  0.00    +0.000 C 
ATOM     28  O   UNL     1      52.199   2.837  18.152  0.00  0.00    +0.000 OA
ATOM     29  H   UNL     1      52.312   3.784  20.410  0.00  0.00    +0.000 HD
ATOM     30  H   UNL     1      50.971   4.862  20.241  0.00  0.00    +0.000 HD
ENDBRANCH  19  27
ENDBRANCH  17  22
ENDBRANCH   1  17
TORSDOF 7
ENDMDL
