MODEL 1
REMARK VINA RESULT:    -6.952      0.000      0.000
REMARK INTER + INTRA:          -9.954
REMARK INTER:                  -9.187
REMARK INTRA:                  -0.767
REMARK UNBOUND:                -0.767
REMARK  Name = 
REMARK  8 active torsions:
REMARK  status: ('A' for Active; 'I' for Inactive)
REMARK    1  A    between atoms: C_1  and  O_2
REMARK    2  A    between atoms: O_2  and  C_3
REMARK    3  A    between atoms: C_9  and  C_10
REMARK    4  A    between atoms: C_10  and  C_11
REMARK    5  A    between atoms: C_11  and  N_12
REMARK    6  A    between atoms: C_13  and  C_14
REMARK    7  A    between atoms: N_15  and  C_16
REMARK    8  A    between atoms: C_16  and  C_17
REMARK                            x       y       z     vdW  Elec       q    Type
REMARK                         _______ _______ _______ _____ _____    ______ ____
ROOT
ATOM      1  C   UNL     1      44.886   9.064  12.015  0.00  0.00    +0.000 A 
ATOM      2  C   UNL     1      43.987   8.536  11.093  0.00  0.00    +0.000 A 
ATOM      3  C   UNL     1      43.882   7.153  10.896  0.00  0.00    +0.000 A 
ATOM      4  C   UNL     1      44.699   6.303  11.661  0.00  0.00    +0.000 A 
ATOM      5  C   UNL     1      45.583   6.802  12.616  0.00  0.00    +0.000 A 
ATOM      6  C   UNL     1      45.678   8.202  12.782  0.00  0.00    +0.000 A 
ATOM      7  C   UNL     1      46.231   5.687  13.237  0.00  0.00    +0.000 A 
ATOM      8  C   UNL     1      45.746   4.535  12.628  0.00  0.00    +0.000 A 
ATOM      9  C   UNL     1      46.091   3.107  12.875  0.00  0.00    +0.000 C 
ATOM     10  N   UNL     1      44.839   4.927  11.659  0.00  0.00    +0.000 N 
ENDROOT
BRANCH   1  12
ATOM     11  C   UNL     1      44.478  11.318  11.376  0.00  0.00    +0.000 C 
ATOM     12  O   UNL     1      45.089  10.395  12.266  0.00  0.00    +0.000 OA
ENDBRANCH   1  12
BRANCH   7  13
ATOM     13  C   UNL     1      47.251   5.783  14.335  0.00  0.00    +0.000 C 
BRANCH  13  14
ATOM     14  C   UNL     1      48.382   6.761  13.993  0.00  0.00    +0.000 C 
BRANCH  14  15
ATOM     15  N   UNL     1      49.140   6.321  12.821  0.00  0.00    +0.000 NA
ATOM     16  H   UNL     1      49.821   5.615  13.097  0.00  0.00    +0.000 HD
ATOM     17  H   UNL     1      49.675   7.108  12.455  0.00  0.00    +0.000 HD
ENDBRANCH  14  15
ENDBRANCH  13  14
ENDBRANCH   7  13
BRANCH  10  18
ATOM     18  C   UNL     1      44.238   4.042  10.658  0.00  0.00    +0.000 C 
BRANCH  18  19
ATOM     19  C   UNL     1      45.161   3.617   9.537  0.00  0.00    +0.000 A 
ATOM     20  C   UNL     1      45.632   4.596   8.646  0.00  0.00    +0.000 A 
ATOM     21  C   UNL     1      46.355   4.240   7.504  0.00  0.00    +0.000 A 
ATOM     22  C   UNL     1      46.614   2.896   7.227  0.00  0.00    +0.000 A 
ATOM     23 CL   UNL     1      47.449   2.523   5.762  0.00  0.00    +0.000 Cl
ATOM     24  C   UNL     1      46.173   1.911   8.114  0.00  0.00    +0.000 A 
ATOM     25 CL   UNL     1      46.451   0.227   7.838  0.00  0.00    +0.000 Cl
ATOM     26  C   UNL     1      45.454   2.272   9.261  0.00  0.00    +0.000 A 
ENDBRANCH  18  19
ENDBRANCH  10  18
TORSDOF 6
ENDMDL
MODEL 2
REMARK VINA RESULT:    -6.837      2.162      4.107
REMARK INTER + INTRA:          -9.802
REMARK INTER:                  -9.051
REMARK INTRA:                  -0.751
REMARK UNBOUND:                -0.767
REMARK  Name = 
REMARK  8 active torsions:
REMARK  status: ('A' for Active; 'I' for Inactive)
REMARK    1  A    between atoms: C_1  and  O_2
REMARK    2  A    between atoms: O_2  and  C_3
REMARK    3  A    between atoms: C_9  and  C_10
REMARK    4  A    between atoms: C_10  and  C_11
REMARK    5  A    between atoms: C_11  and  N_12
REMARK    6  A    between atoms: C_13  and  C_14
REMARK    7  A    between atoms: N_15  and  C_16
REMARK    8  A    between atoms: C_16  and  C_17
REMARK                            x       y       z     vdW  Elec       q    Type
REMARK                         _______ _______ _______ _____ _____    ______ ____
ROOT
ATOM      1  C   UNL     1      47.251   4.447  14.522  0.00  0.00    +0.000 A 
ATOM      2  C   UNL     1      46.720   3.439  13.724  0.00  0.00    +0.000 A 
ATOM      3  C   UNL     1      45.843   3.735  12.672  0.00  0.00    +0.000 A 
ATOM      4  C   UNL     1      45.519   5.080  12.429  0.00  0.00    +0.000 A 
ATOM      5  C   UNL     1      46.062   6.114  13.190  0.00  0.00    +0.000 A 
ATOM      6  C   UNL     1      46.931   5.784  14.253  0.00  0.00    +0.000 A 
ATOM      7  C   UNL     1      45.563   7.350  12.669  0.00  0.00    +0.000 A 
ATOM      8  C   UNL     1      44.706   7.040  11.619  0.00  0.00    +0.000 A 
ATOM      9  C   UNL     1      43.907   7.941  10.742  0.00  0.00    +0.000 C 
ATOM     10  N   UNL     1      44.670   5.662  11.504  0.00  0.00    +0.000 N 
ENDROOT
BRANCH   1  12
ATOM     11  C   UNL     1      47.535   3.665  16.750  0.00  0.00    +0.000 C 
ATOM     12  O   UNL     1      48.091   4.268  15.589  0.00  0.00    +0.000 OA
ENDBRANCH   1  12
BRANCH   7  13
ATOM     13  C   UNL     1      45.915   8.713  13.194  0.00  0.00    +0.000 C 
BRANCH  13  14
ATOM     14  C   UNL     1      46.988   9.403  12.344  0.00  0.00    +0.000 C 
BRANCH  14  15
ATOM     15  N   UNL     1      47.106  10.824  12.673  0.00  0.00    +0.000 NA
ATOM     16  H   UNL     1      46.179  11.242  12.727  0.00  0.00    +0.000 HD
ATOM     17  H   UNL     1      47.593  11.302  11.916  0.00  0.00    +0.000 HD
ENDBRANCH  14  15
ENDBRANCH  13  14
ENDBRANCH   7  13
BRANCH  10  18
ATOM     18  C   UNL     1      43.747   4.910  10.649  0.00  0.00    +0.000 C 
BRANCH  18  19
ATOM     19  C   UNL     1      44.404   3.942   9.689  0.00  0.00    +0.000 A 
ATOM     20  C   UNL     1      44.229   2.564   9.898  0.00  0.00    +0.000 A 
ATOM     21  C   UNL     1      44.938   1.627   9.142  0.00  0.00    +0.000 A 
ATOM     22  C   UNL     1      45.842   2.051   8.167  0.00  0.00    +0.000 A 
ATOM     23 CL   UNL     1      46.738   0.841   7.319  0.00  0.00    +0.000 Cl
ATOM     24  C   UNL     1      46.012   3.417   7.929  0.00  0.00    +0.000 A 
ATOM     25 CL   UNL     1      47.115   4.019   6.742  0.00  0.00    +0.000 Cl
ATOM     26  C   UNL     1      45.294   4.354   8.685  0.00  0.00    +0.000 A 
ENDBRANCH  18  19
ENDBRANCH  10  18
TORSDOF 6
ENDMDL
MODEL 3
REMARK VINA RESULT:    -6.032      3.992      6.243
REMARK INTER + INTRA:          -8.738
REMARK INTER:                  -8.075
REMARK INTRA:                  -0.663
REMARK UNBOUND:                -0.767
REMARK  Name = 
REMARK  8 active torsions:
REMARK  status: ('A' for Active; 'I' for Inactive)
REMARK    1  A    between atoms: C_1  and  O_2
REMARK    2  A    between atoms: O_2  and  C_3
REMARK    3  A    between atoms: C_9  and  C_10
REMARK    4  A    between atoms: C_10  and  C_11
REMARK    5  A    between atoms: C_11  and  N_12
REMARK    6  A    between atoms: C_13  and  C_14
REMARK    7  A    between atoms: N_15  and  C_16
REMARK    8  A    between atoms: C_16  and  C_17
REMARK                            x       y       z     vdW  Elec       q    Type
REMARK                         _______ _______ _______ _____ _____    ______ ____
ROOT
ATOM      1  C   UNL     1      44.993   4.096  11.423  0.00  0.00    +0.000 A 
ATOM      2  C   UNL     1      45.164   5.325  10.795  0.00  0.00    +0.000 A 
ATOM      3  C   UNL     1      45.965   6.322  11.365  0.00  0.00    +0.000 A 
ATOM      4  C   UNL     1      46.607   6.051  12.586  0.00  0.00    +0.000 A 
ATOM      5  C   UNL     1      46.480   4.817  13.221  0.00  0.00    +0.000 A 
ATOM      6  C   UNL     1      45.654   3.836  12.630  0.00  0.00    +0.000 A 
ATOM      7  C   UNL     1      47.277   4.853  14.409  0.00  0.00    +0.000 A 
ATOM      8  C   UNL     1      47.850   6.118  14.485  0.00  0.00    +0.000 A 
ATOM      9  C   UNL     1      48.750   6.698  15.521  0.00  0.00    +0.000 C 
ATOM     10  N   UNL     1      47.413   6.839  13.388  0.00  0.00    +0.000 N 
ENDROOT
BRANCH   1  12
ATOM     11  C   UNL     1      44.527   2.534   9.691  0.00  0.00    +0.000 C 
ATOM     12  O   UNL     1      44.212   3.064  10.971  0.00  0.00    +0.000 OA
ENDBRANCH   1  12
BRANCH   7  13
ATOM     13  C   UNL     1      47.433   3.717  15.379  0.00  0.00    +0.000 C 
BRANCH  13  14
ATOM     14  C   UNL     1      47.040   4.114  16.807  0.00  0.00    +0.000 C 
BRANCH  14  15
ATOM     15  N   UNL     1      46.630   2.952  17.597  0.00  0.00    +0.000 NA
ATOM     16  H   UNL     1      45.954   2.401  17.072  0.00  0.00    +0.000 HD
ATOM     17  H   UNL     1      46.149   3.273  18.437  0.00  0.00    +0.000 HD
ENDBRANCH  14  15
ENDBRANCH  13  14
ENDBRANCH   7  13
BRANCH  10  18
ATOM     18  C   UNL     1      47.626   8.274  13.182  0.00  0.00    +0.000 C 
BRANCH  18  19
ATOM     19  C   UNL     1      48.963   8.646  12.580  0.00  0.00    +0.000 A 
ATOM     20  C   UNL     1      49.393   9.981  12.668  0.00  0.00    +0.000 A 
ATOM     21  C   UNL     1      50.539  10.412  11.994  0.00  0.00    +0.000 A 
ATOM     22  C   UNL     1      51.273   9.518  11.213  0.00  0.00    +0.000 A 
ATOM     23 CL   UNL     1      52.637  10.135  10.350  0.00  0.00    +0.000 Cl
ATOM     24  C   UNL     1      50.874   8.182  11.133  0.00  0.00    +0.000 A 
ATOM     25 CL   UNL     1      51.729   7.017  10.183  0.00  0.00    +0.000 Cl
ATOM     26  C   UNL     1      49.728   7.751  11.814  0.00  0.00    +0.000 A 
ENDBRANCH  18  19
ENDBRANCH  10  18
TORSDOF 6
ENDMDL
MODEL 4
REMARK VINA RESULT:    -5.604      4.047      6.846
REMARK INTER + INTRA:          -8.172
REMARK INTER:                  -7.145
REMARK INTRA:                  -1.027
REMARK UNBOUND:                -0.767
REMARK  Name = 
REMARK  8 active torsions:
REMARK  status: ('A' for Active; 'I' for Inactive)
REMARK    1  A    between atoms: C_1  and  O_2
REMARK    2  A    between atoms: O_2  and  C_3
REMARK    3  A    between atoms: C_9  and  C_10
REMARK    4  A    between atoms: C_10  and  C_11
REMARK    5  A    between atoms: C_11  and  N_12
REMARK    6  A    between atoms: C_13  and  C_14
REMARK    7  A    between atoms: N_15  and  C_16
REMARK    8  A    between atoms: C_16  and  C_17
REMARK                            x       y       z     vdW  Elec       q    Type
REMARK                         _______ _______ _______ _____ _____    ______ ____
ROOT
ATOM      1  C   UNL     1      43.853   5.283  11.726  0.00  0.00    +0.000 A 
ATOM      2  C   UNL     1      44.902   5.174  12.632  0.00  0.00    +0.000 A 
ATOM      3  C   UNL     1      45.659   6.293  13.000  0.00  0.00    +0.000 A 
ATOM      4  C   UNL     1      45.328   7.540  12.442  0.00  0.00    +0.000 A 
ATOM      5  C   UNL     1      44.260   7.685  11.558  0.00  0.00    +0.000 A 
ATOM      6  C   UNL     1      43.524   6.536  11.194  0.00  0.00    +0.000 A 
ATOM      7  C   UNL     1      44.170   9.070  11.207  0.00  0.00    +0.000 A 
ATOM      8  C   UNL     1      45.200   9.732  11.864  0.00  0.00    +0.000 A 
ATOM      9  C   UNL     1      45.577  11.173  11.840  0.00  0.00    +0.000 C 
ATOM     10  N   UNL     1      45.908   8.787  12.586  0.00  0.00    +0.000 N 
ENDROOT
BRANCH   1  12
ATOM     11  C   UNL     1      43.708   3.001  11.072  0.00  0.00    +0.000 C 
ATOM     12  O   UNL     1      43.069   4.254  11.276  0.00  0.00    +0.000 OA
ENDBRANCH   1  12
BRANCH   7  13
ATOM     13  C   UNL     1      43.141   9.661  10.285  0.00  0.00    +0.000 C 
BRANCH  13  14
ATOM     14  C   UNL     1      41.989  10.323  11.049  0.00  0.00    +0.000 C 
BRANCH  14  15
ATOM     15  N   UNL     1      40.936   9.361  11.378  0.00  0.00    +0.000 NA
ATOM     16  H   UNL     1      40.491   9.032  10.522  0.00  0.00    +0.000 HD
ATOM     17  H   UNL     1      40.209   9.832  11.915  0.00  0.00    +0.000 HD
ENDBRANCH  14  15
ENDBRANCH  13  14
ENDBRANCH   7  13
BRANCH  10  18
ATOM     18  C   UNL     1      47.182   9.027  13.269  0.00  0.00    +0.000 C 
BRANCH  18  19
ATOM     19  C   UNL     1      48.409   8.945  12.388  0.00  0.00    +0.000 A 
ATOM     20  C   UNL     1      48.978   7.683  12.143  0.00  0.00    +0.000 A 
ATOM     21  C   UNL     1      50.197   7.563  11.471  0.00  0.00    +0.000 A 
ATOM     22  C   UNL     1      50.877   8.704  11.039  0.00  0.00    +0.000 A 
ATOM     23 CL   UNL     1      52.414   8.487  10.281  0.00  0.00    +0.000 Cl
ATOM     24  C   UNL     1      50.315   9.965  11.254  0.00  0.00    +0.000 A 
ATOM     25 CL   UNL     1      51.098  11.423  10.752  0.00  0.00    +0.000 Cl
ATOM     26  C   UNL     1      49.089  10.081  11.922  0.00  0.00    +0.000 A 
ENDBRANCH  18  19
ENDBRANCH  10  18
TORSDOF 6
ENDMDL
MODEL 5
REMARK VINA RESULT:    -5.497      2.470      4.516
REMARK INTER + INTRA:          -8.032
REMARK INTER:                  -7.240
REMARK INTRA:                  -0.792
REMARK UNBOUND:                -0.767
REMARK  Name = 
REMARK  8 active torsions:
REMARK  status: ('A' for Active; 'I' for Inactive)
REMARK    1  A    between atoms: C_1  and  O_2
REMARK    2  A    between atoms: O_2  and  C_3
REMARK    3  A    between atoms: C_9  and  C_10
REMARK    4  A    between atoms: C_10  and  C_11
REMARK    5  A    between atoms: C_11  and  N_12
REMARK    6  A    between atoms: C_13  and  C_14
REMARK    7  A    between atoms: N_15  and  C_16
REMARK    8  A    between atoms: C_16  and  C_17
REMARK                            x       y       z     vdW  Elec       q    Type
REMARK                         _______ _______ _______ _____ _____    ______ ____
ROOT
ATOM      1  C   UNL     1      47.949   4.689  15.471  0.00  0.00    +0.000 A 
ATOM      2  C   UNL     1      46.917   3.998  14.846  0.00  0.00    +0.000 A 
ATOM      3  C   UNL     1      46.136   4.606  13.854  0.00  0.00    +0.000 A 
ATOM      4  C   UNL     1      46.427   5.932  13.492  0.00  0.00    +0.000 A 
ATOM      5  C   UNL     1      47.478   6.637  14.077  0.00  0.00    +0.000 A 
ATOM      6  C   UNL     1      48.238   6.003  15.084  0.00  0.00    +0.000 A 
ATOM      7  C   UNL     1      47.528   7.932  13.468  0.00  0.00    +0.000 A 
ATOM      8  C   UNL     1      46.490   7.996  12.545  0.00  0.00    +0.000 A 
ATOM      9  C   UNL     1      46.076   9.112  11.650  0.00  0.00    +0.000 C 
ATOM     10  N   UNL     1      45.818   6.787  12.591  0.00  0.00    +0.000 N 
ENDROOT
BRANCH   1  12
ATOM     11  C   UNL     1      49.156   5.121  17.475  0.00  0.00    +0.000 C 
ATOM     12  O   UNL     1      48.753   4.202  16.469  0.00  0.00    +0.000 OA
ENDBRANCH   1  12
BRANCH   7  13
ATOM     13  C   UNL     1      48.527   9.004  13.800  0.00  0.00    +0.000 C 
BRANCH  13  14
ATOM     14  C   UNL     1      49.891   8.748  13.148  0.00  0.00    +0.000 C 
BRANCH  14  15
ATOM     15  N   UNL     1      50.105   9.613  11.988  0.00  0.00    +0.000 NA
ATOM     16  H   UNL     1      50.278  10.568  12.299  0.00  0.00    +0.000 HD
ATOM     17  H   UNL     1      49.252   9.642  11.431  0.00  0.00    +0.000 HD
ENDBRANCH  14  15
ENDBRANCH  13  14
ENDBRANCH   7  13
BRANCH  10  18
ATOM     18  C   UNL     1      44.549   6.501  11.917  0.00  0.00    +0.000 C 
BRANCH  18  19
ATOM     19  C   UNL     1      44.566   5.303  10.993  0.00  0.00    +0.000 A 
ATOM     20  C   UNL     1      43.885   4.140  11.386  0.00  0.00    +0.000 A 
ATOM     21  C   UNL     1      43.999   2.957  10.651  0.00  0.00    +0.000 A 
ATOM     22  C   UNL     1      44.804   2.913   9.511  0.00  0.00    +0.000 A 
ATOM     23 CL   UNL     1      44.958   1.400   8.691  0.00  0.00    +0.000 Cl
ATOM     24  C   UNL     1      45.471   4.067   9.092  0.00  0.00    +0.000 A 
ATOM     25 CL   UNL     1      46.489   4.090   7.694  0.00  0.00    +0.000 Cl
ATOM     26  C   UNL     1      45.349   5.253   9.828  0.00  0.00    +0.000 A 
ENDBRANCH  18  19
ENDBRANCH  10  18
TORSDOF 6
ENDMDL
MODEL 6
REMARK VINA RESULT:    -5.420      4.660      7.523
REMARK INTER + INTRA:          -7.929
REMARK INTER:                  -7.107
REMARK INTRA:                  -0.822
REMARK UNBOUND:                -0.767
REMARK  Name = 
REMARK  8 active torsions:
REMARK  status: ('A' for Active; 'I' for Inactive)
REMARK    1  A    between atoms: C_1  and  O_2
REMARK    2  A    between atoms: O_2  and  C_3
REMARK    3  A    between atoms: C_9  and  C_10
REMARK    4  A    between atoms: C_10  and  C_11
REMARK    5  A    between atoms: C_11  and  N_12
REMARK    6  A    between atoms: C_13  and  C_14
REMARK    7  A    between atoms: N_15  and  C_16
REMARK    8  A    between atoms: C_16  and  C_17
REMARK                            x       y       z     vdW  Elec       q    Type
REMARK                         _______ _______ _______ _____ _____    ______ ____
ROOT
ATOM      1  C   UNL     1      44.456   4.868  12.536  0.00  0.00    +0.000 A 
ATOM      2  C   UNL     1      45.629   4.249  12.954  0.00  0.00    +0.000 A 
ATOM      3  C   UNL     1      46.777   4.998  13.245  0.00  0.00    +0.000 A 
ATOM      4  C   UNL     1      46.715   6.396  13.118  0.00  0.00    +0.000 A 
ATOM      5  C   UNL     1      45.543   7.046  12.734  0.00  0.00    +0.000 A 
ATOM      6  C   UNL     1      44.406   6.264  12.432  0.00  0.00    +0.000 A 
ATOM      7  C   UNL     1      45.803   8.453  12.735  0.00  0.00    +0.000 A 
ATOM      8  C   UNL     1      47.135   8.628  13.094  0.00  0.00    +0.000 A 
ATOM      9  C   UNL     1      47.929   9.881  13.234  0.00  0.00    +0.000 C 
ATOM     10  N   UNL     1      47.679   7.372  13.297  0.00  0.00    +0.000 N 
ENDROOT
BRANCH   1  12
ATOM     11  C   UNL     1      43.379   2.854  11.874  0.00  0.00    +0.000 C 
ATOM     12  O   UNL     1      43.289   4.233  12.199  0.00  0.00    +0.000 OA
ENDBRANCH   1  12
BRANCH   7  13
ATOM     13  C   UNL     1      44.798   9.516  12.394  0.00  0.00    +0.000 C 
BRANCH  13  14
ATOM     14  C   UNL     1      44.380   9.469  10.920  0.00  0.00    +0.000 C 
BRANCH  14  15
ATOM     15  N   UNL     1      42.997   9.016  10.765  0.00  0.00    +0.000 NA
ATOM     16  H   UNL     1      42.625   9.345   9.875  0.00  0.00    +0.000 HD
ATOM     17  H   UNL     1      42.423   9.444  11.491  0.00  0.00    +0.000 HD
ENDBRANCH  14  15
ENDBRANCH  13  14
ENDBRANCH   7  13
BRANCH  10  18
ATOM     18  C   UNL     1      49.103   7.093  13.503  0.00  0.00    +0.000 C 
BRANCH  18  19
ATOM     19  C   UNL     1      49.542   7.027  14.950  0.00  0.00    +0.000 A 
ATOM     20  C   UNL     1      50.892   7.270  15.255  0.00  0.00    +0.000 A 
ATOM     21  C   UNL     1      51.384   7.067  16.547  0.00  0.00    +0.000 A 
ATOM     22  C   UNL     1      50.536   6.611  17.558  0.00  0.00    +0.000 A 
ATOM     23 CL   UNL     1      51.226   6.313  19.114  0.00  0.00    +0.000 Cl
ATOM     24  C   UNL     1      49.186   6.387  17.279  0.00  0.00    +0.000 A 
ATOM     25 CL   UNL     1      48.076   5.818  18.476  0.00  0.00    +0.000 Cl
ATOM     26  C   UNL     1      48.695   6.597  15.983  0.00  0.00    +0.000 A 
ENDBRANCH  18  19
ENDBRANCH  10  18
TORSDOF 6
ENDMDL
MODEL 7
REMARK VINA RESULT:    -5.379      5.140      8.099
REMARK INTER + INTRA:          -7.875
REMARK INTER:                  -6.841
REMARK INTRA:                  -1.034
REMARK UNBOUND:                -0.767
REMARK  Name = 
REMARK  8 active torsions:
REMARK  status: ('A' for Active; 'I' for Inactive)
REMARK    1  A    between atoms: C_1  and  O_2
REMARK    2  A    between atoms: O_2  and  C_3
REMARK    3  A    between atoms: C_9  and  C_10
REMARK    4  A    between atoms: C_10  and  C_11
REMARK    5  A    between atoms: C_11  and  N_12
REMARK    6  A    between atoms: C_13  and  C_14
REMARK    7  A    between atoms: N_15  and  C_16
REMARK    8  A    between atoms: C_16  and  C_17
REMARK                            x       y       z     vdW  Elec       q    Type
REMARK                         _______ _______ _______ _____ _____    ______ ____
ROOT
ATOM      1  C   UNL     1      45.394   4.634  12.173  0.00  0.00    +0.000 A 
ATOM      2  C   UNL     1      46.143   4.015  13.169  0.00  0.00    +0.000 A 
ATOM      3  C   UNL     1      47.074   4.737  13.927  0.00  0.00    +0.000 A 
ATOM      4  C   UNL     1      47.229   6.110  13.668  0.00  0.00    +0.000 A 
ATOM      5  C   UNL     1      46.468   6.763  12.701  0.00  0.00    +0.000 A 
ATOM      6  C   UNL     1      45.547   6.006  11.942  0.00  0.00    +0.000 A 
ATOM      7  C   UNL     1      46.839   8.145  12.712  0.00  0.00    +0.000 A 
ATOM      8  C   UNL     1      47.837   8.298  13.668  0.00  0.00    +0.000 A 
ATOM      9  C   UNL     1      48.588   9.518  14.078  0.00  0.00    +0.000 C 
ATOM     10  N   UNL     1      48.079   7.052  14.219  0.00  0.00    +0.000 N 
ENDROOT
BRANCH   1  12
ATOM     11  C   UNL     1      43.457   3.265  11.991  0.00  0.00    +0.000 C 
ATOM     12  O   UNL     1      44.480   4.020  11.357  0.00  0.00    +0.000 OA
ENDBRANCH   1  12
BRANCH   7  13
ATOM     13  C   UNL     1      46.244   9.206  11.830  0.00  0.00    +0.000 C 
BRANCH  13  14
ATOM     14  C   UNL     1      44.861   9.655  12.314  0.00  0.00    +0.000 C 
BRANCH  14  15
ATOM     15  N   UNL     1      43.801   9.205  11.410  0.00  0.00    +0.000 NA
ATOM     16  H   UNL     1      42.908   9.207  11.901  0.00  0.00    +0.000 HD
ATOM     17  H   UNL     1      43.979   8.238  11.142  0.00  0.00    +0.000 HD
ENDBRANCH  14  15
ENDBRANCH  13  14
ENDBRANCH   7  13
BRANCH  10  18
ATOM     18  C   UNL     1      49.184   6.731  15.127  0.00  0.00    +0.000 C 
BRANCH  18  19
ATOM     19  C   UNL     1      48.810   6.650  16.591  0.00  0.00    +0.000 A 
ATOM     20  C   UNL     1      48.602   5.384  17.163  0.00  0.00    +0.000 A 
ATOM     21  C   UNL     1      48.103   5.255  18.462  0.00  0.00    +0.000 A 
ATOM     22  C   UNL     1      47.794   6.392  19.211  0.00  0.00    +0.000 A 
ATOM     23 CL   UNL     1      47.112   6.160  20.782  0.00  0.00    +0.000 Cl
ATOM     24  C   UNL     1      48.016   7.660  18.667  0.00  0.00    +0.000 A 
ATOM     25 CL   UNL     1      47.655   9.113  19.531  0.00  0.00    +0.000 Cl
ATOM     26  C   UNL     1      48.523   7.784  17.367  0.00  0.00    +0.000 A 
ENDBRANCH  18  19
ENDBRANCH  10  18
TORSDOF 6
ENDMDL
MODEL 8
REMARK VINA RESULT:    -5.216      5.026      7.726
REMARK INTER + INTRA:          -7.660
REMARK INTER:                  -6.556
REMARK INTRA:                  -1.104
REMARK UNBOUND:                -0.767
REMARK  Name = 
REMARK  8 active torsions:
REMARK  status: ('A' for Active; 'I' for Inactive)
REMARK    1  A    between atoms: C_1  and  O_2
REMARK    2  A    between atoms: O_2  and  C_3
REMARK    3  A    between atoms: C_9  and  C_10
REMARK    4  A    between atoms: C_10  and  C_11
REMARK    5  A    between atoms: C_11  and  N_12
REMARK    6  A    between atoms: C_13  and  C_14
REMARK    7  A    between atoms: N_15  and  C_16
REMARK    8  A    between atoms: C_16  and  C_17
REMARK                            x       y       z     vdW  Elec       q    Type
REMARK                         _______ _______ _______ _____ _____    ______ ____
ROOT
ATOM      1  C   UNL     1      46.517   5.159  12.895  0.00  0.00    +0.000 A 
ATOM      2  C   UNL     1      46.303   4.287  13.956  0.00  0.00    +0.000 A 
ATOM      3  C   UNL     1      46.959   4.464  15.181  0.00  0.00    +0.000 A 
ATOM      4  C   UNL     1      47.834   5.554  15.322  0.00  0.00    +0.000 A 
ATOM      5  C   UNL     1      48.042   6.464  14.287  0.00  0.00    +0.000 A 
ATOM      6  C   UNL     1      47.378   6.252  13.058  0.00  0.00    +0.000 A 
ATOM      7  C   UNL     1      48.951   7.463  14.759  0.00  0.00    +0.000 A 
ATOM      8  C   UNL     1      49.297   7.126  16.063  0.00  0.00    +0.000 A 
ATOM      9  C   UNL     1      50.218   7.808  17.014  0.00  0.00    +0.000 C 
ATOM     10  N   UNL     1      48.632   5.953  16.379  0.00  0.00    +0.000 N 
ENDROOT
BRANCH   1  12
ATOM     11  C   UNL     1      45.241   6.199  11.178  0.00  0.00    +0.000 C 
ATOM     12  O   UNL     1      45.953   5.064  11.650  0.00  0.00    +0.000 OA
ENDBRANCH   1  12
BRANCH   7  13
ATOM     13  C   UNL     1      49.429   8.642  13.960  0.00  0.00    +0.000 C 
BRANCH  13  14
ATOM     14  C   UNL     1      50.813   8.403  13.345  0.00  0.00    +0.000 C 
BRANCH  14  15
ATOM     15  N   UNL     1      50.725   7.653  12.091  0.00  0.00    +0.000 NA
ATOM     16  H   UNL     1      50.025   6.918  12.179  0.00  0.00    +0.000 HD
ATOM     17  H   UNL     1      51.613   7.185  11.919  0.00  0.00    +0.000 HD
ENDBRANCH  14  15
ENDBRANCH  13  14
ENDBRANCH   7  13
BRANCH  10  18
ATOM     18  C   UNL     1      48.862   5.152  17.584  0.00  0.00    +0.000 C 
BRANCH  18  19
ATOM     19  C   UNL     1      49.927   4.086  17.454  0.00  0.00    +0.000 A 
ATOM     20  C   UNL     1      49.532   2.773  17.147  0.00  0.00    +0.000 A 
ATOM     21  C   UNL     1      50.453   1.721  17.171  0.00  0.00    +0.000 A 
ATOM     22  C   UNL     1      51.785   1.962  17.512  0.00  0.00    +0.000 A 
ATOM     23 CL   UNL     1      52.852   0.606  17.594  0.00  0.00    +0.000 Cl
ATOM     24  C   UNL     1      52.201   3.264  17.799  0.00  0.00    +0.000 A 
ATOM     25 CL   UNL     1      53.831   3.640  18.233  0.00  0.00    +0.000 Cl
ATOM     26  C   UNL     1      51.277   4.317  17.767  0.00  0.00    +0.000 A 
ENDBRANCH  18  19
ENDBRANCH  10  18
TORSDOF 6
ENDMDL
MODEL 9
REMARK VINA RESULT:    -5.149      4.966      7.806
REMARK INTER + INTRA:          -7.572
REMARK INTER:                  -6.587
REMARK INTRA:                  -0.985
REMARK UNBOUND:                -0.767
REMARK  Name = 
REMARK  8 active torsions:
REMARK  status: ('A' for Active; 'I' for Inactive)
REMARK    1  A    between atoms: C_1  and  O_2
REMARK    2  A    between atoms: O_2  and  C_3
REMARK    3  A    between atoms: C_9  and  C_10
REMARK    4  A    between atoms: C_10  and  C_11
REMARK    5  A    between atoms: C_11  and  N_12
REMARK    6  A    between atoms: C_13  and  C_14
REMARK    7  A    between atoms: N_15  and  C_16
REMARK    8  A    between atoms: C_16  and  C_17
REMARK                            x       y       z     vdW  Elec       q    Type
REMARK                         _______ _______ _______ _____ _____    ______ ____
ROOT
ATOM      1  C   UNL     1      49.126   7.910  12.775  0.00  0.00    +0.000 A 
ATOM      2  C   UNL     1      50.078   8.098  13.771  0.00  0.00    +0.000 A 
ATOM      3  C   UNL     1      50.022   7.375  14.970  0.00  0.00    +0.000 A 
ATOM      4  C   UNL     1      48.986   6.442  15.143  0.00  0.00    +0.000 A 
ATOM      5  C   UNL     1      48.038   6.208  14.148  0.00  0.00    +0.000 A 
ATOM      6  C   UNL     1      48.111   6.962  12.956  0.00  0.00    +0.000 A 
ATOM      7  C   UNL     1      47.154   5.186  14.618  0.00  0.00    +0.000 A 
ATOM      8  C   UNL     1      47.567   4.839  15.900  0.00  0.00    +0.000 A 
ATOM      9  C   UNL     1      46.995   3.845  16.851  0.00  0.00    +0.000 C 
ATOM     10  N   UNL     1      48.661   5.627  16.212  0.00  0.00    +0.000 N 
ENDROOT
BRANCH   1  12
ATOM     11  C   UNL     1      49.747   9.826  11.511  0.00  0.00    +0.000 C 
ATOM     12  O   UNL     1      49.069   8.580  11.581  0.00  0.00    +0.000 OA
ENDBRANCH   1  12
BRANCH   7  13
ATOM     13  C   UNL     1      45.995   4.624  13.845  0.00  0.00    +0.000 C 
BRANCH  13  14
ATOM     14  C   UNL     1      46.394   3.404  13.007  0.00  0.00    +0.000 C 
BRANCH  14  15
ATOM     15  N   UNL     1      45.221   2.673  12.525  0.00  0.00    +0.000 NA
ATOM     16  H   UNL     1      44.619   2.434  13.311  0.00  0.00    +0.000 HD
ATOM     17  H   UNL     1      45.524   1.789  12.117  0.00  0.00    +0.000 HD
ENDBRANCH  14  15
ENDBRANCH  13  14
ENDBRANCH   7  13
BRANCH  10  18
ATOM     18  C   UNL     1      49.286   5.717  17.534  0.00  0.00    +0.000 C 
BRANCH  18  19
ATOM     19  C   UNL     1      50.539   4.887  17.711  0.00  0.00    +0.000 A 
ATOM     20  C   UNL     1      51.781   5.542  17.745  0.00  0.00    +0.000 A 
ATOM     21  C   UNL     1      52.976   4.817  17.747  0.00  0.00    +0.000 A 
ATOM     22  C   UNL     1      52.951   3.422  17.706  0.00  0.00    +0.000 A 
ATOM     23 CL   UNL     1      54.465   2.592  17.636  0.00  0.00    +0.000 Cl
ATOM     24  C   UNL     1      51.725   2.753  17.695  0.00  0.00    +0.000 A 
ATOM     25 CL   UNL     1      51.613   1.029  17.641  0.00  0.00    +0.000 Cl
ATOM     26  C   UNL     1      50.529   3.483  17.700  0.00  0.00    +0.000 A 
ENDBRANCH  18  19
ENDBRANCH  10  18
TORSDOF 6
ENDMDL
