MODEL 1
REMARK VINA RESULT:    -8.349      0.000      0.000
REMARK INTER + INTRA:         -12.227
REMARK INTER:                 -11.277
REMARK INTRA:                  -0.950
REMARK UNBOUND:                -0.950
REMARK  Name = 
REMARK  7 active torsions:
REMARK  status: ('A' for Active; 'I' for Inactive)
REMARK    1  A    between atoms: C_1  and  N_2
REMARK    2  A    between atoms: N_5  and  C_6
REMARK    3  A    between atoms: C_10  and  C_11
REMARK    4  A    between atoms: C_11  and  C_12
REMARK    5  A    between atoms: C_12  and  N_13
REMARK    6  A    between atoms: N_13  and  C_14
REMARK    7  A    between atoms: C_17  and  C_18
REMARK                            x       y       z     vdW  Elec       q    Type
REMARK                         _______ _______ _______ _____ _____    ______ ____
ROOT
ATOM      1  C   UNL     1      43.719   5.529  12.210  0.00  0.00    +0.000 C 
ENDROOT
BRANCH   1   6
ATOM      2  C   UNL     1      47.147   5.702  13.916  0.00  0.00    +0.000 A 
ATOM      3  C   UNL     1      47.894   6.356  12.927  0.00  0.00    +0.000 A 
ATOM      4  C   UNL     1      47.319   6.771  11.725  0.00  0.00    +0.000 A 
ATOM      5  C   UNL     1      45.972   6.528  11.475  0.00  0.00    +0.000 A 
ATOM      6  C   UNL     1      45.187   5.857  12.417  0.00  0.00    +0.000 A 
ATOM      7  C   UNL     1      45.792   5.463  13.626  0.00  0.00    +0.000 A 
BRANCH   2  12
ATOM      8  C   UNL     1      48.129   5.070  19.349  0.00  0.00    +0.000 C 
ATOM      9  N   UNL     1      48.386   4.891  17.924  0.00  0.00    +0.000 NA
ATOM     10  C   UNL     1      47.249   4.202  17.272  0.00  0.00    +0.000 C 
ATOM     11  C   UNL     1      47.454   4.040  15.748  0.00  0.00    +0.000 C 
ATOM     12  N   UNL     1      47.681   5.362  15.142  0.00  0.00    +0.000 N 
ATOM     13  C   UNL     1      48.811   6.091  15.739  0.00  0.00    +0.000 C 
ATOM     14  C   UNL     1      48.602   6.203  17.269  0.00  0.00    +0.000 C 
ENDBRANCH   2  12
ENDBRANCH   1   6
BRANCH   1  15
ATOM     15  C   UNL     1      43.370   5.039  10.805  0.00  0.00    +0.000 C 
BRANCH  15  16
ATOM     16  N   UNL     1      43.726   3.638  10.592  0.00  0.00    +0.000 N 
ATOM     17  H   UNL     1      42.943   2.991  10.641  0.00  0.00    +0.000 HD
BRANCH  16  18
ATOM     18  C   UNL     1      44.597   3.343   9.533  0.00  0.00    +0.000 A 
ATOM     19  C   UNL     1      45.216   4.326   8.746  0.00  0.00    +0.000 A 
ATOM     20  C   UNL     1      46.134   3.989   7.747  0.00  0.00    +0.000 A 
ATOM     21  C   UNL     1      46.490   2.658   7.542  0.00  0.00    +0.000 A 
ATOM     22  C   UNL     1      45.905   1.663   8.332  0.00  0.00    +0.000 A 
ATOM     23  C   UNL     1      44.974   2.010   9.322  0.00  0.00    +0.000 A 
BRANCH  21  24
ATOM     24  C   UNL     1      47.487   2.358   6.482  0.00  0.00    +0.000 C 
ATOM     25  N   UNL     1      47.430   3.108   5.339  0.00  0.00    +0.000 N 
ATOM     26  O   UNL     1      48.296   1.449   6.595  0.00  0.00    +0.000 OA
ATOM     27  H   UNL     1      46.628   3.675   5.108  0.00  0.00    +0.000 HD
ATOM     28  H   UNL     1      48.023   2.801   4.580  0.00  0.00    +0.000 HD
ENDBRANCH  21  24
ENDBRANCH  16  18
ENDBRANCH  15  16
ENDBRANCH   1  15
TORSDOF 6
ENDMDL
MODEL 2
REMARK VINA RESULT:    -7.421      2.912      3.762
REMARK INTER + INTRA:         -10.973
REMARK INTER:                 -10.256
REMARK INTRA:                  -0.717
REMARK UNBOUND:                -0.950
REMARK  Name = 
REMARK  7 active torsions:
REMARK  status: ('A' for Active; 'I' for Inactive)
REMARK    1  A    between atoms: C_1  and  N_2
REMARK    2  A    between atoms: N_5  and  C_6
REMARK    3  A    between atoms: C_10  and  C_11
REMARK    4  A    between atoms: C_11  and  C_12
REMARK    5  A    between atoms: C_12  and  N_13
REMARK    6  A    between atoms: N_13  and  C_14
REMARK    7  A    between atoms: C_17  and  C_18
REMARK                            x       y       z     vdW  Elec       q    Type
REMARK                         _______ _______ _______ _____ _____    ______ ____
ROOT
ATOM      1  C   UNL     1      45.447   5.218  11.721  0.00  0.00    +0.000 C 
ENDROOT
BRANCH   1   6
ATOM      2  C   UNL     1      47.680   8.290  12.239  0.00  0.00    +0.000 A 
ATOM      3  C   UNL     1      46.726   9.314  12.186  0.00  0.00    +0.000 A 
ATOM      4  C   UNL     1      45.367   9.045  12.013  0.00  0.00    +0.000 A 
ATOM      5  C   UNL     1      44.928   7.732  11.874  0.00  0.00    +0.000 A 
ATOM      6  C   UNL     1      45.841   6.674  11.894  0.00  0.00    +0.000 A 
ATOM      7  C   UNL     1      47.202   6.976  12.084  0.00  0.00    +0.000 A 
BRANCH   2  12
ATOM      8  C   UNL     1      52.492  10.226  14.235  0.00  0.00    +0.000 C 
ATOM      9  N   UNL     1      51.645   9.384  13.395  0.00  0.00    +0.000 NA
ATOM     10  C   UNL     1      50.761   8.537  14.230  0.00  0.00    +0.000 C 
ATOM     11  C   UNL     1      49.806   7.667  13.381  0.00  0.00    +0.000 C 
ATOM     12  N   UNL     1      49.014   8.535  12.494  0.00  0.00    +0.000 N 
ATOM     13  C   UNL     1      49.838   9.391  11.627  0.00  0.00    +0.000 C 
ATOM     14  C   UNL     1      50.813  10.219  12.498  0.00  0.00    +0.000 C 
ENDBRANCH   2  12
ENDBRANCH   1   6
BRANCH   1  15
ATOM     15  C   UNL     1      43.971   4.994  11.392  0.00  0.00    +0.000 C 
BRANCH  15  16
ATOM     16  N   UNL     1      43.739   4.776   9.966  0.00  0.00    +0.000 N 
ATOM     17  H   UNL     1      43.459   5.607   9.452  0.00  0.00    +0.000 HD
BRANCH  16  18
ATOM     18  C   UNL     1      44.681   4.008   9.265  0.00  0.00    +0.000 A 
ATOM     19  C   UNL     1      44.710   2.605   9.297  0.00  0.00    +0.000 A 
ATOM     20  C   UNL     1      45.619   1.876   8.525  0.00  0.00    +0.000 A 
ATOM     21  C   UNL     1      46.495   2.536   7.665  0.00  0.00    +0.000 A 
ATOM     22  C   UNL     1      46.466   3.933   7.597  0.00  0.00    +0.000 A 
ATOM     23  C   UNL     1      45.559   4.655   8.387  0.00  0.00    +0.000 A 
BRANCH  21  24
ATOM     24  C   UNL     1      47.426   1.712   6.851  0.00  0.00    +0.000 C 
ATOM     25  N   UNL     1      48.478   2.355   6.261  0.00  0.00    +0.000 N 
ATOM     26  O   UNL     1      47.240   0.517   6.671  0.00  0.00    +0.000 OA
ATOM     27  H   UNL     1      48.513   3.359   6.173  0.00  0.00    +0.000 HD
ATOM     28  H   UNL     1      49.018   1.806   5.605  0.00  0.00    +0.000 HD
ENDBRANCH  21  24
ENDBRANCH  16  18
ENDBRANCH  15  16
ENDBRANCH   1  15
TORSDOF 6
ENDMDL
MODEL 3
REMARK VINA RESULT:    -7.255      2.655      7.873
REMARK INTER + INTRA:         -10.749
REMARK INTER:                  -9.633
REMARK INTRA:                  -1.117
REMARK UNBOUND:                -0.950
REMARK  Name = 
REMARK  7 active torsions:
REMARK  status: ('A' for Active; 'I' for Inactive)
REMARK    1  A    between atoms: C_1  and  N_2
REMARK    2  A    between atoms: N_5  and  C_6
REMARK    3  A    between atoms: C_10  and  C_11
REMARK    4  A    between atoms: C_11  and  C_12
REMARK    5  A    between atoms: C_12  and  N_13
REMARK    6  A    between atoms: N_13  and  C_14
REMARK    7  A    between atoms: C_17  and  C_18
REMARK                            x       y       z     vdW  Elec       q    Type
REMARK                         _______ _______ _______ _____ _____    ______ ____
ROOT
ATOM      1  C   UNL     1      45.456   7.806  11.940  0.00  0.00    +0.000 C 
ENDROOT
BRANCH   1   6
ATOM      2  C   UNL     1      44.788   4.352  10.416  0.00  0.00    +0.000 A 
ATOM      3  C   UNL     1      43.861   3.841  11.333  0.00  0.00    +0.000 A 
ATOM      4  C   UNL     1      43.419   4.588  12.426  0.00  0.00    +0.000 A 
ATOM      5  C   UNL     1      43.907   5.874  12.636  0.00  0.00    +0.000 A 
ATOM      6  C   UNL     1      44.853   6.423  11.765  0.00  0.00    +0.000 A 
ATOM      7  C   UNL     1      45.269   5.650  10.665  0.00  0.00    +0.000 A 
BRANCH   2  12
ATOM      8  C   UNL     1      47.583   1.420   6.611  0.00  0.00    +0.000 C 
ATOM      9  N   UNL     1      46.427   2.121   7.162  0.00  0.00    +0.000 NA
ATOM     10  C   UNL     1      46.001   1.500   8.437  0.00  0.00    +0.000 C 
ATOM     11  C   UNL     1      44.811   2.245   9.085  0.00  0.00    +0.000 C 
ATOM     12  N   UNL     1      45.170   3.659   9.286  0.00  0.00    +0.000 N 
ATOM     13  C   UNL     1      45.589   4.336   8.049  0.00  0.00    +0.000 C 
ATOM     14  C   UNL     1      46.752   3.547   7.399  0.00  0.00    +0.000 C 
ENDBRANCH   2  12
ENDBRANCH   1   6
BRANCH   1  15
ATOM     15  C   UNL     1      46.407   7.938  13.129  0.00  0.00    +0.000 C 
BRANCH  15  16
ATOM     16  N   UNL     1      47.531   7.009  13.057  0.00  0.00    +0.000 N 
ATOM     17  H   UNL     1      48.422   7.440  12.822  0.00  0.00    +0.000 HD
BRANCH  16  18
ATOM     18  C   UNL     1      47.653   6.056  14.079  0.00  0.00    +0.000 A 
ATOM     19  C   UNL     1      48.264   6.322  15.313  0.00  0.00    +0.000 A 
ATOM     20  C   UNL     1      48.300   5.365  16.332  0.00  0.00    +0.000 A 
ATOM     21  C   UNL     1      47.680   4.129  16.154  0.00  0.00    +0.000 A 
ATOM     22  C   UNL     1      47.042   3.851  14.941  0.00  0.00    +0.000 A 
ATOM     23  C   UNL     1      47.025   4.813  13.921  0.00  0.00    +0.000 A 
BRANCH  21  24
ATOM     24  C   UNL     1      47.729   3.157  17.277  0.00  0.00    +0.000 C 
ATOM     25  N   UNL     1      48.957   2.880  17.811  0.00  0.00    +0.000 N 
ATOM     26  O   UNL     1      46.726   2.587  17.680  0.00  0.00    +0.000 OA
ATOM     27  H   UNL     1      49.815   3.126  17.342  0.00  0.00    +0.000 HD
ATOM     28  H   UNL     1      48.986   2.120  18.477  0.00  0.00    +0.000 HD
ENDBRANCH  21  24
ENDBRANCH  16  18
ENDBRANCH  15  16
ENDBRANCH   1  15
TORSDOF 6
ENDMDL
MODEL 4
REMARK VINA RESULT:    -6.568      3.658      7.602
REMARK INTER + INTRA:          -9.821
REMARK INTER:                  -9.192
REMARK INTRA:                  -0.629
REMARK UNBOUND:                -0.950
REMARK  Name = 
REMARK  7 active torsions:
REMARK  status: ('A' for Active; 'I' for Inactive)
REMARK    1  A    between atoms: C_1  and  N_2
REMARK    2  A    between atoms: N_5  and  C_6
REMARK    3  A    between atoms: C_10  and  C_11
REMARK    4  A    between atoms: C_11  and  C_12
REMARK    5  A    between atoms: C_12  and  N_13
REMARK    6  A    between atoms: N_13  and  C_14
REMARK    7  A    between atoms: C_17  and  C_18
REMARK                            x       y       z     vdW  Elec       q    Type
REMARK                         _______ _______ _______ _____ _____    ______ ____
ROOT
ATOM      1  C   UNL     1      45.179   6.543  12.922  0.00  0.00    +0.000 C 
ENDROOT
BRANCH   1   6
ATOM      2  C   UNL     1      44.746   3.575  10.535  0.00  0.00    +0.000 A 
ATOM      3  C   UNL     1      43.797   2.818  11.234  0.00  0.00    +0.000 A 
ATOM      4  C   UNL     1      43.266   3.248  12.451  0.00  0.00    +0.000 A 
ATOM      5  C   UNL     1      43.685   4.451  13.010  0.00  0.00    +0.000 A 
ATOM      6  C   UNL     1      44.649   5.233  12.366  0.00  0.00    +0.000 A 
ATOM      7  C   UNL     1      45.155   4.780  11.134  0.00  0.00    +0.000 A 
BRANCH   2  12
ATOM      8  C   UNL     1      47.926   2.056   6.238  0.00  0.00    +0.000 C 
ATOM      9  N   UNL     1      46.675   2.392   6.911  0.00  0.00    +0.000 NA
ATOM     10  C   UNL     1      46.424   1.463   8.036  0.00  0.00    +0.000 C 
ATOM     11  C   UNL     1      45.135   1.815   8.814  0.00  0.00    +0.000 C 
ATOM     12  N   UNL     1      45.217   3.205   9.292  0.00  0.00    +0.000 N 
ATOM     13  C   UNL     1      45.451   4.179   8.215  0.00  0.00    +0.000 C 
ATOM     14  C   UNL     1      46.722   3.780   7.427  0.00  0.00    +0.000 C 
ENDBRANCH   2  12
ENDBRANCH   1   6
BRANCH   1  15
ATOM     15  C   UNL     1      45.382   7.640  11.878  0.00  0.00    +0.000 C 
BRANCH  15  16
ATOM     16  N   UNL     1      46.207   8.741  12.370  0.00  0.00    +0.000 N 
ATOM     17  H   UNL     1      46.001   9.029  13.324  0.00  0.00    +0.000 HD
BRANCH  16  18
ATOM     18  C   UNL     1      47.585   8.684  12.116  0.00  0.00    +0.000 A 
ATOM     19  C   UNL     1      48.323   7.490  12.122  0.00  0.00    +0.000 A 
ATOM     20  C   UNL     1      49.681   7.469  11.791  0.00  0.00    +0.000 A 
ATOM     21  C   UNL     1      50.324   8.642  11.399  0.00  0.00    +0.000 A 
ATOM     22  C   UNL     1      49.603   9.839  11.360  0.00  0.00    +0.000 A 
ATOM     23  C   UNL     1      48.244   9.851  11.708  0.00  0.00    +0.000 A 
BRANCH  21  24
ATOM     24  C   UNL     1      51.763   8.559  11.037  0.00  0.00    +0.000 C 
ATOM     25  N   UNL     1      52.550   7.728  11.786  0.00  0.00    +0.000 N 
ATOM     26  O   UNL     1      52.243   9.238  10.141  0.00  0.00    +0.000 OA
ATOM     27  H   UNL     1      52.250   7.362  12.677  0.00  0.00    +0.000 HD
ATOM     28  H   UNL     1      53.545   7.789  11.613  0.00  0.00    +0.000 HD
ENDBRANCH  21  24
ENDBRANCH  16  18
ENDBRANCH  15  16
ENDBRANCH   1  15
TORSDOF 6
ENDMDL
MODEL 5
REMARK VINA RESULT:    -6.532      1.716      2.251
REMARK INTER + INTRA:          -9.773
REMARK INTER:                  -9.034
REMARK INTRA:                  -0.739
REMARK UNBOUND:                -0.950
REMARK  Name = 
REMARK  7 active torsions:
REMARK  status: ('A' for Active; 'I' for Inactive)
REMARK    1  A    between atoms: C_1  and  N_2
REMARK    2  A    between atoms: N_5  and  C_6
REMARK    3  A    between atoms: C_10  and  C_11
REMARK    4  A    between atoms: C_11  and  C_12
REMARK    5  A    between atoms: C_12  and  N_13
REMARK    6  A    between atoms: N_13  and  C_14
REMARK    7  A    between atoms: C_17  and  C_18
REMARK                            x       y       z     vdW  Elec       q    Type
REMARK                         _______ _______ _______ _____ _____    ______ ____
ROOT
ATOM      1  C   UNL     1      45.230   6.498  12.452  0.00  0.00    +0.000 C 
ENDROOT
BRANCH   1   6
ATOM      2  C   UNL     1      48.659   6.887  14.121  0.00  0.00    +0.000 A 
ATOM      3  C   UNL     1      49.435   7.285  13.025  0.00  0.00    +0.000 A 
ATOM      4  C   UNL     1      48.881   7.459  11.756  0.00  0.00    +0.000 A 
ATOM      5  C   UNL     1      47.525   7.225  11.547  0.00  0.00    +0.000 A 
ATOM      6  C   UNL     1      46.710   6.801  12.601  0.00  0.00    +0.000 A 
ATOM      7  C   UNL     1      47.295   6.648  13.872  0.00  0.00    +0.000 A 
BRANCH   2  12
ATOM      8  C   UNL     1      51.801   5.770  18.567  0.00  0.00    +0.000 C 
ATOM      9  N   UNL     1      50.662   6.342  17.855  0.00  0.00    +0.000 NA
ATOM     10  C   UNL     1      51.120   7.298  16.821  0.00  0.00    +0.000 C 
ATOM     11  C   UNL     1      49.948   7.889  16.004  0.00  0.00    +0.000 C 
ATOM     12  N   UNL     1      49.175   6.793  15.397  0.00  0.00    +0.000 N 
ATOM     13  C   UNL     1      48.678   5.815  16.378  0.00  0.00    +0.000 C 
ATOM     14  C   UNL     1      49.865   5.272  17.210  0.00  0.00    +0.000 C 
ENDBRANCH   2  12
ENDBRANCH   1   6
BRANCH   1  15
ATOM     15  C   UNL     1      44.729   6.475  11.008  0.00  0.00    +0.000 C 
BRANCH  15  16
ATOM     16  N   UNL     1      44.029   5.237  10.675  0.00  0.00    +0.000 N 
ATOM     17  H   UNL     1      43.037   5.352  10.480  0.00  0.00    +0.000 HD
BRANCH  16  18
ATOM     18  C   UNL     1      44.651   4.361   9.772  0.00  0.00    +0.000 A 
ATOM     19  C   UNL     1      45.595   4.776   8.821  0.00  0.00    +0.000 A 
ATOM     20  C   UNL     1      46.245   3.859   7.989  0.00  0.00    +0.000 A 
ATOM     21  C   UNL     1      45.998   2.494   8.124  0.00  0.00    +0.000 A 
ATOM     22  C   UNL     1      45.081   2.056   9.084  0.00  0.00    +0.000 A 
ATOM     23  C   UNL     1      44.424   2.985   9.903  0.00  0.00    +0.000 A 
BRANCH  21  24
ATOM     24  C   UNL     1      46.733   1.562   7.230  0.00  0.00    +0.000 C 
ATOM     25  N   UNL     1      46.803   0.251   7.614  0.00  0.00    +0.000 N 
ATOM     26  O   UNL     1      47.297   1.950   6.217  0.00  0.00    +0.000 OA
ATOM     27  H   UNL     1      46.581  -0.046   8.552  0.00  0.00    +0.000 HD
ATOM     28  H   UNL     1      47.419  -0.336   7.067  0.00  0.00    +0.000 HD
ENDBRANCH  21  24
ENDBRANCH  16  18
ENDBRANCH  15  16
ENDBRANCH   1  15
TORSDOF 6
ENDMDL
MODEL 6
REMARK VINA RESULT:    -6.418      3.747      7.876
REMARK INTER + INTRA:          -9.619
REMARK INTER:                  -8.589
REMARK INTRA:                  -1.030
REMARK UNBOUND:                -0.950
REMARK  Name = 
REMARK  7 active torsions:
REMARK  status: ('A' for Active; 'I' for Inactive)
REMARK    1  A    between atoms: C_1  and  N_2
REMARK    2  A    between atoms: N_5  and  C_6
REMARK    3  A    between atoms: C_10  and  C_11
REMARK    4  A    between atoms: C_11  and  C_12
REMARK    5  A    between atoms: C_12  and  N_13
REMARK    6  A    between atoms: N_13  and  C_14
REMARK    7  A    between atoms: C_17  and  C_18
REMARK                            x       y       z     vdW  Elec       q    Type
REMARK                         _______ _______ _______ _____ _____    ______ ____
ROOT
ATOM      1  C   UNL     1      50.042   7.988  15.346  0.00  0.00    +0.000 C 
ENDROOT
BRANCH   1   6
ATOM      2  C   UNL     1      47.381   6.572  12.978  0.00  0.00    +0.000 A 
ATOM      3  C   UNL     1      47.759   7.179  11.773  0.00  0.00    +0.000 A 
ATOM      4  C   UNL     1      48.871   8.019  11.691  0.00  0.00    +0.000 A 
ATOM      5  C   UNL     1      49.631   8.285  12.825  0.00  0.00    +0.000 A 
ATOM      6  C   UNL     1      49.283   7.726  14.058  0.00  0.00    +0.000 A 
ATOM      7  C   UNL     1      48.165   6.872  14.107  0.00  0.00    +0.000 A 
BRANCH   2  12
ATOM      8  C   UNL     1      43.478   2.774  11.873  0.00  0.00    +0.000 C 
ATOM      9  N   UNL     1      44.239   3.689  12.718  0.00  0.00    +0.000 NA
ATOM     10  C   UNL     1      45.675   3.326  12.719  0.00  0.00    +0.000 C 
ATOM     11  C   UNL     1      46.529   4.303  13.558  0.00  0.00    +0.000 C 
ATOM     12  N   UNL     1      46.337   5.674  13.058  0.00  0.00    +0.000 N 
ATOM     13  C   UNL     1      44.929   6.099  13.047  0.00  0.00    +0.000 C 
ATOM     14  C   UNL     1      44.090   5.083  12.237  0.00  0.00    +0.000 C 
ENDBRANCH   2  12
ENDBRANCH   1   6
BRANCH   1  15
ATOM     15  C   UNL     1      49.166   8.409  16.526  0.00  0.00    +0.000 C 
BRANCH  15  16
ATOM     16  N   UNL     1      49.486   7.682  17.752  0.00  0.00    +0.000 N 
ATOM     17  H   UNL     1      48.921   7.940  18.557  0.00  0.00    +0.000 HD
BRANCH  16  18
ATOM     18  C   UNL     1      49.673   6.295  17.655  0.00  0.00    +0.000 A 
ATOM     19  C   UNL     1      48.628   5.391  17.413  0.00  0.00    +0.000 A 
ATOM     20  C   UNL     1      48.868   4.023  17.251  0.00  0.00    +0.000 A 
ATOM     21  C   UNL     1      50.172   3.533  17.282  0.00  0.00    +0.000 A 
ATOM     22  C   UNL     1      51.232   4.419  17.496  0.00  0.00    +0.000 A 
ATOM     23  C   UNL     1      50.978   5.787  17.671  0.00  0.00    +0.000 A 
BRANCH  21  24
ATOM     24  C   UNL     1      50.373   2.074  17.082  0.00  0.00    +0.000 C 
ATOM     25  N   UNL     1      51.196   1.429  17.964  0.00  0.00    +0.000 N 
ATOM     26  O   UNL     1      49.867   1.476  16.144  0.00  0.00    +0.000 OA
ATOM     27  H   UNL     1      51.823   1.928  18.576  0.00  0.00    +0.000 HD
ATOM     28  H   UNL     1      51.427   0.472  17.732  0.00  0.00    +0.000 HD
ENDBRANCH  21  24
ENDBRANCH  16  18
ENDBRANCH  15  16
ENDBRANCH   1  15
TORSDOF 6
ENDMDL
MODEL 7
REMARK VINA RESULT:    -6.314      3.277      8.856
REMARK INTER + INTRA:          -9.478
REMARK INTER:                  -8.885
REMARK INTRA:                  -0.594
REMARK UNBOUND:                -0.950
REMARK  Name = 
REMARK  7 active torsions:
REMARK  status: ('A' for Active; 'I' for Inactive)
REMARK    1  A    between atoms: C_1  and  N_2
REMARK    2  A    between atoms: N_5  and  C_6
REMARK    3  A    between atoms: C_10  and  C_11
REMARK    4  A    between atoms: C_11  and  C_12
REMARK    5  A    between atoms: C_12  and  N_13
REMARK    6  A    between atoms: N_13  and  C_14
REMARK    7  A    between atoms: C_17  and  C_18
REMARK                            x       y       z     vdW  Elec       q    Type
REMARK                         _______ _______ _______ _____ _____    ______ ____
ROOT
ATOM      1  C   UNL     1      46.851   3.875  13.902  0.00  0.00    +0.000 C 
ENDROOT
BRANCH   1   6
ATOM      2  C   UNL     1      44.958   3.494  10.591  0.00  0.00    +0.000 A 
ATOM      3  C   UNL     1      43.685   3.941  10.969  0.00  0.00    +0.000 A 
ATOM      4  C   UNL     1      43.419   4.391  12.263  0.00  0.00    +0.000 A 
ATOM      5  C   UNL     1      44.425   4.392  13.223  0.00  0.00    +0.000 A 
ATOM      6  C   UNL     1      45.707   3.932  12.906  0.00  0.00    +0.000 A 
ATOM      7  C   UNL     1      45.949   3.498  11.589  0.00  0.00    +0.000 A 
BRANCH   2  12
ATOM      8  C   UNL     1      47.543   2.153   5.858  0.00  0.00    +0.000 C 
ATOM      9  N   UNL     1      46.390   2.380   6.722  0.00  0.00    +0.000 NA
ATOM     10  C   UNL     1      46.430   1.474   7.893  0.00  0.00    +0.000 C 
ATOM     11  C   UNL     1      45.254   1.718   8.867  0.00  0.00    +0.000 C 
ATOM     12  N   UNL     1      45.258   3.127   9.295  0.00  0.00    +0.000 N 
ATOM     13  C   UNL     1      45.203   4.077   8.174  0.00  0.00    +0.000 C 
ATOM     14  C   UNL     1      46.365   3.785   7.194  0.00  0.00    +0.000 C 
ENDBRANCH   2  12
ENDBRANCH   1   6
BRANCH   1  15
ATOM     15  C   UNL     1      46.711   4.829  15.087  0.00  0.00    +0.000 C 
BRANCH  15  16
ATOM     16  N   UNL     1      46.834   4.150  16.374  0.00  0.00    +0.000 N 
ATOM     17  H   UNL     1      46.176   3.387  16.514  0.00  0.00    +0.000 HD
BRANCH  16  18
ATOM     18  C   UNL     1      48.125   3.828  16.819  0.00  0.00    +0.000 A 
ATOM     19  C   UNL     1      48.634   2.521  16.831  0.00  0.00    +0.000 A 
ATOM     20  C   UNL     1      49.951   2.253  17.213  0.00  0.00    +0.000 A 
ATOM     21  C   UNL     1      50.809   3.299  17.549  0.00  0.00    +0.000 A 
ATOM     22  C   UNL     1      50.332   4.613  17.518  0.00  0.00    +0.000 A 
ATOM     23  C   UNL     1      49.004   4.869  17.147  0.00  0.00    +0.000 A 
BRANCH  21  24
ATOM     24  C   UNL     1      52.206   2.961  17.926  0.00  0.00    +0.000 C 
ATOM     25  N   UNL     1      53.087   3.998  18.060  0.00  0.00    +0.000 N 
ATOM     26  O   UNL     1      52.574   1.804  18.064  0.00  0.00    +0.000 OA
ATOM     27  H   UNL     1      52.888   4.921  17.705  0.00  0.00    +0.000 HD
ATOM     28  H   UNL     1      54.057   3.740  18.182  0.00  0.00    +0.000 HD
ENDBRANCH  21  24
ENDBRANCH  16  18
ENDBRANCH  15  16
ENDBRANCH   1  15
TORSDOF 6
ENDMDL
MODEL 8
REMARK VINA RESULT:    -5.868      3.291      5.360
REMARK INTER + INTRA:          -8.876
REMARK INTER:                  -8.025
REMARK INTRA:                  -0.851
REMARK UNBOUND:                -0.950
REMARK  Name = 
REMARK  7 active torsions:
REMARK  status: ('A' for Active; 'I' for Inactive)
REMARK    1  A    between atoms: C_1  and  N_2
REMARK    2  A    between atoms: N_5  and  C_6
REMARK    3  A    between atoms: C_10  and  C_11
REMARK    4  A    between atoms: C_11  and  C_12
REMARK    5  A    between atoms: C_12  and  N_13
REMARK    6  A    between atoms: N_13  and  C_14
REMARK    7  A    between atoms: C_17  and  C_18
REMARK                            x       y       z     vdW  Elec       q    Type
REMARK                         _______ _______ _______ _____ _____    ______ ____
ROOT
ATOM      1  C   UNL     1      48.604   9.345  14.470  0.00  0.00    +0.000 C 
ENDROOT
BRANCH   1   6
ATOM      2  C   UNL     1      48.745   6.973  17.477  0.00  0.00    +0.000 A 
ATOM      3  C   UNL     1      48.246   7.807  18.487  0.00  0.00    +0.000 A 
ATOM      4  C   UNL     1      47.837   9.115  18.224  0.00  0.00    +0.000 A 
ATOM      5  C   UNL     1      47.930   9.630  16.935  0.00  0.00    +0.000 A 
ATOM      6  C   UNL     1      48.444   8.849  15.896  0.00  0.00    +0.000 A 
ATOM      7  C   UNL     1      48.836   7.530  16.189  0.00  0.00    +0.000 A 
BRANCH   2  12
ATOM      8  C   UNL     1      50.562   1.742  17.014  0.00  0.00    +0.000 C 
ATOM      9  N   UNL     1      49.964   2.884  17.698  0.00  0.00    +0.000 NA
ATOM     10  C   UNL     1      50.916   4.018  17.747  0.00  0.00    +0.000 C 
ATOM     11  C   UNL     1      50.305   5.271  18.416  0.00  0.00    +0.000 C 
ATOM     12  N   UNL     1      49.074   5.653  17.705  0.00  0.00    +0.000 N 
ATOM     13  C   UNL     1      48.081   4.570  17.635  0.00  0.00    +0.000 C 
ATOM     14  C   UNL     1      48.729   3.315  17.002  0.00  0.00    +0.000 C 
ENDBRANCH   2  12
ENDBRANCH   1   6
BRANCH   1  15
ATOM     15  C   UNL     1      47.572   8.794  13.486  0.00  0.00    +0.000 C 
BRANCH  15  16
ATOM     16  N   UNL     1      48.037   7.592  12.798  0.00  0.00    +0.000 N 
ATOM     17  H   UNL     1      48.924   7.228  13.135  0.00  0.00    +0.000 HD
BRANCH  16  18
ATOM     18  C   UNL     1      47.099   6.576  12.562  0.00  0.00    +0.000 A 
ATOM     19  C   UNL     1      46.765   5.598  13.511  0.00  0.00    +0.000 A 
ATOM     20  C   UNL     1      45.772   4.646  13.260  0.00  0.00    +0.000 A 
ATOM     21  C   UNL     1      45.054   4.681  12.066  0.00  0.00    +0.000 A 
ATOM     22  C   UNL     1      45.352   5.662  11.116  0.00  0.00    +0.000 A 
ATOM     23  C   UNL     1      46.360   6.603  11.371  0.00  0.00    +0.000 A 
BRANCH  21  24
ATOM     24  C   UNL     1      43.994   3.659  11.861  0.00  0.00    +0.000 C 
ATOM     25  N   UNL     1      44.130   2.474  12.530  0.00  0.00    +0.000 N 
ATOM     26  O   UNL     1      43.064   3.841  11.090  0.00  0.00    +0.000 OA
ATOM     27  H   UNL     1      44.999   2.195  12.958  0.00  0.00    +0.000 HD
ATOM     28  H   UNL     1      43.477   1.746  12.273  0.00  0.00    +0.000 HD
ENDBRANCH  21  24
ENDBRANCH  16  18
ENDBRANCH  15  16
ENDBRANCH   1  15
TORSDOF 6
ENDMDL
MODEL 9
REMARK VINA RESULT:    -5.711      3.908      7.900
REMARK INTER + INTRA:          -8.664
REMARK INTER:                  -7.612
REMARK INTRA:                  -1.053
REMARK UNBOUND:                -0.950
REMARK  Name = 
REMARK  7 active torsions:
REMARK  status: ('A' for Active; 'I' for Inactive)
REMARK    1  A    between atoms: C_1  and  N_2
REMARK    2  A    between atoms: N_5  and  C_6
REMARK    3  A    between atoms: C_10  and  C_11
REMARK    4  A    between atoms: C_11  and  C_12
REMARK    5  A    between atoms: C_12  and  N_13
REMARK    6  A    between atoms: N_13  and  C_14
REMARK    7  A    between atoms: C_17  and  C_18
REMARK                            x       y       z     vdW  Elec       q    Type
REMARK                         _______ _______ _______ _____ _____    ______ ____
ROOT
ATOM      1  C   UNL     1      49.615   8.141  12.497  0.00  0.00    +0.000 C 
ENDROOT
BRANCH   1   6
ATOM      2  C   UNL     1      45.939   7.069  12.675  0.00  0.00    +0.000 A 
ATOM      3  C   UNL     1      45.301   8.296  12.454  0.00  0.00    +0.000 A 
ATOM      4  C   UNL     1      46.023   9.468  12.221  0.00  0.00    +0.000 A 
ATOM      5  C   UNL     1      47.414   9.442  12.217  0.00  0.00    +0.000 A 
ATOM      6  C   UNL     1      48.101   8.248  12.457  0.00  0.00    +0.000 A 
ATOM      7  C   UNL     1      47.346   7.081  12.675  0.00  0.00    +0.000 A 
BRANCH   2  12
ATOM      8  C   UNL     1      43.360   2.220  11.822  0.00  0.00    +0.000 C 
ATOM      9  N   UNL     1      43.854   3.340  12.618  0.00  0.00    +0.000 NA
ATOM     10  C   UNL     1      45.327   3.447  12.508  0.00  0.00    +0.000 C 
ATOM     11  C   UNL     1      45.890   4.654  13.293  0.00  0.00    +0.000 C 
ATOM     12  N   UNL     1      45.240   5.889  12.822  0.00  0.00    +0.000 N 
ATOM     13  C   UNL     1      43.772   5.849  12.921  0.00  0.00    +0.000 C 
ATOM     14  C   UNL     1      43.238   4.609  12.164  0.00  0.00    +0.000 C 
ENDBRANCH   2  12
ENDBRANCH   1   6
BRANCH   1  15
ATOM     15  C   UNL     1      50.280   8.948  13.612  0.00  0.00    +0.000 C 
BRANCH  15  16
ATOM     16  N   UNL     1      49.557   8.860  14.878  0.00  0.00    +0.000 N 
ATOM     17  H   UNL     1      48.586   9.157  14.832  0.00  0.00    +0.000 HD
BRANCH  16  18
ATOM     18  C   UNL     1      49.723   7.694  15.641  0.00  0.00    +0.000 A 
ATOM     19  C   UNL     1      48.666   6.834  15.976  0.00  0.00    +0.000 A 
ATOM     20  C   UNL     1      48.886   5.644  16.675  0.00  0.00    +0.000 A 
ATOM     21  C   UNL     1      50.182   5.262  17.017  0.00  0.00    +0.000 A 
ATOM     22  C   UNL     1      51.254   6.091  16.671  0.00  0.00    +0.000 A 
ATOM     23  C   UNL     1      51.020   7.289  15.982  0.00  0.00    +0.000 A 
BRANCH  21  24
ATOM     24  C   UNL     1      50.361   3.977  17.741  0.00  0.00    +0.000 C 
ATOM     25  N   UNL     1      50.375   4.025  19.108  0.00  0.00    +0.000 N 
ATOM     26  O   UNL     1      50.539   2.922  17.149  0.00  0.00    +0.000 OA
ATOM     27  H   UNL     1      50.492   4.890  19.614  0.00  0.00    +0.000 HD
ATOM     28  H   UNL     1      50.633   3.167  19.577  0.00  0.00    +0.000 HD
ENDBRANCH  21  24
ENDBRANCH  16  18
ENDBRANCH  15  16
ENDBRANCH   1  15
TORSDOF 6
ENDMDL
