MODEL 1
REMARK VINA RESULT:    -7.380      0.000      0.000
REMARK INTER + INTRA:          -9.471
REMARK INTER:                  -9.106
REMARK INTRA:                  -0.365
REMARK UNBOUND:                -0.365
REMARK  Name = 
REMARK  4 active torsions:
REMARK  status: ('A' for Active; 'I' for Inactive)
REMARK    1  A    between atoms: C_2  and  C_4
REMARK    2  A    between atoms: C_7  and  O_8
REMARK    3  A    between atoms: O_8  and  C_9
REMARK    4  A    between atoms: C_9  and  C_10
REMARK                            x       y       z     vdW  Elec       q    Type
REMARK                         _______ _______ _______ _____ _____    ______ ____
ROOT
ATOM      1  C   UNL     1      46.337   2.278   7.847  0.00  0.00    +0.000 A 
ATOM      2  C   UNL     1      46.234   3.641   7.600  0.00  0.00    +0.000 A 
ATOM      3  N   UNL     1      45.336   4.439   8.243  0.00  0.00    +0.000 NA
ATOM      4  C   UNL     1      44.565   3.807   9.156  0.00  0.00    +0.000 A 
ATOM      5  C   UNL     1      44.691   2.448   9.424  0.00  0.00    +0.000 A 
ATOM      6  N   UNL     1      45.562   1.639   8.771  0.00  0.00    +0.000 NA
ENDROOT
BRANCH   1   8
ATOM      7  N   UNL     1      48.413   2.112   6.613  0.00  0.00    +0.000 N 
ATOM      8  C   UNL     1      47.304   1.452   7.075  0.00  0.00    +0.000 C 
ATOM      9  O   UNL     1      47.135   0.255   6.878  0.00  0.00    +0.000 OA
ATOM     10  H   UNL     1      49.122   1.604   6.104  0.00  0.00    +0.000 HD
ATOM     11  H   UNL     1      48.535   3.099   6.814  0.00  0.00    +0.000 HD
ENDBRANCH   1   8
BRANCH   4  12
ATOM     12  O   UNL     1      43.658   4.517   9.910  0.00  0.00    +0.000 OA
BRANCH  12  13
ATOM     13  C   UNL     1      43.453   3.972  11.216  0.00  0.00    +0.000 C 
BRANCH  13  14
ATOM     14  C   UNL     1      44.192   4.862  12.235  0.00  0.00    +0.000 C 
ATOM     15  C   UNL     1      44.461   6.269  11.669  0.00  0.00    +0.000 C 
ATOM     16  C   UNL     1      45.238   7.141  12.654  0.00  0.00    +0.000 C 
ATOM     17  C   UNL     1      46.534   6.471  13.095  0.00  0.00    +0.000 C 
ATOM     18  C   UNL     1      46.273   5.085  13.673  0.00  0.00    +0.000 C 
ATOM     19  C   UNL     1      45.499   4.201  12.695  0.00  0.00    +0.000 C 
ENDBRANCH  13  14
ENDBRANCH  12  13
ENDBRANCH   4  12
TORSDOF 4
ENDMDL
MODEL 2
REMARK VINA RESULT:    -7.314      2.953      6.110
REMARK INTER + INTRA:          -9.389
REMARK INTER:                  -9.295
REMARK INTRA:                  -0.094
REMARK UNBOUND:                -0.365
REMARK  Name = 
REMARK  4 active torsions:
REMARK  status: ('A' for Active; 'I' for Inactive)
REMARK    1  A    between atoms: C_2  and  C_4
REMARK    2  A    between atoms: C_7  and  O_8
REMARK    3  A    between atoms: O_8  and  C_9
REMARK    4  A    between atoms: C_9  and  C_10
REMARK                            x       y       z     vdW  Elec       q    Type
REMARK                         _______ _______ _______ _____ _____    ______ ____
ROOT
ATOM      1  C   UNL     1      46.333   4.589  13.358  0.00  0.00    +0.000 A 
ATOM      2  C   UNL     1      45.991   5.551  12.415  0.00  0.00    +0.000 A 
ATOM      3  N   UNL     1      45.301   5.255  11.279  0.00  0.00    +0.000 NA
ATOM      4  C   UNL     1      44.955   3.954  11.146  0.00  0.00    +0.000 A 
ATOM      5  C   UNL     1      45.271   2.998  12.105  0.00  0.00    +0.000 A 
ATOM      6  N   UNL     1      45.981   3.277  13.227  0.00  0.00    +0.000 NA
ENDROOT
BRANCH   1   8
ATOM      7  N   UNL     1      46.746   4.386  15.735  0.00  0.00    +0.000 N 
ATOM      8  C   UNL     1      47.131   4.968  14.554  0.00  0.00    +0.000 C 
ATOM      9  O   UNL     1      48.084   5.735  14.493  0.00  0.00    +0.000 OA
ATOM     10  H   UNL     1      47.262   4.581  16.580  0.00  0.00    +0.000 HD
ATOM     11  H   UNL     1      45.966   3.736  15.748  0.00  0.00    +0.000 HD
ENDBRANCH   1   8
BRANCH   4  12
ATOM     12  O   UNL     1      44.208   3.541  10.066  0.00  0.00    +0.000 OA
BRANCH  12  13
ATOM     13  C   UNL     1      44.573   4.186   8.842  0.00  0.00    +0.000 C 
BRANCH  13  14
ATOM     14  C   UNL     1      45.240   3.143   7.925  0.00  0.00    +0.000 C 
ATOM     15  C   UNL     1      45.715   1.911   8.717  0.00  0.00    +0.000 C 
ATOM     16  C   UNL     1      46.423   0.895   7.822  0.00  0.00    +0.000 C 
ATOM     17  C   UNL     1      47.577   1.530   7.056  0.00  0.00    +0.000 C 
ATOM     18  C   UNL     1      47.110   2.740   6.254  0.00  0.00    +0.000 C 
ATOM     19  C   UNL     1      46.403   3.766   7.139  0.00  0.00    +0.000 C 
ENDBRANCH  13  14
ENDBRANCH  12  13
ENDBRANCH   4  12
TORSDOF 4
ENDMDL
MODEL 3
REMARK VINA RESULT:    -6.702      0.892      1.811
REMARK INTER + INTRA:          -8.633
REMARK INTER:                  -8.337
REMARK INTRA:                  -0.296
REMARK UNBOUND:                -0.365
REMARK  Name = 
REMARK  4 active torsions:
REMARK  status: ('A' for Active; 'I' for Inactive)
REMARK    1  A    between atoms: C_2  and  C_4
REMARK    2  A    between atoms: C_7  and  O_8
REMARK    3  A    between atoms: O_8  and  C_9
REMARK    4  A    between atoms: C_9  and  C_10
REMARK                            x       y       z     vdW  Elec       q    Type
REMARK                         _______ _______ _______ _____ _____    ______ ____
ROOT
ATOM      1  C   UNL     1      46.283   2.397   7.847  0.00  0.00    +0.000 A 
ATOM      2  C   UNL     1      45.426   1.787   8.755  0.00  0.00    +0.000 A 
ATOM      3  N   UNL     1      44.532   2.489   9.506  0.00  0.00    +0.000 NA
ATOM      4  C   UNL     1      44.528   3.823   9.288  0.00  0.00    +0.000 A 
ATOM      5  C   UNL     1      45.366   4.428   8.357  0.00  0.00    +0.000 A 
ATOM      6  N   UNL     1      46.278   3.743   7.623  0.00  0.00    +0.000 NA
ENDROOT
BRANCH   1   8
ATOM      7  N   UNL     1      48.303   2.278   6.517  0.00  0.00    +0.000 N 
ATOM      8  C   UNL     1      47.272   1.580   7.092  0.00  0.00    +0.000 C 
ATOM      9  O   UNL     1      47.187   0.362   7.002  0.00  0.00    +0.000 OA
ATOM     10  H   UNL     1      49.023   1.782   6.012  0.00  0.00    +0.000 HD
ATOM     11  H   UNL     1      48.358   3.286   6.631  0.00  0.00    +0.000 HD
ENDBRANCH   1   8
BRANCH   4  12
ATOM     12  O   UNL     1      43.631   4.632   9.949  0.00  0.00    +0.000 OA
BRANCH  12  13
ATOM     13  C   UNL     1      43.835   4.670  11.364  0.00  0.00    +0.000 C 
BRANCH  13  14
ATOM     14  C   UNL     1      45.143   5.433  11.646  0.00  0.00    +0.000 C 
ATOM     15  C   UNL     1      45.870   4.877  12.884  0.00  0.00    +0.000 C 
ATOM     16  C   UNL     1      47.143   5.662  13.199  0.00  0.00    +0.000 C 
ATOM     17  C   UNL     1      46.859   7.152  13.354  0.00  0.00    +0.000 C 
ATOM     18  C   UNL     1      46.156   7.713  12.123  0.00  0.00    +0.000 C 
ATOM     19  C   UNL     1      44.879   6.938  11.800  0.00  0.00    +0.000 C 
ENDBRANCH  13  14
ENDBRANCH  12  13
ENDBRANCH   4  12
TORSDOF 4
ENDMDL
MODEL 4
REMARK VINA RESULT:    -6.597      2.758      6.218
REMARK INTER + INTRA:          -8.504
REMARK INTER:                  -8.165
REMARK INTRA:                  -0.339
REMARK UNBOUND:                -0.365
REMARK  Name = 
REMARK  4 active torsions:
REMARK  status: ('A' for Active; 'I' for Inactive)
REMARK    1  A    between atoms: C_2  and  C_4
REMARK    2  A    between atoms: C_7  and  O_8
REMARK    3  A    between atoms: O_8  and  C_9
REMARK    4  A    between atoms: C_9  and  C_10
REMARK                            x       y       z     vdW  Elec       q    Type
REMARK                         _______ _______ _______ _____ _____    ______ ____
ROOT
ATOM      1  C   UNL     1      45.589   6.570  12.624  0.00  0.00    +0.000 A 
ATOM      2  C   UNL     1      44.709   6.411  11.562  0.00  0.00    +0.000 A 
ATOM      3  N   UNL     1      44.391   5.190  11.047  0.00  0.00    +0.000 NA
ATOM      4  C   UNL     1      44.984   4.141  11.662  0.00  0.00    +0.000 A 
ATOM      5  C   UNL     1      45.842   4.301  12.745  0.00  0.00    +0.000 A 
ATOM      6  N   UNL     1      46.185   5.513  13.248  0.00  0.00    +0.000 NA
ENDROOT
BRANCH   1   8
ATOM      7  N   UNL     1      47.059   8.022  13.887  0.00  0.00    +0.000 N 
ATOM      8  C   UNL     1      45.934   7.935  13.108  0.00  0.00    +0.000 C 
ATOM      9  O   UNL     1      45.271   8.922  12.817  0.00  0.00    +0.000 OA
ATOM     10  H   UNL     1      47.364   8.922  14.227  0.00  0.00    +0.000 HD
ATOM     11  H   UNL     1      47.601   7.187  14.090  0.00  0.00    +0.000 HD
ENDBRANCH   1   8
BRANCH   4  12
ATOM     12  O   UNL     1      44.700   2.853  11.267  0.00  0.00    +0.000 OA
BRANCH  12  13
ATOM     13  C   UNL     1      44.299   2.754   9.898  0.00  0.00    +0.000 C 
BRANCH  13  14
ATOM     14  C   UNL     1      45.567   2.659   9.027  0.00  0.00    +0.000 C 
ATOM     15  C   UNL     1      45.568   3.715   7.907  0.00  0.00    +0.000 C 
ATOM     16  C   UNL     1      46.798   3.593   7.009  0.00  0.00    +0.000 C 
ATOM     17  C   UNL     1      46.937   2.188   6.435  0.00  0.00    +0.000 C 
ATOM     18  C   UNL     1      46.955   1.137   7.540  0.00  0.00    +0.000 C 
ATOM     19  C   UNL     1      45.727   1.247   8.444  0.00  0.00    +0.000 C 
ENDBRANCH  13  14
ENDBRANCH  12  13
ENDBRANCH   4  12
TORSDOF 4
ENDMDL
MODEL 5
REMARK VINA RESULT:    -5.711      4.188      6.196
REMARK INTER + INTRA:          -7.411
REMARK INTER:                  -7.111
REMARK INTRA:                  -0.299
REMARK UNBOUND:                -0.365
REMARK  Name = 
REMARK  4 active torsions:
REMARK  status: ('A' for Active; 'I' for Inactive)
REMARK    1  A    between atoms: C_2  and  C_4
REMARK    2  A    between atoms: C_7  and  O_8
REMARK    3  A    between atoms: O_8  and  C_9
REMARK    4  A    between atoms: C_9  and  C_10
REMARK                            x       y       z     vdW  Elec       q    Type
REMARK                         _______ _______ _______ _____ _____    ______ ____
ROOT
ATOM      1  C   UNL     1      45.255   4.788  11.769  0.00  0.00    +0.000 A 
ATOM      2  C   UNL     1      45.421   3.593  12.458  0.00  0.00    +0.000 A 
ATOM      3  N   UNL     1      46.262   3.468  13.523  0.00  0.00    +0.000 NA
ATOM      4  C   UNL     1      46.911   4.602  13.871  0.00  0.00    +0.000 A 
ATOM      5  C   UNL     1      46.721   5.805  13.199  0.00  0.00    +0.000 A 
ATOM      6  N   UNL     1      45.906   5.934  12.122  0.00  0.00    +0.000 NA
ENDROOT
BRANCH   1   8
ATOM      7  N   UNL     1      43.271   5.675  10.701  0.00  0.00    +0.000 N 
ATOM      8  C   UNL     1      44.358   4.846  10.583  0.00  0.00    +0.000 C 
ATOM      9  O   UNL     1      44.581   4.213   9.559  0.00  0.00    +0.000 OA
ATOM     10  H   UNL     1      42.637   5.781   9.923  0.00  0.00    +0.000 HD
ATOM     11  H   UNL     1      43.129   6.205  11.555  0.00  0.00    +0.000 HD
ENDBRANCH   1   8
BRANCH   4  12
ATOM     12  O   UNL     1      47.748   4.616  14.964  0.00  0.00    +0.000 OA
BRANCH  12  13
ATOM     13  C   UNL     1      47.195   3.962  16.111  0.00  0.00    +0.000 C 
BRANCH  13  14
ATOM     14  C   UNL     1      48.355   3.533  17.030  0.00  0.00    +0.000 C 
ATOM     15  C   UNL     1      49.271   4.719  17.381  0.00  0.00    +0.000 C 
ATOM     16  C   UNL     1      50.452   4.291  18.250  0.00  0.00    +0.000 C 
ATOM     17  C   UNL     1      51.245   3.161  17.603  0.00  0.00    +0.000 C 
ATOM     18  C   UNL     1      50.347   1.975  17.269  0.00  0.00    +0.000 C 
ATOM     19  C   UNL     1      49.163   2.390  16.396  0.00  0.00    +0.000 C 
ENDBRANCH  13  14
ENDBRANCH  12  13
ENDBRANCH   4  12
TORSDOF 4
ENDMDL
MODEL 6
REMARK VINA RESULT:    -5.437      4.692      7.194
REMARK INTER + INTRA:          -7.073
REMARK INTER:                  -6.822
REMARK INTRA:                  -0.251
REMARK UNBOUND:                -0.365
REMARK  Name = 
REMARK  4 active torsions:
REMARK  status: ('A' for Active; 'I' for Inactive)
REMARK    1  A    between atoms: C_2  and  C_4
REMARK    2  A    between atoms: C_7  and  O_8
REMARK    3  A    between atoms: O_8  and  C_9
REMARK    4  A    between atoms: C_9  and  C_10
REMARK                            x       y       z     vdW  Elec       q    Type
REMARK                         _______ _______ _______ _____ _____    ______ ____
ROOT
ATOM      1  C   UNL     1      48.381   5.678  15.884  0.00  0.00    +0.000 A 
ATOM      2  C   UNL     1      47.747   4.549  16.390  0.00  0.00    +0.000 A 
ATOM      3  N   UNL     1      46.866   3.811  15.659  0.00  0.00    +0.000 NA
ATOM      4  C   UNL     1      46.669   4.248  14.394  0.00  0.00    +0.000 A 
ATOM      5  C   UNL     1      47.327   5.359  13.880  0.00  0.00    +0.000 A 
ATOM      6  N   UNL     1      48.186   6.118  14.607  0.00  0.00    +0.000 NA
ENDROOT
BRANCH   1   8
ATOM      7  N   UNL     1      50.543   5.937  16.941  0.00  0.00    +0.000 N 
ATOM      8  C   UNL     1      49.294   6.471  16.749  0.00  0.00    +0.000 C 
ATOM      9  O   UNL     1      48.965   7.540  17.247  0.00  0.00    +0.000 OA
ATOM     10  H   UNL     1      51.221   6.438  17.496  0.00  0.00    +0.000 HD
ATOM     11  H   UNL     1      50.793   5.060  16.494  0.00  0.00    +0.000 HD
ENDBRANCH   1   8
BRANCH   4  12
ATOM     12  O   UNL     1      45.842   3.553  13.541  0.00  0.00    +0.000 OA
BRANCH  12  13
ATOM     13  C   UNL     1      45.081   4.398  12.673  0.00  0.00    +0.000 C 
BRANCH  13  14
ATOM     14  C   UNL     1      45.358   3.973  11.217  0.00  0.00    +0.000 C 
ATOM     15  C   UNL     1      45.448   5.190  10.278  0.00  0.00    +0.000 C 
ATOM     16  C   UNL     1      45.673   4.774   8.825  0.00  0.00    +0.000 C 
ATOM     17  C   UNL     1      44.605   3.795   8.351  0.00  0.00    +0.000 C 
ATOM     18  C   UNL     1      44.523   2.578   9.266  0.00  0.00    +0.000 C 
ATOM     19  C   UNL     1      44.295   2.981  10.723  0.00  0.00    +0.000 C 
ENDBRANCH  13  14
ENDBRANCH  12  13
ENDBRANCH   4  12
TORSDOF 4
ENDMDL
MODEL 7
REMARK VINA RESULT:    -5.351      3.203      5.233
REMARK INTER + INTRA:          -6.967
REMARK INTER:                  -6.599
REMARK INTRA:                  -0.369
REMARK UNBOUND:                -0.365
REMARK  Name = 
REMARK  4 active torsions:
REMARK  status: ('A' for Active; 'I' for Inactive)
REMARK    1  A    between atoms: C_2  and  C_4
REMARK    2  A    between atoms: C_7  and  O_8
REMARK    3  A    between atoms: O_8  and  C_9
REMARK    4  A    between atoms: C_9  and  C_10
REMARK                            x       y       z     vdW  Elec       q    Type
REMARK                         _______ _______ _______ _____ _____    ______ ____
ROOT
ATOM      1  C   UNL     1      44.254   4.203  11.592  0.00  0.00    +0.000 A 
ATOM      2  C   UNL     1      44.970   4.352  12.773  0.00  0.00    +0.000 A 
ATOM      3  N   UNL     1      45.399   5.563  13.225  0.00  0.00    +0.000 NA
ATOM      4  C   UNL     1      45.058   6.615  12.446  0.00  0.00    +0.000 A 
ATOM      5  C   UNL     1      44.315   6.467  11.281  0.00  0.00    +0.000 A 
ATOM      6  N   UNL     1      43.906   5.264  10.807  0.00  0.00    +0.000 NA
ENDROOT
BRANCH   1   8
ATOM      7  N   UNL     1      44.592   2.338  10.085  0.00  0.00    +0.000 N 
ATOM      8  C   UNL     1      43.858   2.847  11.126  0.00  0.00    +0.000 C 
ATOM      9  O   UNL     1      42.948   2.213  11.646  0.00  0.00    +0.000 OA
ATOM     10  H   UNL     1      44.391   1.411   9.738  0.00  0.00    +0.000 HD
ATOM     11  H   UNL     1      45.355   2.879   9.692  0.00  0.00    +0.000 HD
ENDBRANCH   1   8
BRANCH   4  12
ATOM     12  O   UNL     1      45.388   7.896  12.827  0.00  0.00    +0.000 OA
BRANCH  12  13
ATOM     13  C   UNL     1      46.679   7.995  13.434  0.00  0.00    +0.000 C 
BRANCH  13  14
ATOM     14  C   UNL     1      47.710   8.309  12.332  0.00  0.00    +0.000 C 
ATOM     15  C   UNL     1      48.972   7.438  12.470  0.00  0.00    +0.000 C 
ATOM     16  C   UNL     1      50.020   7.780  11.411  0.00  0.00    +0.000 C 
ATOM     17  C   UNL     1      50.374   9.262  11.430  0.00  0.00    +0.000 C 
ATOM     18  C   UNL     1      49.130  10.131  11.276  0.00  0.00    +0.000 C 
ATOM     19  C   UNL     1      48.076   9.801  12.332  0.00  0.00    +0.000 C 
ENDBRANCH  13  14
ENDBRANCH  12  13
ENDBRANCH   4  12
TORSDOF 4
ENDMDL
MODEL 8
REMARK VINA RESULT:    -5.271      5.876      8.196
REMARK INTER + INTRA:          -6.868
REMARK INTER:                  -6.574
REMARK INTRA:                  -0.295
REMARK UNBOUND:                -0.365
REMARK  Name = 
REMARK  4 active torsions:
REMARK  status: ('A' for Active; 'I' for Inactive)
REMARK    1  A    between atoms: C_2  and  C_4
REMARK    2  A    between atoms: C_7  and  O_8
REMARK    3  A    between atoms: O_8  and  C_9
REMARK    4  A    between atoms: C_9  and  C_10
REMARK                            x       y       z     vdW  Elec       q    Type
REMARK                         _______ _______ _______ _____ _____    ______ ____
ROOT
ATOM      1  C   UNL     1      48.736   4.542  17.974  0.00  0.00    +0.000 A 
ATOM      2  C   UNL     1      47.945   3.407  17.852  0.00  0.00    +0.000 A 
ATOM      3  N   UNL     1      47.121   3.196  16.788  0.00  0.00    +0.000 NA
ATOM      4  C   UNL     1      47.144   4.168  15.848  0.00  0.00    +0.000 A 
ATOM      5  C   UNL     1      47.960   5.289  15.957  0.00  0.00    +0.000 A 
ATOM      6  N   UNL     1      48.764   5.522  17.024  0.00  0.00    +0.000 NA
ENDROOT
BRANCH   1   8
ATOM      7  N   UNL     1      49.088   4.192  20.344  0.00  0.00    +0.000 N 
ATOM      8  C   UNL     1      49.578   4.738  19.185  0.00  0.00    +0.000 C 
ATOM      9  O   UNL     1      50.649   5.330  19.152  0.00  0.00    +0.000 OA
ATOM     10  H   UNL     1      49.623   4.266  21.196  0.00  0.00    +0.000 HD
ATOM     11  H   UNL     1      48.208   3.686  20.332  0.00  0.00    +0.000 HD
ENDBRANCH   1   8
BRANCH   4  12
ATOM     12  O   UNL     1      46.395   4.042  14.700  0.00  0.00    +0.000 OA
BRANCH  12  13
ATOM     13  C   UNL     1      46.855   4.869  13.627  0.00  0.00    +0.000 C 
BRANCH  13  14
ATOM     14  C   UNL     1      45.781   4.872  12.522  0.00  0.00    +0.000 C 
ATOM     15  C   UNL     1      44.636   5.850  12.845  0.00  0.00    +0.000 C 
ATOM     16  C   UNL     1      43.542   5.821  11.779  0.00  0.00    +0.000 C 
ATOM     17  C   UNL     1      43.010   4.410  11.560  0.00  0.00    +0.000 C 
ATOM     18  C   UNL     1      44.135   3.439  11.221  0.00  0.00    +0.000 C 
ATOM     19  C   UNL     1      45.235   3.456  12.283  0.00  0.00    +0.000 C 
ENDBRANCH  13  14
ENDBRANCH  12  13
ENDBRANCH   4  12
TORSDOF 4
ENDMDL
MODEL 9
REMARK VINA RESULT:    -5.086      4.243      6.124
REMARK INTER + INTRA:          -6.639
REMARK INTER:                  -6.400
REMARK INTRA:                  -0.239
REMARK UNBOUND:                -0.365
REMARK  Name = 
REMARK  4 active torsions:
REMARK  status: ('A' for Active; 'I' for Inactive)
REMARK    1  A    between atoms: C_2  and  C_4
REMARK    2  A    between atoms: C_7  and  O_8
REMARK    3  A    between atoms: O_8  and  C_9
REMARK    4  A    between atoms: C_9  and  C_10
REMARK                            x       y       z     vdW  Elec       q    Type
REMARK                         _______ _______ _______ _____ _____    ______ ____
ROOT
ATOM      1  C   UNL     1      45.260   4.631  11.750  0.00  0.00    +0.000 A 
ATOM      2  C   UNL     1      45.940   5.836  11.875  0.00  0.00    +0.000 A 
ATOM      3  N   UNL     1      46.805   6.090  12.896  0.00  0.00    +0.000 NA
ATOM      4  C   UNL     1      46.968   5.071  13.771  0.00  0.00    +0.000 A 
ATOM      5  C   UNL     1      46.309   3.855  13.628  0.00  0.00    +0.000 A 
ATOM      6  N   UNL     1      45.426   3.601  12.630  0.00  0.00    +0.000 NA
ENDROOT
BRANCH   1   8
ATOM      7  N   UNL     1      43.373   5.438  10.466  0.00  0.00    +0.000 N 
ATOM      8  C   UNL     1      44.290   4.433  10.640  0.00  0.00    +0.000 C 
ATOM      9  O   UNL     1      44.315   3.448   9.913  0.00  0.00    +0.000 OA
ATOM     10  H   UNL     1      42.703   5.379   9.713  0.00  0.00    +0.000 HD
ATOM     11  H   UNL     1      43.395   6.253  11.071  0.00  0.00    +0.000 HD
ENDBRANCH   1   8
BRANCH   4  12
ATOM     12  O   UNL     1      47.857   5.188  14.815  0.00  0.00    +0.000 OA
BRANCH  12  13
ATOM     13  C   UNL     1      47.532   4.360  15.935  0.00  0.00    +0.000 C 
BRANCH  13  14
ATOM     14  C   UNL     1      48.230   4.935  17.182  0.00  0.00    +0.000 C 
ATOM     15  C   UNL     1      49.383   4.032  17.656  0.00  0.00    +0.000 C 
ATOM     16  C   UNL     1      50.047   4.571  18.923  0.00  0.00    +0.000 C 
ATOM     17  C   UNL     1      49.031   4.792  20.038  0.00  0.00    +0.000 C 
ATOM     18  C   UNL     1      47.896   5.701  19.582  0.00  0.00    +0.000 C 
ATOM     19  C   UNL     1      47.221   5.170  18.316  0.00  0.00    +0.000 C 
ENDBRANCH  13  14
ENDBRANCH  12  13
ENDBRANCH   4  12
TORSDOF 4
ENDMDL
