MODEL 1
REMARK VINA RESULT:    -7.376      0.000      0.000
REMARK INTER + INTRA:         -13.835
REMARK INTER:                 -11.904
REMARK INTRA:                  -1.931
REMARK UNBOUND:                -1.931
REMARK  Name = 
REMARK  11 active torsions:
REMARK  status: ('A' for Active; 'I' for Inactive)
REMARK    1  A    between atoms: N_1  and  C_2
REMARK    2  A    between atoms: C_2  and  C_3
REMARK    3  A    between atoms: C_3  and  C_4
REMARK    4  A    between atoms: C_4  and  N_5
REMARK    5  A    between atoms: N_5  and  C_6
REMARK    6  A    between atoms: C_6  and  C_7
REMARK    7  A    between atoms: C_10  and  C_11
REMARK    8  A    between atoms: C_11  and  N_12
REMARK    9  A    between atoms: N_12  and  C_13
REMARK   10  A    between atoms: C_13  and  C_14
REMARK   11  A    between atoms: C_22  and  C_24
REMARK                            x       y       z     vdW  Elec       q    Type
REMARK                         _______ _______ _______ _____ _____    ______ ____
ROOT
ATOM      1  N   UNL     1      48.984   7.221  13.808  0.00  0.00    +0.000 N 
ATOM      2  C   UNL     1      49.874   7.540  14.878  0.00  0.00    +0.000 C 
ATOM      3  O   UNL     1      51.086   7.531  14.705  0.00  0.00    +0.000 OA
ENDROOT
BRANCH   2   4
ATOM      4  C   UNL     1      49.331   7.848  16.237  0.00  0.00    +0.000 A 
ATOM      5  C   UNL     1      49.321   9.095  16.833  0.00  0.00    +0.000 A 
ATOM      6  S   UNL     1      48.486   9.211  18.302  0.00  0.00    +0.000 S 
ATOM      7  C   UNL     1      48.116   7.564  18.234  0.00  0.00    +0.000 A 
ATOM      8  N   UNL     1      47.381   7.011  19.229  0.00  0.00    +0.000 NA
ATOM      9  C   UNL     1      47.148   5.752  19.057  0.00  0.00    +0.000 A 
ATOM     10  N   UNL     1      47.592   5.012  18.003  0.00  0.00    +0.000 N 
ATOM     11  C   UNL     1      48.447   5.506  17.032  0.00  0.00    +0.000 A 
ATOM     12  O   UNL     1      49.031   4.750  16.261  0.00  0.00    +0.000 OA
ATOM     13  C   UNL     1      48.650   6.942  17.117  0.00  0.00    +0.000 A 
ATOM     14  H   UNL     1      47.445   4.014  17.976  0.00  0.00    +0.000 HD
ENDBRANCH   2   4
BRANCH   1  15
ATOM     15  C   UNL     1      49.593   7.077  12.478  0.00  0.00    +0.000 C 
BRANCH  15  16
ATOM     16  C   UNL     1      49.714   8.329  11.590  0.00  0.00    +0.000 C 
BRANCH  16  17
ATOM     17  C   UNL     1      51.077   9.015  11.559  0.00  0.00    +0.000 C 
BRANCH  17  18
ATOM     18  N   UNL     1      52.108   8.007  11.832  0.00  0.00    +0.000 NA
ATOM     19  H   UNL     1      53.013   8.454  11.966  0.00  0.00    +0.000 HD
ATOM     20  H   UNL     1      52.208   7.395  11.021  0.00  0.00    +0.000 HD
ENDBRANCH  17  18
ENDBRANCH  16  17
ENDBRANCH  15  16
ENDBRANCH   1  15
BRANCH   1  21
ATOM     21  C   UNL     1      47.548   7.555  13.824  0.00  0.00    +0.000 C 
BRANCH  21  22
ATOM     22  C   UNL     1      46.684   6.667  12.946  0.00  0.00    +0.000 A 
ATOM     23  C   UNL     1      46.088   7.094  11.746  0.00  0.00    +0.000 A 
ATOM     24  C   UNL     1      45.299   6.253  10.968  0.00  0.00    +0.000 A 
ATOM     25  C   UNL     1      44.990   4.976  11.424  0.00  0.00    +0.000 A 
ATOM     26  C   UNL     1      45.619   4.510  12.584  0.00  0.00    +0.000 A 
ATOM     27  C   UNL     1      46.477   5.335  13.321  0.00  0.00    +0.000 A 
BRANCH  25  28
ATOM     28  C   UNL     1      43.887   4.202  10.752  0.00  0.00    +0.000 C 
BRANCH  28  29
ATOM     29  N   UNL     1      44.391   3.082   9.964  0.00  0.00    +0.000 NA
ATOM     30  H   UNL     1      43.698   2.336   9.969  0.00  0.00    +0.000 HD
BRANCH  29  31
ATOM     31  C   UNL     1      44.637   3.503   8.586  0.00  0.00    +0.000 C 
BRANCH  31  32
ATOM     32  C   UNL     1      45.797   2.754   7.983  0.00  0.00    +0.000 A 
ATOM     33  C   UNL     1      46.741   3.417   7.194  0.00  0.00    +0.000 A 
ATOM     34  C   UNL     1      47.788   2.688   6.653  0.00  0.00    +0.000 A 
ATOM     35  N   UNL     1      47.960   1.364   6.843  0.00  0.00    +0.000 NA
ATOM     36  C   UNL     1      47.043   0.740   7.613  0.00  0.00    +0.000 A 
ATOM     37  C   UNL     1      45.965   1.382   8.202  0.00  0.00    +0.000 A 
ENDBRANCH  31  32
ENDBRANCH  29  31
ENDBRANCH  28  29
ENDBRANCH  25  28
ENDBRANCH  21  22
ENDBRANCH   1  21
TORSDOF 11
ENDMDL
MODEL 2
REMARK VINA RESULT:    -6.906      2.109      3.002
REMARK INTER + INTRA:         -13.075
REMARK INTER:                 -11.788
REMARK INTRA:                  -1.288
REMARK UNBOUND:                -1.931
REMARK  Name = 
REMARK  11 active torsions:
REMARK  status: ('A' for Active; 'I' for Inactive)
REMARK    1  A    between atoms: N_1  and  C_2
REMARK    2  A    between atoms: C_2  and  C_3
REMARK    3  A    between atoms: C_3  and  C_4
REMARK    4  A    between atoms: C_4  and  N_5
REMARK    5  A    between atoms: N_5  and  C_6
REMARK    6  A    between atoms: C_6  and  C_7
REMARK    7  A    between atoms: C_10  and  C_11
REMARK    8  A    between atoms: C_11  and  N_12
REMARK    9  A    between atoms: N_12  and  C_13
REMARK   10  A    between atoms: C_13  and  C_14
REMARK   11  A    between atoms: C_22  and  C_24
REMARK                            x       y       z     vdW  Elec       q    Type
REMARK                         _______ _______ _______ _____ _____    ______ ____
ROOT
ATOM      1  N   UNL     1      48.165   8.224  13.863  0.00  0.00    +0.000 N 
ATOM      2  C   UNL     1      48.765   8.391  15.147  0.00  0.00    +0.000 C 
ATOM      3  O   UNL     1      48.267   9.143  15.976  0.00  0.00    +0.000 OA
ENDROOT
BRANCH   2   4
ATOM      4  C   UNL     1      50.036   7.677  15.479  0.00  0.00    +0.000 A 
ATOM      5  C   UNL     1      51.307   8.101  15.138  0.00  0.00    +0.000 A 
ATOM      6  S   UNL     1      52.589   7.205  15.789  0.00  0.00    +0.000 S 
ATOM      7  C   UNL     1      51.493   6.166  16.546  0.00  0.00    +0.000 A 
ATOM      8  N   UNL     1      51.965   5.144  17.301  0.00  0.00    +0.000 NA
ATOM      9  C   UNL     1      51.034   4.432  17.843  0.00  0.00    +0.000 A 
ATOM     10  N   UNL     1      49.697   4.641  17.682  0.00  0.00    +0.000 N 
ATOM     11  C   UNL     1      49.172   5.592  16.823  0.00  0.00    +0.000 A 
ATOM     12  O   UNL     1      47.987   5.572  16.507  0.00  0.00    +0.000 OA
ATOM     13  C   UNL     1      50.174   6.492  16.277  0.00  0.00    +0.000 A 
ATOM     14  H   UNL     1      49.025   3.993  18.065  0.00  0.00    +0.000 HD
ENDBRANCH   2   4
BRANCH   1  15
ATOM     15  C   UNL     1      46.844   8.845  13.677  0.00  0.00    +0.000 C 
BRANCH  15  16
ATOM     16  C   UNL     1      46.586   9.644  12.387  0.00  0.00    +0.000 C 
BRANCH  16  17
ATOM     17  C   UNL     1      45.153  10.113  12.150  0.00  0.00    +0.000 C 
BRANCH  17  18
ATOM     18  N   UNL     1      44.357   8.962  11.708  0.00  0.00    +0.000 NA
ATOM     19  H   UNL     1      44.833   8.474  10.951  0.00  0.00    +0.000 HD
ATOM     20  H   UNL     1      43.470   9.289  11.324  0.00  0.00    +0.000 HD
ENDBRANCH  17  18
ENDBRANCH  16  17
ENDBRANCH  15  16
ENDBRANCH   1  15
BRANCH   1  21
ATOM     21  C   UNL     1      48.475   7.097  12.965  0.00  0.00    +0.000 C 
BRANCH  21  22
ATOM     22  C   UNL     1      47.282   6.229  12.606  0.00  0.00    +0.000 A 
ATOM     23  C   UNL     1      46.703   5.294  13.482  0.00  0.00    +0.000 A 
ATOM     24  C   UNL     1      45.611   4.513  13.118  0.00  0.00    +0.000 A 
ATOM     25  C   UNL     1      45.125   4.566  11.816  0.00  0.00    +0.000 A 
ATOM     26  C   UNL     1      45.647   5.529  10.946  0.00  0.00    +0.000 A 
ATOM     27  C   UNL     1      46.693   6.369  11.344  0.00  0.00    +0.000 A 
BRANCH  25  28
ATOM     28  C   UNL     1      44.175   3.497  11.342  0.00  0.00    +0.000 C 
BRANCH  28  29
ATOM     29  N   UNL     1      44.827   2.509  10.490  0.00  0.00    +0.000 NA
ATOM     30  H   UNL     1      44.445   1.588  10.699  0.00  0.00    +0.000 HD
BRANCH  29  31
ATOM     31  C   UNL     1      44.590   2.820   9.081  0.00  0.00    +0.000 C 
BRANCH  31  32
ATOM     32  C   UNL     1      45.750   2.386   8.222  0.00  0.00    +0.000 A 
ATOM     33  C   UNL     1      46.131   1.042   8.167  0.00  0.00    +0.000 A 
ATOM     34  C   UNL     1      47.209   0.687   7.371  0.00  0.00    +0.000 A 
ATOM     35  N   UNL     1      47.921   1.564   6.634  0.00  0.00    +0.000 NA
ATOM     36  C   UNL     1      47.536   2.857   6.695  0.00  0.00    +0.000 A 
ATOM     37  C   UNL     1      46.469   3.309   7.456  0.00  0.00    +0.000 A 
ENDBRANCH  31  32
ENDBRANCH  29  31
ENDBRANCH  28  29
ENDBRANCH  25  28
ENDBRANCH  21  22
ENDBRANCH   1  21
TORSDOF 11
ENDMDL
MODEL 3
REMARK VINA RESULT:    -6.845      3.360      8.730
REMARK INTER + INTRA:         -12.977
REMARK INTER:                 -10.879
REMARK INTRA:                  -2.098
REMARK UNBOUND:                -1.931
REMARK  Name = 
REMARK  11 active torsions:
REMARK  status: ('A' for Active; 'I' for Inactive)
REMARK    1  A    between atoms: N_1  and  C_2
REMARK    2  A    between atoms: C_2  and  C_3
REMARK    3  A    between atoms: C_3  and  C_4
REMARK    4  A    between atoms: C_4  and  N_5
REMARK    5  A    between atoms: N_5  and  C_6
REMARK    6  A    between atoms: C_6  and  C_7
REMARK    7  A    between atoms: C_10  and  C_11
REMARK    8  A    between atoms: C_11  and  N_12
REMARK    9  A    between atoms: N_12  and  C_13
REMARK   10  A    between atoms: C_13  and  C_14
REMARK   11  A    between atoms: C_22  and  C_24
REMARK                            x       y       z     vdW  Elec       q    Type
REMARK                         _______ _______ _______ _____ _____    ______ ____
ROOT
ATOM      1  N   UNL     1      46.138   7.198  12.174  0.00  0.00    +0.000 N 
ATOM      2  C   UNL     1      44.894   6.794  11.602  0.00  0.00    +0.000 C 
ATOM      3  O   UNL     1      44.086   7.628  11.214  0.00  0.00    +0.000 OA
ENDROOT
BRANCH   2   4
ATOM      4  C   UNL     1      44.548   5.342  11.511  0.00  0.00    +0.000 A 
ATOM      5  C   UNL     1      43.887   4.611  12.481  0.00  0.00    +0.000 A 
ATOM      6  S   UNL     1      43.457   3.029  12.057  0.00  0.00    +0.000 S 
ATOM      7  C   UNL     1      44.172   3.230  10.540  0.00  0.00    +0.000 A 
ATOM      8  N   UNL     1      44.139   2.205   9.654  0.00  0.00    +0.000 NA
ATOM      9  C   UNL     1      44.699   2.484   8.525  0.00  0.00    +0.000 A 
ATOM     10  N   UNL     1      45.294   3.671   8.219  0.00  0.00    +0.000 N 
ATOM     11  C   UNL     1      45.461   4.697   9.134  0.00  0.00    +0.000 A 
ATOM     12  O   UNL     1      46.225   5.630   8.904  0.00  0.00    +0.000 OA
ATOM     13  C   UNL     1      44.749   4.478  10.382  0.00  0.00    +0.000 A 
ATOM     14  H   UNL     1      45.789   3.790   7.348  0.00  0.00    +0.000 HD
ENDBRANCH   2   4
BRANCH   1  15
ATOM     15  C   UNL     1      46.457   8.631  12.087  0.00  0.00    +0.000 C 
BRANCH  15  16
ATOM     16  C   UNL     1      47.938   9.049  12.051  0.00  0.00    +0.000 C 
BRANCH  16  17
ATOM     17  C   UNL     1      48.223  10.533  11.827  0.00  0.00    +0.000 C 
BRANCH  17  18
ATOM     18  N   UNL     1      47.265  11.311  12.621  0.00  0.00    +0.000 NA
ATOM     19  H   UNL     1      47.164  12.248  12.234  0.00  0.00    +0.000 HD
ATOM     20  H   UNL     1      47.627  11.431  13.568  0.00  0.00    +0.000 HD
ENDBRANCH  17  18
ENDBRANCH  16  17
ENDBRANCH  15  16
ENDBRANCH   1  15
BRANCH   1  21
ATOM     21  C   UNL     1      47.291   6.292  12.324  0.00  0.00    +0.000 C 
BRANCH  21  22
ATOM     22  C   UNL     1      47.469   5.723  13.721  0.00  0.00    +0.000 A 
ATOM     23  C   UNL     1      46.928   4.495  14.141  0.00  0.00    +0.000 A 
ATOM     24  C   UNL     1      47.109   4.007  15.431  0.00  0.00    +0.000 A 
ATOM     25  C   UNL     1      47.755   4.788  16.383  0.00  0.00    +0.000 A 
ATOM     26  C   UNL     1      48.352   5.985  15.973  0.00  0.00    +0.000 A 
ATOM     27  C   UNL     1      48.235   6.433  14.652  0.00  0.00    +0.000 A 
BRANCH  25  28
ATOM     28  C   UNL     1      47.659   4.404  17.837  0.00  0.00    +0.000 C 
BRANCH  28  29
ATOM     29  N   UNL     1      46.753   5.269  18.584  0.00  0.00    +0.000 NA
ATOM     30  H   UNL     1      45.978   4.710  18.938  0.00  0.00    +0.000 HD
BRANCH  29  31
ATOM     31  C   UNL     1      47.455   5.886  19.708  0.00  0.00    +0.000 C 
BRANCH  31  32
ATOM     32  C   UNL     1      48.090   7.192  19.306  0.00  0.00    +0.000 A 
ATOM     33  C   UNL     1      47.300   8.283  18.934  0.00  0.00    +0.000 A 
ATOM     34  C   UNL     1      47.925   9.463  18.562  0.00  0.00    +0.000 A 
ATOM     35  N   UNL     1      49.263   9.631  18.540  0.00  0.00    +0.000 NA
ATOM     36  C   UNL     1      50.011   8.569  18.909  0.00  0.00    +0.000 A 
ATOM     37  C   UNL     1      49.480   7.350  19.301  0.00  0.00    +0.000 A 
ENDBRANCH  31  32
ENDBRANCH  29  31
ENDBRANCH  28  29
ENDBRANCH  25  28
ENDBRANCH  21  22
ENDBRANCH   1  21
TORSDOF 11
ENDMDL
MODEL 4
REMARK VINA RESULT:    -6.818      1.739      2.406
REMARK INTER + INTRA:         -12.934
REMARK INTER:                 -10.953
REMARK INTRA:                  -1.981
REMARK UNBOUND:                -1.931
REMARK  Name = 
REMARK  11 active torsions:
REMARK  status: ('A' for Active; 'I' for Inactive)
REMARK    1  A    between atoms: N_1  and  C_2
REMARK    2  A    between atoms: C_2  and  C_3
REMARK    3  A    between atoms: C_3  and  C_4
REMARK    4  A    between atoms: C_4  and  N_5
REMARK    5  A    between atoms: N_5  and  C_6
REMARK    6  A    between atoms: C_6  and  C_7
REMARK    7  A    between atoms: C_10  and  C_11
REMARK    8  A    between atoms: C_11  and  N_12
REMARK    9  A    between atoms: N_12  and  C_13
REMARK   10  A    between atoms: C_13  and  C_14
REMARK   11  A    between atoms: C_22  and  C_24
REMARK                            x       y       z     vdW  Elec       q    Type
REMARK                         _______ _______ _______ _____ _____    ______ ____
ROOT
ATOM      1  N   UNL     1      49.567   7.435  14.575  0.00  0.00    +0.000 N 
ATOM      2  C   UNL     1      50.075   6.869  15.783  0.00  0.00    +0.000 C 
ATOM      3  O   UNL     1      51.280   6.831  15.996  0.00  0.00    +0.000 OA
ENDROOT
BRANCH   2   4
ATOM      4  C   UNL     1      49.136   6.277  16.786  0.00  0.00    +0.000 A 
ATOM      5  C   UNL     1      48.631   4.991  16.752  0.00  0.00    +0.000 A 
ATOM      6  S   UNL     1      47.731   4.509  18.103  0.00  0.00    +0.000 S 
ATOM      7  C   UNL     1      47.944   6.032  18.802  0.00  0.00    +0.000 A 
ATOM      8  N   UNL     1      47.406   6.280  20.021  0.00  0.00    +0.000 NA
ATOM      9  C   UNL     1      47.652   7.469  20.459  0.00  0.00    +0.000 A 
ATOM     10  N   UNL     1      48.362   8.418  19.787  0.00  0.00    +0.000 N 
ATOM     11  C   UNL     1      48.822   8.251  18.491  0.00  0.00    +0.000 A 
ATOM     12  O   UNL     1      49.217   9.208  17.832  0.00  0.00    +0.000 OA
ATOM     13  C   UNL     1      48.669   6.893  17.996  0.00  0.00    +0.000 A 
ATOM     14  H   UNL     1      48.442   9.356  20.151  0.00  0.00    +0.000 HD
ENDBRANCH   2   4
BRANCH   1  15
ATOM     15  C   UNL     1      50.545   8.124  13.719  0.00  0.00    +0.000 C 
BRANCH  15  16
ATOM     16  C   UNL     1      50.485   9.660  13.631  0.00  0.00    +0.000 C 
BRANCH  16  17
ATOM     17  C   UNL     1      50.861  10.431  14.894  0.00  0.00    +0.000 C 
BRANCH  17  18
ATOM     18  N   UNL     1      49.635  10.983  15.480  0.00  0.00    +0.000 NA
ATOM     19  H   UNL     1      48.836  10.786  14.880  0.00  0.00    +0.000 HD
ATOM     20  H   UNL     1      49.710  12.001  15.530  0.00  0.00    +0.000 HD
ENDBRANCH  17  18
ENDBRANCH  16  17
ENDBRANCH  15  16
ENDBRANCH   1  15
BRANCH   1  21
ATOM     21  C   UNL     1      48.162   7.846  14.402  0.00  0.00    +0.000 C 
BRANCH  21  22
ATOM     22  C   UNL     1      47.397   7.054  13.356  0.00  0.00    +0.000 A 
ATOM     23  C   UNL     1      47.076   7.550  12.080  0.00  0.00    +0.000 A 
ATOM     24  C   UNL     1      46.371   6.797  11.146  0.00  0.00    +0.000 A 
ATOM     25  C   UNL     1      45.865   5.551  11.502  0.00  0.00    +0.000 A 
ATOM     26  C   UNL     1      46.221   5.014  12.744  0.00  0.00    +0.000 A 
ATOM     27  C   UNL     1      47.000   5.745  13.649  0.00  0.00    +0.000 A 
BRANCH  25  28
ATOM     28  C   UNL     1      44.839   4.895  10.616  0.00  0.00    +0.000 C 
BRANCH  28  29
ATOM     29  N   UNL     1      45.223   4.915   9.208  0.00  0.00    +0.000 NA
ATOM     30  H   UNL     1      46.240   4.918   9.143  0.00  0.00    +0.000 HD
BRANCH  29  31
ATOM     31  C   UNL     1      44.699   3.733   8.525  0.00  0.00    +0.000 C 
BRANCH  31  32
ATOM     32  C   UNL     1      45.813   2.899   7.944  0.00  0.00    +0.000 A 
ATOM     33  C   UNL     1      45.904   1.534   8.230  0.00  0.00    +0.000 A 
ATOM     34  C   UNL     1      46.949   0.807   7.682  0.00  0.00    +0.000 A 
ATOM     35  N   UNL     1      47.893   1.336   6.877  0.00  0.00    +0.000 NA
ATOM     36  C   UNL     1      47.786   2.654   6.605  0.00  0.00    +0.000 A 
ATOM     37  C   UNL     1      46.776   3.464   7.101  0.00  0.00    +0.000 A 
ENDBRANCH  31  32
ENDBRANCH  29  31
ENDBRANCH  28  29
ENDBRANCH  25  28
ENDBRANCH  21  22
ENDBRANCH   1  21
TORSDOF 11
ENDMDL
MODEL 5
REMARK VINA RESULT:    -6.745      1.978      4.673
REMARK INTER + INTRA:         -12.815
REMARK INTER:                 -10.793
REMARK INTRA:                  -2.022
REMARK UNBOUND:                -1.931
REMARK  Name = 
REMARK  11 active torsions:
REMARK  status: ('A' for Active; 'I' for Inactive)
REMARK    1  A    between atoms: N_1  and  C_2
REMARK    2  A    between atoms: C_2  and  C_3
REMARK    3  A    between atoms: C_3  and  C_4
REMARK    4  A    between atoms: C_4  and  N_5
REMARK    5  A    between atoms: N_5  and  C_6
REMARK    6  A    between atoms: C_6  and  C_7
REMARK    7  A    between atoms: C_10  and  C_11
REMARK    8  A    between atoms: C_11  and  N_12
REMARK    9  A    between atoms: N_12  and  C_13
REMARK   10  A    between atoms: C_13  and  C_14
REMARK   11  A    between atoms: C_22  and  C_24
REMARK                            x       y       z     vdW  Elec       q    Type
REMARK                         _______ _______ _______ _____ _____    ______ ____
ROOT
ATOM      1  N   UNL     1      48.295   7.321  15.067  0.00  0.00    +0.000 N 
ATOM      2  C   UNL     1      48.570   8.718  14.958  0.00  0.00    +0.000 C 
ATOM      3  O   UNL     1      48.626   9.422  15.959  0.00  0.00    +0.000 OA
ENDROOT
BRANCH   2   4
ATOM      4  C   UNL     1      48.753   9.343  13.612  0.00  0.00    +0.000 A 
ATOM      5  C   UNL     1      47.758   9.947  12.866  0.00  0.00    +0.000 A 
ATOM      6  S   UNL     1      48.262  10.737  11.456  0.00  0.00    +0.000 S 
ATOM      7  C   UNL     1      49.860  10.278  11.756  0.00  0.00    +0.000 A 
ATOM      8  N   UNL     1      50.830  10.661  10.891  0.00  0.00    +0.000 NA
ATOM      9  C   UNL     1      52.010  10.267  11.236  0.00  0.00    +0.000 A 
ATOM     10  N   UNL     1      52.294   9.522  12.342  0.00  0.00    +0.000 N 
ATOM     11  C   UNL     1      51.322   9.004  13.182  0.00  0.00    +0.000 A 
ATOM     12  O   UNL     1      51.594   8.131  13.999  0.00  0.00    +0.000 OA
ATOM     13  C   UNL     1      49.989   9.511  12.902  0.00  0.00    +0.000 A 
ATOM     14  H   UNL     1      53.228   9.175  12.504  0.00  0.00    +0.000 HD
ENDBRANCH   2   4
BRANCH   1  15
ATOM     15  C   UNL     1      48.278   6.766  16.429  0.00  0.00    +0.000 C 
BRANCH  15  16
ATOM     16  C   UNL     1      48.570   5.266  16.611  0.00  0.00    +0.000 C 
BRANCH  16  17
ATOM     17  C   UNL     1      47.403   4.395  17.071  0.00  0.00    +0.000 C 
BRANCH  17  18
ATOM     18  N   UNL     1      46.739   5.068  18.193  0.00  0.00    +0.000 NA
ATOM     19  H   UNL     1      45.884   4.576  18.445  0.00  0.00    +0.000 HD
ATOM     20  H   UNL     1      46.456   6.007  17.907  0.00  0.00    +0.000 HD
ENDBRANCH  17  18
ENDBRANCH  16  17
ENDBRANCH  15  16
ENDBRANCH   1  15
BRANCH   1  21
ATOM     21  C   UNL     1      48.566   6.357  13.985  0.00  0.00    +0.000 C 
BRANCH  21  22
ATOM     22  C   UNL     1      47.358   6.010  13.132  0.00  0.00    +0.000 A 
ATOM     23  C   UNL     1      47.098   6.582  11.875  0.00  0.00    +0.000 A 
ATOM     24  C   UNL     1      45.978   6.242  11.121  0.00  0.00    +0.000 A 
ATOM     25  C   UNL     1      45.019   5.388  11.654  0.00  0.00    +0.000 A 
ATOM     26  C   UNL     1      45.286   4.762  12.877  0.00  0.00    +0.000 A 
ATOM     27  C   UNL     1      46.453   5.047  13.593  0.00  0.00    +0.000 A 
BRANCH  25  28
ATOM     28  C   UNL     1      43.674   5.285  10.984  0.00  0.00    +0.000 C 
BRANCH  28  29
ATOM     29  N   UNL     1      43.761   4.717   9.643  0.00  0.00    +0.000 NA
ATOM     30  H   UNL     1      44.480   5.215   9.119  0.00  0.00    +0.000 HD
BRANCH  29  31
ATOM     31  C   UNL     1      44.111   3.300   9.715  0.00  0.00    +0.000 C 
BRANCH  31  32
ATOM     32  C   UNL     1      45.227   2.963   8.759  0.00  0.00    +0.000 A 
ATOM     33  C   UNL     1      45.835   3.962   7.993  0.00  0.00    +0.000 A 
ATOM     34  C   UNL     1      46.851   3.607   7.120  0.00  0.00    +0.000 A 
ATOM     35  N   UNL     1      47.300   2.345   6.962  0.00  0.00    +0.000 NA
ATOM     36  C   UNL     1      46.707   1.394   7.715  0.00  0.00    +0.000 A 
ATOM     37  C   UNL     1      45.687   1.649   8.618  0.00  0.00    +0.000 A 
ENDBRANCH  31  32
ENDBRANCH  29  31
ENDBRANCH  28  29
ENDBRANCH  25  28
ENDBRANCH  21  22
ENDBRANCH   1  21
TORSDOF 11
ENDMDL
MODEL 6
REMARK VINA RESULT:    -6.741      4.088      8.504
REMARK INTER + INTRA:         -12.810
REMARK INTER:                 -11.232
REMARK INTRA:                  -1.578
REMARK UNBOUND:                -1.931
REMARK  Name = 
REMARK  11 active torsions:
REMARK  status: ('A' for Active; 'I' for Inactive)
REMARK    1  A    between atoms: N_1  and  C_2
REMARK    2  A    between atoms: C_2  and  C_3
REMARK    3  A    between atoms: C_3  and  C_4
REMARK    4  A    between atoms: C_4  and  N_5
REMARK    5  A    between atoms: N_5  and  C_6
REMARK    6  A    between atoms: C_6  and  C_7
REMARK    7  A    between atoms: C_10  and  C_11
REMARK    8  A    between atoms: C_11  and  N_12
REMARK    9  A    between atoms: N_12  and  C_13
REMARK   10  A    between atoms: C_13  and  C_14
REMARK   11  A    between atoms: C_22  and  C_24
REMARK                            x       y       z     vdW  Elec       q    Type
REMARK                         _______ _______ _______ _____ _____    ______ ____
ROOT
ATOM      1  N   UNL     1      45.875   7.122  12.254  0.00  0.00    +0.000 N 
ATOM      2  C   UNL     1      44.655   6.672  11.666  0.00  0.00    +0.000 C 
ATOM      3  O   UNL     1      43.794   7.473  11.325  0.00  0.00    +0.000 OA
ENDROOT
BRANCH   2   4
ATOM      4  C   UNL     1      44.400   5.208  11.498  0.00  0.00    +0.000 A 
ATOM      5  C   UNL     1      43.749   4.397  12.408  0.00  0.00    +0.000 A 
ATOM      6  S   UNL     1      43.430   2.813  11.899  0.00  0.00    +0.000 S 
ATOM      7  C   UNL     1      44.188   3.124  10.421  0.00  0.00    +0.000 A 
ATOM      8  N   UNL     1      44.248   2.140   9.491  0.00  0.00    +0.000 NA
ATOM      9  C   UNL     1      44.833   2.503   8.398  0.00  0.00    +0.000 A 
ATOM     10  N   UNL     1      45.367   3.735   8.168  0.00  0.00    +0.000 N 
ATOM     11  C   UNL     1      45.438   4.727   9.133  0.00  0.00    +0.000 A 
ATOM     12  O   UNL     1      46.153   5.711   8.975  0.00  0.00    +0.000 OA
ATOM     13  C   UNL     1      44.695   4.410  10.342  0.00  0.00    +0.000 A 
ATOM     14  H   UNL     1      45.887   3.923   7.324  0.00  0.00    +0.000 HD
ENDBRANCH   2   4
BRANCH   1  15
ATOM     15  C   UNL     1      46.104   8.575  12.244  0.00  0.00    +0.000 C 
BRANCH  15  16
ATOM     16  C   UNL     1      47.536   9.088  12.010  0.00  0.00    +0.000 C 
BRANCH  16  17
ATOM     17  C   UNL     1      47.773  10.579  12.239  0.00  0.00    +0.000 C 
BRANCH  17  18
ATOM     18  N   UNL     1      48.204  10.770  13.629  0.00  0.00    +0.000 NA
ATOM     19  H   UNL     1      49.207  10.942  13.667  0.00  0.00    +0.000 HD
ATOM     20  H   UNL     1      48.041   9.911  14.157  0.00  0.00    +0.000 HD
ENDBRANCH  17  18
ENDBRANCH  16  17
ENDBRANCH  15  16
ENDBRANCH   1  15
BRANCH   1  21
ATOM     21  C   UNL     1      47.084   6.283  12.353  0.00  0.00    +0.000 C 
BRANCH  21  22
ATOM     22  C   UNL     1      47.457   5.878  13.768  0.00  0.00    +0.000 A 
ATOM     23  C   UNL     1      48.349   6.603  14.579  0.00  0.00    +0.000 A 
ATOM     24  C   UNL     1      48.671   6.200  15.872  0.00  0.00    +0.000 A 
ATOM     25  C   UNL     1      48.189   4.990  16.360  0.00  0.00    +0.000 A 
ATOM     26  C   UNL     1      47.255   4.284  15.594  0.00  0.00    +0.000 A 
ATOM     27  C   UNL     1      46.873   4.736  14.326  0.00  0.00    +0.000 A 
BRANCH  25  28
ATOM     28  C   UNL     1      48.795   4.409  17.611  0.00  0.00    +0.000 C 
BRANCH  28  29
ATOM     29  N   UNL     1      50.215   4.111  17.456  0.00  0.00    +0.000 NA
ATOM     30  H   UNL     1      50.698   4.343  18.323  0.00  0.00    +0.000 HD
BRANCH  29  31
ATOM     31  C   UNL     1      50.404   2.691  17.163  0.00  0.00    +0.000 C 
BRANCH  31  32
ATOM     32  C   UNL     1      51.712   2.188  17.719  0.00  0.00    +0.000 A 
ATOM     33  C   UNL     1      52.103   0.860  17.528  0.00  0.00    +0.000 A 
ATOM     34  C   UNL     1      53.309   0.436  18.064  0.00  0.00    +0.000 A 
ATOM     35  N   UNL     1      54.143   1.234  18.762  0.00  0.00    +0.000 NA
ATOM     36  C   UNL     1      53.753   2.515  18.931  0.00  0.00    +0.000 A 
ATOM     37  C   UNL     1      52.569   3.034  18.431  0.00  0.00    +0.000 A 
ENDBRANCH  31  32
ENDBRANCH  29  31
ENDBRANCH  28  29
ENDBRANCH  25  28
ENDBRANCH  21  22
ENDBRANCH   1  21
TORSDOF 11
ENDMDL
MODEL 7
REMARK VINA RESULT:    -6.571      2.226      2.877
REMARK INTER + INTRA:         -12.535
REMARK INTER:                 -10.650
REMARK INTRA:                  -1.885
REMARK UNBOUND:                -1.931
REMARK  Name = 
REMARK  11 active torsions:
REMARK  status: ('A' for Active; 'I' for Inactive)
REMARK    1  A    between atoms: N_1  and  C_2
REMARK    2  A    between atoms: C_2  and  C_3
REMARK    3  A    between atoms: C_3  and  C_4
REMARK    4  A    between atoms: C_4  and  N_5
REMARK    5  A    between atoms: N_5  and  C_6
REMARK    6  A    between atoms: C_6  and  C_7
REMARK    7  A    between atoms: C_10  and  C_11
REMARK    8  A    between atoms: C_11  and  N_12
REMARK    9  A    between atoms: N_12  and  C_13
REMARK   10  A    between atoms: C_13  and  C_14
REMARK   11  A    between atoms: C_22  and  C_24
REMARK                            x       y       z     vdW  Elec       q    Type
REMARK                         _______ _______ _______ _____ _____    ______ ____
ROOT
ATOM      1  N   UNL     1      48.869   7.789  14.686  0.00  0.00    +0.000 N 
ATOM      2  C   UNL     1      48.675   7.591  16.087  0.00  0.00    +0.000 C 
ATOM      3  O   UNL     1      48.284   8.507  16.799  0.00  0.00    +0.000 OA
ENDROOT
BRANCH   2   4
ATOM      4  C   UNL     1      48.990   6.266  16.706  0.00  0.00    +0.000 A 
ATOM      5  C   UNL     1      48.069   5.277  16.998  0.00  0.00    +0.000 A 
ATOM      6  S   UNL     1      48.707   3.801  17.529  0.00  0.00    +0.000 S 
ATOM      7  C   UNL     1      50.273   4.428  17.427  0.00  0.00    +0.000 A 
ATOM      8  N   UNL     1      51.323   3.635  17.750  0.00  0.00    +0.000 NA
ATOM      9  C   UNL     1      52.467   4.218  17.614  0.00  0.00    +0.000 A 
ATOM     10  N   UNL     1      52.645   5.506  17.208  0.00  0.00    +0.000 N 
ATOM     11  C   UNL     1      51.599   6.388  16.989  0.00  0.00    +0.000 A 
ATOM     12  O   UNL     1      51.800   7.594  16.887  0.00  0.00    +0.000 OA
ATOM     13  C   UNL     1      50.293   5.751  17.019  0.00  0.00    +0.000 A 
ATOM     14  H   UNL     1      53.563   5.925  17.208  0.00  0.00    +0.000 HD
ENDBRANCH   2   4
BRANCH   1  15
ATOM     15  C   UNL     1      48.396   9.071  14.141  0.00  0.00    +0.000 C 
BRANCH  15  16
ATOM     16  C   UNL     1      49.385   9.932  13.335  0.00  0.00    +0.000 C 
BRANCH  16  17
ATOM     17  C   UNL     1      49.234   9.903  11.816  0.00  0.00    +0.000 C 
BRANCH  17  18
ATOM     18  N   UNL     1      50.507   9.461  11.234  0.00  0.00    +0.000 NA
ATOM     19  H   UNL     1      50.614   9.833  10.293  0.00  0.00    +0.000 HD
ATOM     20  H   UNL     1      50.503   8.444  11.141  0.00  0.00    +0.000 HD
ENDBRANCH  17  18
ENDBRANCH  16  17
ENDBRANCH  15  16
ENDBRANCH   1  15
BRANCH   1  21
ATOM     21  C   UNL     1      48.979   6.682  13.720  0.00  0.00    +0.000 C 
BRANCH  21  22
ATOM     22  C   UNL     1      47.678   6.320  13.025  0.00  0.00    +0.000 A 
ATOM     23  C   UNL     1      47.289   6.834  11.775  0.00  0.00    +0.000 A 
ATOM     24  C   UNL     1      46.087   6.481  11.169  0.00  0.00    +0.000 A 
ATOM     25  C   UNL     1      45.179   5.677  11.848  0.00  0.00    +0.000 A 
ATOM     26  C   UNL     1      45.569   5.107  13.065  0.00  0.00    +0.000 A 
ATOM     27  C   UNL     1      46.814   5.402  13.633  0.00  0.00    +0.000 A 
BRANCH  25  28
ATOM     28  C   UNL     1      43.766   5.571  11.337  0.00  0.00    +0.000 C 
BRANCH  28  29
ATOM     29  N   UNL     1      43.695   4.950  10.018  0.00  0.00    +0.000 NA
ATOM     30  H   UNL     1      44.331   5.438   9.389  0.00  0.00    +0.000 HD
BRANCH  29  31
ATOM     31  C   UNL     1      44.084   3.543  10.101  0.00  0.00    +0.000 C 
BRANCH  31  32
ATOM     32  C   UNL     1      45.107   3.196   9.050  0.00  0.00    +0.000 A 
ATOM     33  C   UNL     1      45.501   1.870   8.850  0.00  0.00    +0.000 A 
ATOM     34  C   UNL     1      46.452   1.596   7.880  0.00  0.00    +0.000 A 
ATOM     35  N   UNL     1      47.026   2.537   7.103  0.00  0.00    +0.000 NA
ATOM     36  C   UNL     1      46.630   3.812   7.305  0.00  0.00    +0.000 A 
ATOM     37  C   UNL     1      45.683   4.185   8.247  0.00  0.00    +0.000 A 
ENDBRANCH  31  32
ENDBRANCH  29  31
ENDBRANCH  28  29
ENDBRANCH  25  28
ENDBRANCH  21  22
ENDBRANCH   1  21
TORSDOF 11
ENDMDL
MODEL 8
REMARK VINA RESULT:    -6.415      4.061      8.043
REMARK INTER + INTRA:         -12.284
REMARK INTER:                 -10.503
REMARK INTRA:                  -1.780
REMARK UNBOUND:                -1.931
REMARK  Name = 
REMARK  11 active torsions:
REMARK  status: ('A' for Active; 'I' for Inactive)
REMARK    1  A    between atoms: N_1  and  C_2
REMARK    2  A    between atoms: C_2  and  C_3
REMARK    3  A    between atoms: C_3  and  C_4
REMARK    4  A    between atoms: C_4  and  N_5
REMARK    5  A    between atoms: N_5  and  C_6
REMARK    6  A    between atoms: C_6  and  C_7
REMARK    7  A    between atoms: C_10  and  C_11
REMARK    8  A    between atoms: C_11  and  N_12
REMARK    9  A    between atoms: N_12  and  C_13
REMARK   10  A    between atoms: C_13  and  C_14
REMARK   11  A    between atoms: C_22  and  C_24
REMARK                            x       y       z     vdW  Elec       q    Type
REMARK                         _______ _______ _______ _____ _____    ______ ____
ROOT
ATOM      1  N   UNL     1      46.469   7.284  12.742  0.00  0.00    +0.000 N 
ATOM      2  C   UNL     1      45.480   7.296  11.713  0.00  0.00    +0.000 C 
ATOM      3  O   UNL     1      44.838   8.311  11.477  0.00  0.00    +0.000 OA
ENDROOT
BRANCH   2   4
ATOM      4  C   UNL     1      45.188   6.050  10.940  0.00  0.00    +0.000 A 
ATOM      5  C   UNL     1      45.656   5.765   9.670  0.00  0.00    +0.000 A 
ATOM      6  S   UNL     1      45.330   4.208   9.089  0.00  0.00    +0.000 S 
ATOM      7  C   UNL     1      44.503   3.837  10.515  0.00  0.00    +0.000 A 
ATOM      8  N   UNL     1      43.965   2.602  10.663  0.00  0.00    +0.000 NA
ATOM      9  C   UNL     1      43.376   2.432  11.800  0.00  0.00    +0.000 A 
ATOM     10  N   UNL     1      43.268   3.379  12.774  0.00  0.00    +0.000 N 
ATOM     11  C   UNL     1      43.693   4.687  12.615  0.00  0.00    +0.000 A 
ATOM     12  O   UNL     1      43.343   5.564  13.399  0.00  0.00    +0.000 OA
ATOM     13  C   UNL     1      44.461   4.901  11.400  0.00  0.00    +0.000 A 
ATOM     14  H   UNL     1      42.719   3.205  13.603  0.00  0.00    +0.000 HD
ENDBRANCH   2   4
BRANCH   1  15
ATOM     15  C   UNL     1      46.793   8.585  13.347  0.00  0.00    +0.000 C 
BRANCH  15  16
ATOM     16  C   UNL     1      48.035   9.339  12.840  0.00  0.00    +0.000 C 
BRANCH  16  17
ATOM     17  C   UNL     1      47.788  10.463  11.837  0.00  0.00    +0.000 C 
BRANCH  17  18
ATOM     18  N   UNL     1      46.689  11.295  12.338  0.00  0.00    +0.000 NA
ATOM     19  H   UNL     1      45.791  10.896  12.069  0.00  0.00    +0.000 HD
ATOM     20  H   UNL     1      46.734  12.217  11.901  0.00  0.00    +0.000 HD
ENDBRANCH  17  18
ENDBRANCH  16  17
ENDBRANCH  15  16
ENDBRANCH   1  15
BRANCH   1  21
ATOM     21  C   UNL     1      47.515   6.250  12.847  0.00  0.00    +0.000 C 
BRANCH  21  22
ATOM     22  C   UNL     1      47.603   5.577  14.205  0.00  0.00    +0.000 A 
ATOM     23  C   UNL     1      48.340   6.091  15.287  0.00  0.00    +0.000 A 
ATOM     24  C   UNL     1      48.400   5.445  16.518  0.00  0.00    +0.000 A 
ATOM     25  C   UNL     1      47.808   4.196  16.674  0.00  0.00    +0.000 A 
ATOM     26  C   UNL     1      47.022   3.693  15.631  0.00  0.00    +0.000 A 
ATOM     27  C   UNL     1      46.898   4.387  14.422  0.00  0.00    +0.000 A 
BRANCH  25  28
ATOM     28  C   UNL     1      48.152   3.366  17.883  0.00  0.00    +0.000 C 
BRANCH  28  29
ATOM     29  N   UNL     1      49.589   3.312  18.133  0.00  0.00    +0.000 NA
ATOM     30  H   UNL     1      49.745   3.081  19.112  0.00  0.00    +0.000 HD
BRANCH  29  31
ATOM     31  C   UNL     1      50.210   2.291  17.291  0.00  0.00    +0.000 C 
BRANCH  31  32
ATOM     32  C   UNL     1      51.682   2.159  17.588  0.00  0.00    +0.000 A 
ATOM     33  C   UNL     1      52.437   3.276  17.958  0.00  0.00    +0.000 A 
ATOM     34  C   UNL     1      53.789   3.112  18.214  0.00  0.00    +0.000 A 
ATOM     35  N   UNL     1      54.432   1.928  18.132  0.00  0.00    +0.000 NA
ATOM     36  C   UNL     1      53.686   0.859  17.780  0.00  0.00    +0.000 A 
ATOM     37  C   UNL     1      52.328   0.921  17.509  0.00  0.00    +0.000 A 
ENDBRANCH  31  32
ENDBRANCH  29  31
ENDBRANCH  28  29
ENDBRANCH  25  28
ENDBRANCH  21  22
ENDBRANCH   1  21
TORSDOF 11
ENDMDL
MODEL 9
REMARK VINA RESULT:    -6.304      1.595      2.078
REMARK INTER + INTRA:         -12.104
REMARK INTER:                 -10.444
REMARK INTRA:                  -1.660
REMARK UNBOUND:                -1.931
REMARK  Name = 
REMARK  11 active torsions:
REMARK  status: ('A' for Active; 'I' for Inactive)
REMARK    1  A    between atoms: N_1  and  C_2
REMARK    2  A    between atoms: C_2  and  C_3
REMARK    3  A    between atoms: C_3  and  C_4
REMARK    4  A    between atoms: C_4  and  N_5
REMARK    5  A    between atoms: N_5  and  C_6
REMARK    6  A    between atoms: C_6  and  C_7
REMARK    7  A    between atoms: C_10  and  C_11
REMARK    8  A    between atoms: C_11  and  N_12
REMARK    9  A    between atoms: N_12  and  C_13
REMARK   10  A    between atoms: C_13  and  C_14
REMARK   11  A    between atoms: C_22  and  C_24
REMARK                            x       y       z     vdW  Elec       q    Type
REMARK                         _______ _______ _______ _____ _____    ______ ____
ROOT
ATOM      1  N   UNL     1      48.225   7.680  12.993  0.00  0.00    +0.000 N 
ATOM      2  C   UNL     1      49.077   7.111  13.988  0.00  0.00    +0.000 C 
ATOM      3  O   UNL     1      50.293   7.231  13.911  0.00  0.00    +0.000 OA
ENDROOT
BRANCH   2   4
ATOM      4  C   UNL     1      48.489   6.325  15.116  0.00  0.00    +0.000 A 
ATOM      5  C   UNL     1      47.838   5.111  14.996  0.00  0.00    +0.000 A 
ATOM      6  S   UNL     1      47.425   4.342  16.447  0.00  0.00    +0.000 S 
ATOM      7  C   UNL     1      48.076   5.628  17.327  0.00  0.00    +0.000 A 
ATOM      8  N   UNL     1      48.047   5.582  18.681  0.00  0.00    +0.000 NA
ATOM      9  C   UNL     1      48.590   6.611  19.242  0.00  0.00    +0.000 A 
ATOM     10  N   UNL     1      49.133   7.668  18.576  0.00  0.00    +0.000 N 
ATOM     11  C   UNL     1      49.072   7.815  17.200  0.00  0.00    +0.000 A 
ATOM     12  O   UNL     1      49.329   8.890  16.667  0.00  0.00    +0.000 OA
ATOM     13  C   UNL     1      48.573   6.634  16.515  0.00  0.00    +0.000 A 
ATOM     14  H   UNL     1      49.463   8.480  19.077  0.00  0.00    +0.000 HD
ENDBRANCH   2   4
BRANCH   1  15
ATOM     15  C   UNL     1      48.875   8.557  12.007  0.00  0.00    +0.000 C 
BRANCH  15  16
ATOM     16  C   UNL     1      49.439   9.906  12.489  0.00  0.00    +0.000 C 
BRANCH  16  17
ATOM     17  C   UNL     1      50.834  10.279  11.993  0.00  0.00    +0.000 C 
BRANCH  17  18
ATOM     18  N   UNL     1      51.677   9.080  12.043  0.00  0.00    +0.000 NA
ATOM     19  H   UNL     1      51.875   8.827  13.010  0.00  0.00    +0.000 HD
ATOM     20  H   UNL     1      52.580   9.280  11.609  0.00  0.00    +0.000 HD
ENDBRANCH  17  18
ENDBRANCH  16  17
ENDBRANCH  15  16
ENDBRANCH   1  15
BRANCH   1  21
ATOM     21  C   UNL     1      46.781   7.897  13.192  0.00  0.00    +0.000 C 
BRANCH  21  22
ATOM     22  C   UNL     1      45.891   6.841  12.561  0.00  0.00    +0.000 A 
ATOM     23  C   UNL     1      44.765   6.285  13.195  0.00  0.00    +0.000 A 
ATOM     24  C   UNL     1      43.973   5.316  12.587  0.00  0.00    +0.000 A 
ATOM     25  C   UNL     1      44.347   4.789  11.356  0.00  0.00    +0.000 A 
ATOM     26  C   UNL     1      45.428   5.367  10.681  0.00  0.00    +0.000 A 
ATOM     27  C   UNL     1      46.173   6.399  11.263  0.00  0.00    +0.000 A 
BRANCH  25  28
ATOM     28  C   UNL     1      43.684   3.530  10.864  0.00  0.00    +0.000 C 
BRANCH  28  29
ATOM     29  N   UNL     1      43.896   3.308   9.437  0.00  0.00    +0.000 NA
ATOM     30  H   UNL     1      44.465   4.067   9.066  0.00  0.00    +0.000 HD
BRANCH  29  31
ATOM     31  C   UNL     1      44.587   2.038   9.221  0.00  0.00    +0.000 C 
BRANCH  31  32
ATOM     32  C   UNL     1      45.733   2.196   8.254  0.00  0.00    +0.000 A 
ATOM     33  C   UNL     1      45.998   3.434   7.661  0.00  0.00    +0.000 A 
ATOM     34  C   UNL     1      47.056   3.534   6.771  0.00  0.00    +0.000 A 
ATOM     35  N   UNL     1      47.858   2.502   6.437  0.00  0.00    +0.000 NA
ATOM     36  C   UNL     1      47.591   1.315   7.024  0.00  0.00    +0.000 A 
ATOM     37  C   UNL     1      46.561   1.117   7.930  0.00  0.00    +0.000 A 
ENDBRANCH  31  32
ENDBRANCH  29  31
ENDBRANCH  28  29
ENDBRANCH  25  28
ENDBRANCH  21  22
ENDBRANCH   1  21
TORSDOF 11
ENDMDL
