MODEL 1
REMARK VINA RESULT:    -7.405      0.000      0.000
REMARK INTER + INTRA:          -9.734
REMARK INTER:                  -9.353
REMARK INTRA:                  -0.382
REMARK UNBOUND:                -0.382
REMARK  Name = 
REMARK  5 active torsions:
REMARK  status: ('A' for Active; 'I' for Inactive)
REMARK    1  A    between atoms: N_1  and  S_2
REMARK    2  A    between atoms: S_2  and  C_5
REMARK    3  A    between atoms: C_8  and  N_9
REMARK    4  A    between atoms: N_9  and  C_10
REMARK    5  A    between atoms: C_10  and  C_11
REMARK                            x       y       z     vdW  Elec       q    Type
REMARK                         _______ _______ _______ _____ _____    ______ ____
ROOT
ATOM      1  C   UNL     1      46.764   5.820  12.631  0.00  0.00    +0.000 A 
ATOM      2  C   UNL     1      46.522   6.452  11.410  0.00  0.00    +0.000 A 
ATOM      3  C   UNL     1      45.650   5.862  10.493  0.00  0.00    +0.000 A 
ATOM      4  C   UNL     1      45.051   4.626  10.768  0.00  0.00    +0.000 A 
ATOM      5  C   UNL     1      45.245   4.052  12.031  0.00  0.00    +0.000 A 
ATOM      6  C   UNL     1      46.116   4.629  12.956  0.00  0.00    +0.000 A 
ENDROOT
BRANCH   1   7
ATOM      7  S   UNL     1      47.892   6.540  13.778  0.00  0.00    +0.000 S 
ATOM      8  O   UNL     1      48.093   5.617  14.876  0.00  0.00    +0.000 OA
ATOM      9  O   UNL     1      47.554   7.928  13.987  0.00  0.00    +0.000 OA
BRANCH   7  10
ATOM     10  N   UNL     1      49.326   6.560  12.902  0.00  0.00    +0.000 NA
ATOM     11  H   UNL     1      49.468   7.491  12.512  0.00  0.00    +0.000 HD
ATOM     12  H   UNL     1      49.311   5.815  12.204  0.00  0.00    +0.000 HD
ENDBRANCH   7  10
ENDBRANCH   1   7
BRANCH   4  13
ATOM     13  N   UNL     1      44.218   3.955   9.871  0.00  0.00    +0.000 N 
ATOM     14  H   UNL     1      44.113   4.470   8.999  0.00  0.00    +0.000 HD
BRANCH  13  15
ATOM     15  C   UNL     1      44.496   2.538   9.619  0.00  0.00    +0.000 C 
BRANCH  15  16
ATOM     16  C   UNL     1      45.508   2.391   8.503  0.00  0.00    +0.000 A 
ATOM     17  C   UNL     1      45.726   3.455   7.623  0.00  0.00    +0.000 A 
ATOM     18  C   UNL     1      46.631   3.295   6.580  0.00  0.00    +0.000 A 
ATOM     19  C   UNL     1      47.290   2.081   6.436  0.00  0.00    +0.000 A 
ATOM     20  C   UNL     1      47.015   1.074   7.347  0.00  0.00    +0.000 A 
ATOM     21  N   UNL     1      46.144   1.199   8.373  0.00  0.00    +0.000 NA
ENDBRANCH  15  16
ENDBRANCH  13  15
ENDBRANCH   4  13
TORSDOF 5
ENDMDL
MODEL 2
REMARK VINA RESULT:    -7.338      3.987      6.277
REMARK INTER + INTRA:          -9.650
REMARK INTER:                  -9.125
REMARK INTRA:                  -0.525
REMARK UNBOUND:                -0.382
REMARK  Name = 
REMARK  5 active torsions:
REMARK  status: ('A' for Active; 'I' for Inactive)
REMARK    1  A    between atoms: N_1  and  S_2
REMARK    2  A    between atoms: S_2  and  C_5
REMARK    3  A    between atoms: C_8  and  N_9
REMARK    4  A    between atoms: N_9  and  C_10
REMARK    5  A    between atoms: C_10  and  C_11
REMARK                            x       y       z     vdW  Elec       q    Type
REMARK                         _______ _______ _______ _____ _____    ______ ____
ROOT
ATOM      1  C   UNL     1      46.147   2.568   7.810  0.00  0.00    +0.000 A 
ATOM      2  C   UNL     1      45.423   1.710   8.639  0.00  0.00    +0.000 A 
ATOM      3  C   UNL     1      44.524   2.246   9.564  0.00  0.00    +0.000 A 
ATOM      4  C   UNL     1      44.375   3.633   9.697  0.00  0.00    +0.000 A 
ATOM      5  C   UNL     1      45.051   4.470   8.800  0.00  0.00    +0.000 A 
ATOM      6  C   UNL     1      45.953   3.948   7.872  0.00  0.00    +0.000 A 
ENDROOT
BRANCH   1   7
ATOM      7  S   UNL     1      47.310   1.901   6.666  0.00  0.00    +0.000 S 
ATOM      8  O   UNL     1      47.098   0.472   6.565  0.00  0.00    +0.000 OA
ATOM      9  O   UNL     1      48.613   2.473   6.908  0.00  0.00    +0.000 OA
BRANCH   7  10
ATOM     10  N   UNL     1      46.798   2.565   5.211  0.00  0.00    +0.000 NA
ATOM     11  H   UNL     1      46.895   1.870   4.472  0.00  0.00    +0.000 HD
ATOM     12  H   UNL     1      47.304   3.433   5.033  0.00  0.00    +0.000 HD
ENDBRANCH   7  10
ENDBRANCH   1   7
BRANCH   4  13
ATOM     13  N   UNL     1      43.540   4.233  10.640  0.00  0.00    +0.000 N 
ATOM     14  H   UNL     1      42.569   4.237  10.332  0.00  0.00    +0.000 HD
BRANCH  13  15
ATOM     15  C   UNL     1      43.653   3.782  12.029  0.00  0.00    +0.000 C 
BRANCH  15  16
ATOM     16  C   UNL     1      44.899   4.356  12.670  0.00  0.00    +0.000 A 
ATOM     17  C   UNL     1      45.120   5.735  12.636  0.00  0.00    +0.000 A 
ATOM     18  C   UNL     1      46.285   6.247  13.195  0.00  0.00    +0.000 A 
ATOM     19  C   UNL     1      47.202   5.374  13.767  0.00  0.00    +0.000 A 
ATOM     20  C   UNL     1      46.910   4.020  13.756  0.00  0.00    +0.000 A 
ATOM     21  N   UNL     1      45.786   3.491  13.224  0.00  0.00    +0.000 NA
ENDBRANCH  15  16
ENDBRANCH  13  15
ENDBRANCH   4  13
TORSDOF 5
ENDMDL
MODEL 3
REMARK VINA RESULT:    -7.176      1.902      2.409
REMARK INTER + INTRA:          -9.446
REMARK INTER:                  -9.056
REMARK INTRA:                  -0.390
REMARK UNBOUND:                -0.382
REMARK  Name = 
REMARK  5 active torsions:
REMARK  status: ('A' for Active; 'I' for Inactive)
REMARK    1  A    between atoms: N_1  and  S_2
REMARK    2  A    between atoms: S_2  and  C_5
REMARK    3  A    between atoms: C_8  and  N_9
REMARK    4  A    between atoms: N_9  and  C_10
REMARK    5  A    between atoms: C_10  and  C_11
REMARK                            x       y       z     vdW  Elec       q    Type
REMARK                         _______ _______ _______ _____ _____    ______ ____
ROOT
ATOM      1  C   UNL     1      46.699   4.619  13.720  0.00  0.00    +0.000 A 
ATOM      2  C   UNL     1      46.977   5.824  13.073  0.00  0.00    +0.000 A 
ATOM      3  C   UNL     1      46.330   6.124  11.873  0.00  0.00    +0.000 A 
ATOM      4  C   UNL     1      45.440   5.211  11.292  0.00  0.00    +0.000 A 
ATOM      5  C   UNL     1      45.115   4.047  11.999  0.00  0.00    +0.000 A 
ATOM      6  C   UNL     1      45.756   3.733  13.199  0.00  0.00    +0.000 A 
ENDROOT
BRANCH   1   7
ATOM      7  S   UNL     1      47.539   4.216  15.216  0.00  0.00    +0.000 S 
ATOM      8  O   UNL     1      48.458   5.288  15.539  0.00  0.00    +0.000 OA
ATOM      9  O   UNL     1      47.948   2.831  15.187  0.00  0.00    +0.000 OA
BRANCH   7  10
ATOM     10  N   UNL     1      46.301   4.289  16.349  0.00  0.00    +0.000 NA
ATOM     11  H   UNL     1      45.424   4.499  15.875  0.00  0.00    +0.000 HD
ATOM     12  H   UNL     1      46.547   4.956  17.082  0.00  0.00    +0.000 HD
ENDBRANCH   7  10
ENDBRANCH   1   7
BRANCH   4  13
ATOM     13  N   UNL     1      44.806   5.424  10.067  0.00  0.00    +0.000 N 
ATOM     14  H   UNL     1      45.406   5.928   9.417  0.00  0.00    +0.000 HD
BRANCH  13  15
ATOM     15  C   UNL     1      44.178   4.269   9.420  0.00  0.00    +0.000 C 
BRANCH  15  16
ATOM     16  C   UNL     1      45.195   3.511   8.593  0.00  0.00    +0.000 A 
ATOM     17  C   UNL     1      45.373   2.141   8.803  0.00  0.00    +0.000 A 
ATOM     18  C   UNL     1      46.334   1.463   8.063  0.00  0.00    +0.000 A 
ATOM     19  C   UNL     1      47.097   2.166   7.139  0.00  0.00    +0.000 A 
ATOM     20  C   UNL     1      46.862   3.523   6.994  0.00  0.00    +0.000 A 
ATOM     21  N   UNL     1      45.933   4.210   7.694  0.00  0.00    +0.000 NA
ENDBRANCH  15  16
ENDBRANCH  13  15
ENDBRANCH   4  13
TORSDOF 5
ENDMDL
MODEL 4
REMARK VINA RESULT:    -7.033      0.989      1.732
REMARK INTER + INTRA:          -9.265
REMARK INTER:                  -8.861
REMARK INTRA:                  -0.404
REMARK UNBOUND:                -0.382
REMARK  Name = 
REMARK  5 active torsions:
REMARK  status: ('A' for Active; 'I' for Inactive)
REMARK    1  A    between atoms: N_1  and  S_2
REMARK    2  A    between atoms: S_2  and  C_5
REMARK    3  A    between atoms: C_8  and  N_9
REMARK    4  A    between atoms: N_9  and  C_10
REMARK    5  A    between atoms: C_10  and  C_11
REMARK                            x       y       z     vdW  Elec       q    Type
REMARK                         _______ _______ _______ _____ _____    ______ ____
ROOT
ATOM      1  C   UNL     1      47.000   5.786  12.996  0.00  0.00    +0.000 A 
ATOM      2  C   UNL     1      46.588   4.502  13.353  0.00  0.00    +0.000 A 
ATOM      3  C   UNL     1      45.675   3.824  12.544  0.00  0.00    +0.000 A 
ATOM      4  C   UNL     1      45.138   4.436  11.403  0.00  0.00    +0.000 A 
ATOM      5  C   UNL     1      45.627   5.691  11.021  0.00  0.00    +0.000 A 
ATOM      6  C   UNL     1      46.539   6.381  11.822  0.00  0.00    +0.000 A 
ENDROOT
BRANCH   1   7
ATOM      7  S   UNL     1      48.125   6.662  14.033  0.00  0.00    +0.000 S 
ATOM      8  O   UNL     1      48.458   5.829  15.170  0.00  0.00    +0.000 OA
ATOM      9  O   UNL     1      47.686   8.030  14.180  0.00  0.00    +0.000 OA
BRANCH   7  10
ATOM     10  N   UNL     1      49.504   6.740  13.076  0.00  0.00    +0.000 NA
ATOM     11  H   UNL     1      49.441   7.550  12.462  0.00  0.00    +0.000 HD
ATOM     12  H   UNL     1      49.630   5.854  12.584  0.00  0.00    +0.000 HD
ENDBRANCH   7  10
ENDBRANCH   1   7
BRANCH   4  13
ATOM     13  N   UNL     1      44.178   3.838  10.585  0.00  0.00    +0.000 N 
ATOM     14  H   UNL     1      43.243   3.925  10.979  0.00  0.00    +0.000 HD
BRANCH  13  15
ATOM     15  C   UNL     1      44.188   4.187   9.162  0.00  0.00    +0.000 C 
BRANCH  15  16
ATOM     16  C   UNL     1      45.229   3.370   8.426  0.00  0.00    +0.000 A 
ATOM     17  C   UNL     1      45.367   2.009   8.713  0.00  0.00    +0.000 A 
ATOM     18  C   UNL     1      46.350   1.277   8.057  0.00  0.00    +0.000 A 
ATOM     19  C   UNL     1      47.173   1.919   7.140  0.00  0.00    +0.000 A 
ATOM     20  C   UNL     1      46.974   3.271   6.916  0.00  0.00    +0.000 A 
ATOM     21  N   UNL     1      46.026   4.010   7.533  0.00  0.00    +0.000 NA
ENDBRANCH  15  16
ENDBRANCH  13  15
ENDBRANCH   4  13
TORSDOF 5
ENDMDL
MODEL 5
REMARK VINA RESULT:    -6.254      2.344      3.421
REMARK INTER + INTRA:          -8.281
REMARK INTER:                  -7.933
REMARK INTRA:                  -0.349
REMARK UNBOUND:                -0.382
REMARK  Name = 
REMARK  5 active torsions:
REMARK  status: ('A' for Active; 'I' for Inactive)
REMARK    1  A    between atoms: N_1  and  S_2
REMARK    2  A    between atoms: S_2  and  C_5
REMARK    3  A    between atoms: C_8  and  N_9
REMARK    4  A    between atoms: N_9  and  C_10
REMARK    5  A    between atoms: C_10  and  C_11
REMARK                            x       y       z     vdW  Elec       q    Type
REMARK                         _______ _______ _______ _____ _____    ______ ____
ROOT
ATOM      1  C   UNL     1      47.307   4.788  15.130  0.00  0.00    +0.000 A 
ATOM      2  C   UNL     1      46.452   4.006  14.353  0.00  0.00    +0.000 A 
ATOM      3  C   UNL     1      46.115   4.429  13.065  0.00  0.00    +0.000 A 
ATOM      4  C   UNL     1      46.592   5.647  12.564  0.00  0.00    +0.000 A 
ATOM      5  C   UNL     1      47.512   6.374  13.330  0.00  0.00    +0.000 A 
ATOM      6  C   UNL     1      47.856   5.964  14.619  0.00  0.00    +0.000 A 
ENDROOT
BRANCH   1   7
ATOM      7  S   UNL     1      47.707   4.280  16.770  0.00  0.00    +0.000 S 
ATOM      8  O   UNL     1      49.122   3.979  16.833  0.00  0.00    +0.000 OA
ATOM      9  O   UNL     1      46.700   3.366  17.255  0.00  0.00    +0.000 OA
BRANCH   7  10
ATOM     10  N   UNL     1      47.480   5.696  17.646  0.00  0.00    +0.000 NA
ATOM     11  H   UNL     1      47.905   5.592  18.566  0.00  0.00    +0.000 HD
ATOM     12  H   UNL     1      46.486   5.927  17.670  0.00  0.00    +0.000 HD
ENDBRANCH   7  10
ENDBRANCH   1   7
BRANCH   4  13
ATOM     13  N   UNL     1      46.247   6.155  11.311  0.00  0.00    +0.000 N 
ATOM     14  H   UNL     1      47.011   6.058  10.644  0.00  0.00    +0.000 HD
BRANCH  13  15
ATOM     15  C   UNL     1      44.976   5.716  10.729  0.00  0.00    +0.000 C 
BRANCH  15  16
ATOM     16  C   UNL     1      45.219   4.653   9.677  0.00  0.00    +0.000 A 
ATOM     17  C   UNL     1      44.657   3.384   9.836  0.00  0.00    +0.000 A 
ATOM     18  C   UNL     1      44.916   2.406   8.882  0.00  0.00    +0.000 A 
ATOM     19  C   UNL     1      45.731   2.715   7.801  0.00  0.00    +0.000 A 
ATOM     20  C   UNL     1      46.252   3.995   7.718  0.00  0.00    +0.000 A 
ATOM     21  N   UNL     1      46.017   4.969   8.626  0.00  0.00    +0.000 NA
ENDBRANCH  15  16
ENDBRANCH  13  15
ENDBRANCH   4  13
TORSDOF 5
ENDMDL
MODEL 6
REMARK VINA RESULT:    -6.112      4.378      7.273
REMARK INTER + INTRA:          -8.101
REMARK INTER:                  -7.749
REMARK INTRA:                  -0.352
REMARK UNBOUND:                -0.382
REMARK  Name = 
REMARK  5 active torsions:
REMARK  status: ('A' for Active; 'I' for Inactive)
REMARK    1  A    between atoms: N_1  and  S_2
REMARK    2  A    between atoms: S_2  and  C_5
REMARK    3  A    between atoms: C_8  and  N_9
REMARK    4  A    between atoms: N_9  and  C_10
REMARK    5  A    between atoms: C_10  and  C_11
REMARK                            x       y       z     vdW  Elec       q    Type
REMARK                         _______ _______ _______ _____ _____    ______ ____
ROOT
ATOM      1  C   UNL     1      45.390   4.698  11.613  0.00  0.00    +0.000 A 
ATOM      2  C   UNL     1      45.881   5.985  11.838  0.00  0.00    +0.000 A 
ATOM      3  C   UNL     1      46.632   6.241  12.987  0.00  0.00    +0.000 A 
ATOM      4  C   UNL     1      46.861   5.233  13.933  0.00  0.00    +0.000 A 
ATOM      5  C   UNL     1      46.429   3.932  13.645  0.00  0.00    +0.000 A 
ATOM      6  C   UNL     1      45.675   3.662  12.502  0.00  0.00    +0.000 A 
ENDROOT
BRANCH   1   7
ATOM      7  S   UNL     1      44.409   4.376  10.184  0.00  0.00    +0.000 S 
ATOM      8  O   UNL     1      43.165   5.108  10.297  0.00  0.00    +0.000 OA
ATOM      9  O   UNL     1      44.451   2.967   9.874  0.00  0.00    +0.000 OA
BRANCH   7  10
ATOM     10  N   UNL     1      45.296   5.124   8.969  0.00  0.00    +0.000 NA
ATOM     11  H   UNL     1      46.116   5.570   9.377  0.00  0.00    +0.000 HD
ATOM     12  H   UNL     1      44.692   5.762   8.448  0.00  0.00    +0.000 HD
ENDBRANCH   7  10
ENDBRANCH   1   7
BRANCH   4  13
ATOM     13  N   UNL     1      47.552   5.437  15.128  0.00  0.00    +0.000 N 
ATOM     14  H   UNL     1      47.440   6.391  15.467  0.00  0.00    +0.000 HD
BRANCH  13  15
ATOM     15  C   UNL     1      47.346   4.464  16.204  0.00  0.00    +0.000 C 
BRANCH  15  16
ATOM     16  C   UNL     1      48.673   3.898  16.664  0.00  0.00    +0.000 A 
ATOM     17  C   UNL     1      48.862   2.514  16.686  0.00  0.00    +0.000 A 
ATOM     18  C   UNL     1      50.072   2.005  17.145  0.00  0.00    +0.000 A 
ATOM     19  C   UNL     1      51.057   2.884  17.575  0.00  0.00    +0.000 A 
ATOM     20  C   UNL     1      50.789   4.242  17.525  0.00  0.00    +0.000 A 
ATOM     21  N   UNL     1      49.626   4.770  17.082  0.00  0.00    +0.000 NA
ENDBRANCH  15  16
ENDBRANCH  13  15
ENDBRANCH   4  13
TORSDOF 5
ENDMDL
MODEL 7
REMARK VINA RESULT:    -6.038      1.676      2.235
REMARK INTER + INTRA:          -8.008
REMARK INTER:                  -7.690
REMARK INTRA:                  -0.317
REMARK UNBOUND:                -0.382
REMARK  Name = 
REMARK  5 active torsions:
REMARK  status: ('A' for Active; 'I' for Inactive)
REMARK    1  A    between atoms: N_1  and  S_2
REMARK    2  A    between atoms: S_2  and  C_5
REMARK    3  A    between atoms: C_8  and  N_9
REMARK    4  A    between atoms: N_9  and  C_10
REMARK    5  A    between atoms: C_10  and  C_11
REMARK                            x       y       z     vdW  Elec       q    Type
REMARK                         _______ _______ _______ _____ _____    ______ ____
ROOT
ATOM      1  C   UNL     1      47.469   6.942  13.485  0.00  0.00    +0.000 A 
ATOM      2  C   UNL     1      46.888   7.967  12.737  0.00  0.00    +0.000 A 
ATOM      3  C   UNL     1      45.921   7.654  11.780  0.00  0.00    +0.000 A 
ATOM      4  C   UNL     1      45.560   6.322  11.535  0.00  0.00    +0.000 A 
ATOM      5  C   UNL     1      46.096   5.320  12.354  0.00  0.00    +0.000 A 
ATOM      6  C   UNL     1      47.065   5.619  13.313  0.00  0.00    +0.000 A 
ENDROOT
BRANCH   1   7
ATOM      7  S   UNL     1      48.717   7.326  14.669  0.00  0.00    +0.000 S 
ATOM      8  O   UNL     1      48.232   8.383  15.533  0.00  0.00    +0.000 OA
ATOM      9  O   UNL     1      50.003   7.391  14.016  0.00  0.00    +0.000 OA
BRANCH   7  10
ATOM     10  N   UNL     1      48.763   5.930  15.602  0.00  0.00    +0.000 NA
ATOM     11  H   UNL     1      49.647   5.893  16.108  0.00  0.00    +0.000 HD
ATOM     12  H   UNL     1      48.589   5.116  15.011  0.00  0.00    +0.000 HD
ENDBRANCH   7  10
ENDBRANCH   1   7
BRANCH   4  13
ATOM     13  N   UNL     1      44.645   5.937  10.554  0.00  0.00    +0.000 N 
ATOM     14  H   UNL     1      44.920   6.273   9.633  0.00  0.00    +0.000 HD
BRANCH  13  15
ATOM     15  C   UNL     1      44.256   4.525  10.508  0.00  0.00    +0.000 C 
BRANCH  15  16
ATOM     16  C   UNL     1      45.016   3.805   9.413  0.00  0.00    +0.000 A 
ATOM     17  C   UNL     1      45.118   2.412   9.444  0.00  0.00    +0.000 A 
ATOM     18  C   UNL     1      45.848   1.765   8.454  0.00  0.00    +0.000 A 
ATOM     19  C   UNL     1      46.462   2.521   7.463  0.00  0.00    +0.000 A 
ATOM     20  C   UNL     1      46.317   3.898   7.506  0.00  0.00    +0.000 A 
ATOM     21  N   UNL     1      45.611   4.556   8.452  0.00  0.00    +0.000 NA
ENDBRANCH  15  16
ENDBRANCH  13  15
ENDBRANCH   4  13
TORSDOF 5
ENDMDL
MODEL 8
REMARK VINA RESULT:    -5.958      4.527      7.255
REMARK INTER + INTRA:          -7.907
REMARK INTER:                  -7.589
REMARK INTRA:                  -0.318
REMARK UNBOUND:                -0.382
REMARK  Name = 
REMARK  5 active torsions:
REMARK  status: ('A' for Active; 'I' for Inactive)
REMARK    1  A    between atoms: N_1  and  S_2
REMARK    2  A    between atoms: S_2  and  C_5
REMARK    3  A    between atoms: C_8  and  N_9
REMARK    4  A    between atoms: N_9  and  C_10
REMARK    5  A    between atoms: C_10  and  C_11
REMARK                            x       y       z     vdW  Elec       q    Type
REMARK                         _______ _______ _______ _____ _____    ______ ____
ROOT
ATOM      1  C   UNL     1      45.201   4.530  11.643  0.00  0.00    +0.000 A 
ATOM      2  C   UNL     1      45.647   3.395  12.321  0.00  0.00    +0.000 A 
ATOM      3  C   UNL     1      46.353   3.542  13.517  0.00  0.00    +0.000 A 
ATOM      4  C   UNL     1      46.654   4.816  14.018  0.00  0.00    +0.000 A 
ATOM      5  C   UNL     1      46.127   5.937  13.364  0.00  0.00    +0.000 A 
ATOM      6  C   UNL     1      45.421   5.804  12.167  0.00  0.00    +0.000 A 
ENDROOT
BRANCH   1   7
ATOM      7  S   UNL     1      44.342   4.353  10.115  0.00  0.00    +0.000 S 
ATOM      8  O   UNL     1      43.129   5.143  10.167  0.00  0.00    +0.000 OA
ATOM      9  O   UNL     1      44.344   2.966   9.713  0.00  0.00    +0.000 OA
BRANCH   7  10
ATOM     10  N   UNL     1      45.371   5.128   9.036  0.00  0.00    +0.000 NA
ATOM     11  H   UNL     1      45.517   6.088   9.344  0.00  0.00    +0.000 HD
ATOM     12  H   UNL     1      44.999   5.047   8.089  0.00  0.00    +0.000 HD
ENDBRANCH   7  10
ENDBRANCH   1   7
BRANCH   4  13
ATOM     13  N   UNL     1      47.406   5.033  15.174  0.00  0.00    +0.000 N 
ATOM     14  H   UNL     1      47.334   5.999  15.490  0.00  0.00    +0.000 HD
BRANCH  13  15
ATOM     15  C   UNL     1      47.224   4.097  16.286  0.00  0.00    +0.000 C 
BRANCH  15  16
ATOM     16  C   UNL     1      48.559   3.528  16.719  0.00  0.00    +0.000 A 
ATOM     17  C   UNL     1      49.402   4.288  17.534  0.00  0.00    +0.000 A 
ATOM     18  C   UNL     1      50.640   3.771  17.896  0.00  0.00    +0.000 A 
ATOM     19  C   UNL     1      51.010   2.515  17.431  0.00  0.00    +0.000 A 
ATOM     20  C   UNL     1      50.120   1.828  16.623  0.00  0.00    +0.000 A 
ATOM     21  N   UNL     1      48.908   2.301  16.257  0.00  0.00    +0.000 NA
ENDBRANCH  15  16
ENDBRANCH  13  15
ENDBRANCH   4  13
TORSDOF 5
ENDMDL
MODEL 9
REMARK VINA RESULT:    -5.708      4.047      7.580
REMARK INTER + INTRA:          -7.591
REMARK INTER:                  -7.255
REMARK INTRA:                  -0.336
REMARK UNBOUND:                -0.382
REMARK  Name = 
REMARK  5 active torsions:
REMARK  status: ('A' for Active; 'I' for Inactive)
REMARK    1  A    between atoms: N_1  and  S_2
REMARK    2  A    between atoms: S_2  and  C_5
REMARK    3  A    between atoms: C_8  and  N_9
REMARK    4  A    between atoms: N_9  and  C_10
REMARK    5  A    between atoms: C_10  and  C_11
REMARK                            x       y       z     vdW  Elec       q    Type
REMARK                         _______ _______ _______ _____ _____    ______ ____
ROOT
ATOM      1  C   UNL     1      45.121   4.594  11.518  0.00  0.00    +0.000 A 
ATOM      2  C   UNL     1      45.596   4.136  12.748  0.00  0.00    +0.000 A 
ATOM      3  C   UNL     1      46.308   5.007  13.575  0.00  0.00    +0.000 A 
ATOM      4  C   UNL     1      46.586   6.318  13.165  0.00  0.00    +0.000 A 
ATOM      5  C   UNL     1      46.030   6.778  11.965  0.00  0.00    +0.000 A 
ATOM      6  C   UNL     1      45.318   5.918  11.127  0.00  0.00    +0.000 A 
ENDROOT
BRANCH   1   7
ATOM      7  S   UNL     1      44.253   3.490  10.452  0.00  0.00    +0.000 S 
ATOM      8  O   UNL     1      43.056   3.034  11.127  0.00  0.00    +0.000 OA
ATOM      9  O   UNL     1      45.186   2.578   9.833  0.00  0.00    +0.000 OA
BRANCH   7  10
ATOM     10  N   UNL     1      43.747   4.512   9.218  0.00  0.00    +0.000 NA
ATOM     11  H   UNL     1      44.527   4.687   8.587  0.00  0.00    +0.000 HD
ATOM     12  H   UNL     1      43.340   5.358   9.620  0.00  0.00    +0.000 HD
ENDBRANCH   7  10
ENDBRANCH   1   7
BRANCH   4  13
ATOM     13  N   UNL     1      47.342   7.218  13.917  0.00  0.00    +0.000 N 
ATOM     14  H   UNL     1      46.828   7.551  14.731  0.00  0.00    +0.000 HD
BRANCH  13  15
ATOM     15  C   UNL     1      48.706   6.822  14.277  0.00  0.00    +0.000 C 
BRANCH  15  16
ATOM     16  C   UNL     1      48.796   6.533  15.761  0.00  0.00    +0.000 A 
ATOM     17  C   UNL     1      48.841   7.594  16.670  0.00  0.00    +0.000 A 
ATOM     18  C   UNL     1      48.960   7.317  18.027  0.00  0.00    +0.000 A 
ATOM     19  C   UNL     1      49.039   5.994  18.443  0.00  0.00    +0.000 A 
ATOM     20  C   UNL     1      48.992   5.001  17.478  0.00  0.00    +0.000 A 
ATOM     21  N   UNL     1      48.873   5.236  16.153  0.00  0.00    +0.000 NA
ENDBRANCH  15  16
ENDBRANCH  13  15
ENDBRANCH   4  13
TORSDOF 5
ENDMDL
