MODEL 1
REMARK VINA RESULT:    -8.291      0.000      0.000
REMARK INTER + INTRA:         -10.542
REMARK INTER:                 -10.229
REMARK INTRA:                  -0.313
REMARK UNBOUND:                -0.313
REMARK  Name = 
REMARK  5 active torsions:
REMARK  status: ('A' for Active; 'I' for Inactive)
REMARK    1  A    between atoms: N_1  and  C_2
REMARK    2  A    between atoms: C_2  and  C_3
REMARK    3  A    between atoms: C_6  and  C_7
REMARK    4  A    between atoms: C_7  and  N_8
REMARK    5  A    between atoms: C_14  and  O_15
REMARK                            x       y       z     vdW  Elec       q    Type
REMARK                         _______ _______ _______ _____ _____    ______ ____
ROOT
ATOM      1  C   UNL     1      44.045   2.802  10.302  0.00  0.00    +0.000 C 
ENDROOT
BRANCH   1   2
ATOM      2  N   UNL     1      44.114   4.021  11.108  0.00  0.00    +0.000 N 
ATOM      3  C   UNL     1      43.507   5.206  10.754  0.00  0.00    +0.000 A 
ATOM      4  C   UNL     1      43.851   6.157  11.684  0.00  0.00    +0.000 A 
ATOM      5  C   UNL     1      44.956   5.636  12.398  0.00  0.00    +0.000 A 
ATOM      6  C   UNL     1      45.937   6.223  13.221  0.00  0.00    +0.000 A 
ATOM      7  C   UNL     1      46.916   5.417  13.804  0.00  0.00    +0.000 A 
ATOM      8  C   UNL     1      46.852   4.037  13.651  0.00  0.00    +0.000 A 
ATOM      9  C   UNL     1      45.900   3.424  12.833  0.00  0.00    +0.000 A 
ATOM     10  C   UNL     1      45.008   4.261  12.141  0.00  0.00    +0.000 A 
BRANCH   8  11
ATOM     11  O   UNL     1      47.756   3.227  14.280  0.00  0.00    +0.000 OA
ATOM     12  H   UNL     1      48.010   2.520  13.665  0.00  0.00    +0.000 HD
ENDBRANCH   8  11
ENDBRANCH   1   2
BRANCH   1  16
ATOM     13  C   UNL     1      46.634   2.743   6.818  0.00  0.00    +0.000 A 
ATOM     14  C   UNL     1      46.421   1.583   7.567  0.00  0.00    +0.000 A 
ATOM     15  C   UNL     1      45.610   1.602   8.704  0.00  0.00    +0.000 A 
ATOM     16  C   UNL     1      44.984   2.788   9.123  0.00  0.00    +0.000 A 
ATOM     17  C   UNL     1      45.218   3.954   8.385  0.00  0.00    +0.000 A 
ATOM     18  C   UNL     1      46.026   3.930   7.243  0.00  0.00    +0.000 A 
BRANCH  13  19
ATOM     19  C   UNL     1      47.511   2.720   5.583  0.00  0.00    +0.000 C 
BRANCH  19  20
ATOM     20  N   UNL     1      48.568   1.727   5.671  0.00  0.00    +0.000 NA
ATOM     21  H   UNL     1      48.164   0.811   5.509  0.00  0.00    +0.000 HD
ATOM     22  H   UNL     1      48.936   1.721   6.620  0.00  0.00    +0.000 HD
ENDBRANCH  19  20
ENDBRANCH  13  19
ENDBRANCH   1  16
TORSDOF 5
ENDMDL
MODEL 2
REMARK VINA RESULT:    -7.135      2.416      3.359
REMARK INTER + INTRA:          -9.116
REMARK INTER:                  -8.573
REMARK INTRA:                  -0.544
REMARK UNBOUND:                -0.313
REMARK  Name = 
REMARK  5 active torsions:
REMARK  status: ('A' for Active; 'I' for Inactive)
REMARK    1  A    between atoms: N_1  and  C_2
REMARK    2  A    between atoms: C_2  and  C_3
REMARK    3  A    between atoms: C_6  and  C_7
REMARK    4  A    between atoms: C_7  and  N_8
REMARK    5  A    between atoms: C_14  and  O_15
REMARK                            x       y       z     vdW  Elec       q    Type
REMARK                         _______ _______ _______ _____ _____    ______ ____
ROOT
ATOM      1  C   UNL     1      44.323   4.399  10.783  0.00  0.00    +0.000 C 
ENDROOT
BRANCH   1   2
ATOM      2  N   UNL     1      45.209   5.219  11.610  0.00  0.00    +0.000 N 
ATOM      3  C   UNL     1      45.943   4.723  12.665  0.00  0.00    +0.000 A 
ATOM      4  C   UNL     1      46.586   5.775  13.270  0.00  0.00    +0.000 A 
ATOM      5  C   UNL     1      45.955   6.952  12.800  0.00  0.00    +0.000 A 
ATOM      6  C   UNL     1      45.927   8.282  13.264  0.00  0.00    +0.000 A 
ATOM      7  C   UNL     1      45.201   9.241  12.554  0.00  0.00    +0.000 A 
ATOM      8  C   UNL     1      44.602   8.897  11.348  0.00  0.00    +0.000 A 
ATOM      9  C   UNL     1      44.602   7.586  10.867  0.00  0.00    +0.000 A 
ATOM     10  C   UNL     1      45.217   6.605  11.663  0.00  0.00    +0.000 A 
BRANCH   8  11
ATOM     11  O   UNL     1      43.955   9.841  10.601  0.00  0.00    +0.000 OA
ATOM     12  H   UNL     1      43.095   9.478  10.331  0.00  0.00    +0.000 HD
ENDBRANCH   8  11
ENDBRANCH   1   2
BRANCH   1  16
ATOM     13  C   UNL     1      46.416   2.483   7.497  0.00  0.00    +0.000 A 
ATOM     14  C   UNL     1      46.350   3.876   7.584  0.00  0.00    +0.000 A 
ATOM     15  C   UNL     1      45.656   4.498   8.625  0.00  0.00    +0.000 A 
ATOM     16  C   UNL     1      45.008   3.739   9.613  0.00  0.00    +0.000 A 
ATOM     17  C   UNL     1      45.055   2.343   9.511  0.00  0.00    +0.000 A 
ATOM     18  C   UNL     1      45.757   1.724   8.471  0.00  0.00    +0.000 A 
BRANCH  13  19
ATOM     19  C   UNL     1      47.172   1.809   6.371  0.00  0.00    +0.000 C 
BRANCH  19  20
ATOM     20  N   UNL     1      48.451   2.445   6.102  0.00  0.00    +0.000 NA
ATOM     21  H   UNL     1      48.309   3.180   5.418  0.00  0.00    +0.000 HD
ATOM     22  H   UNL     1      49.074   1.763   5.674  0.00  0.00    +0.000 HD
ENDBRANCH  19  20
ENDBRANCH  13  19
ENDBRANCH   1  16
TORSDOF 5
ENDMDL
MODEL 3
REMARK VINA RESULT:    -6.972      2.733      6.132
REMARK INTER + INTRA:          -8.915
REMARK INTER:                  -8.393
REMARK INTRA:                  -0.522
REMARK UNBOUND:                -0.313
REMARK  Name = 
REMARK  5 active torsions:
REMARK  status: ('A' for Active; 'I' for Inactive)
REMARK    1  A    between atoms: N_1  and  C_2
REMARK    2  A    between atoms: C_2  and  C_3
REMARK    3  A    between atoms: C_6  and  C_7
REMARK    4  A    between atoms: C_7  and  N_8
REMARK    5  A    between atoms: C_14  and  O_15
REMARK                            x       y       z     vdW  Elec       q    Type
REMARK                         _______ _______ _______ _____ _____    ______ ____
ROOT
ATOM      1  C   UNL     1      44.298   6.045  11.445  0.00  0.00    +0.000 C 
ENDROOT
BRANCH   1   2
ATOM      2  N   UNL     1      44.090   4.682  10.958  0.00  0.00    +0.000 N 
ATOM      3  C   UNL     1      43.531   3.677  11.716  0.00  0.00    +0.000 A 
ATOM      4  C   UNL     1      43.571   2.516  10.983  0.00  0.00    +0.000 A 
ATOM      5  C   UNL     1      44.482   2.744   9.924  0.00  0.00    +0.000 A 
ATOM      6  C   UNL     1      45.183   1.886   9.053  0.00  0.00    +0.000 A 
ATOM      7  C   UNL     1      46.021   2.433   8.080  0.00  0.00    +0.000 A 
ATOM      8  C   UNL     1      46.075   3.812   7.913  0.00  0.00    +0.000 A 
ATOM      9  C   UNL     1      45.401   4.689   8.765  0.00  0.00    +0.000 A 
ATOM     10  C   UNL     1      44.673   4.127   9.828  0.00  0.00    +0.000 A 
BRANCH   8  11
ATOM     11  O   UNL     1      46.828   4.360   6.913  0.00  0.00    +0.000 OA
ATOM     12  H   UNL     1      47.704   3.940   6.927  0.00  0.00    +0.000 HD
ENDBRANCH   8  11
ENDBRANCH   1   2
BRANCH   1  16
ATOM     13  C   UNL     1      48.044   6.749  13.523  0.00  0.00    +0.000 A 
ATOM     14  C   UNL     1      47.691   7.517  12.410  0.00  0.00    +0.000 A 
ATOM     15  C   UNL     1      46.499   7.279  11.722  0.00  0.00    +0.000 A 
ATOM     16  C   UNL     1      45.622   6.260  12.132  0.00  0.00    +0.000 A 
ATOM     17  C   UNL     1      45.990   5.475  13.231  0.00  0.00    +0.000 A 
ATOM     18  C   UNL     1      47.181   5.722  13.922  0.00  0.00    +0.000 A 
BRANCH  13  19
ATOM     19  C   UNL     1      49.335   7.011  14.270  0.00  0.00    +0.000 C 
BRANCH  19  20
ATOM     20  N   UNL     1      49.436   6.233  15.494  0.00  0.00    +0.000 NA
ATOM     21  H   UNL     1      48.929   6.717  16.226  0.00  0.00    +0.000 HD
ATOM     22  H   UNL     1      50.411   6.202  15.784  0.00  0.00    +0.000 HD
ENDBRANCH  19  20
ENDBRANCH  13  19
ENDBRANCH   1  16
TORSDOF 5
ENDMDL
MODEL 4
REMARK VINA RESULT:    -6.451      1.425      2.102
REMARK INTER + INTRA:          -8.273
REMARK INTER:                  -7.972
REMARK INTRA:                  -0.301
REMARK UNBOUND:                -0.313
REMARK  Name = 
REMARK  5 active torsions:
REMARK  status: ('A' for Active; 'I' for Inactive)
REMARK    1  A    between atoms: N_1  and  C_2
REMARK    2  A    between atoms: C_2  and  C_3
REMARK    3  A    between atoms: C_6  and  C_7
REMARK    4  A    between atoms: C_7  and  N_8
REMARK    5  A    between atoms: C_14  and  O_15
REMARK                            x       y       z     vdW  Elec       q    Type
REMARK                         _______ _______ _______ _____ _____    ______ ____
ROOT
ATOM      1  C   UNL     1      43.940   4.355  11.359  0.00  0.00    +0.000 C 
ENDROOT
BRANCH   1   2
ATOM      2  N   UNL     1      44.250   5.747  11.686  0.00  0.00    +0.000 N 
ATOM      3  C   UNL     1      43.688   6.826  11.039  0.00  0.00    +0.000 A 
ATOM      4  C   UNL     1      44.268   7.969  11.534  0.00  0.00    +0.000 A 
ATOM      5  C   UNL     1      45.435   7.560  12.222  0.00  0.00    +0.000 A 
ATOM      6  C   UNL     1      46.590   8.242  12.653  0.00  0.00    +0.000 A 
ATOM      7  C   UNL     1      47.587   7.540  13.334  0.00  0.00    +0.000 A 
ATOM      8  C   UNL     1      47.384   6.207  13.668  0.00  0.00    +0.000 A 
ATOM      9  C   UNL     1      46.256   5.499  13.246  0.00  0.00    +0.000 A 
ATOM     10  C   UNL     1      45.328   6.182  12.442  0.00  0.00    +0.000 A 
BRANCH   8  11
ATOM     11  O   UNL     1      48.315   5.527  14.403  0.00  0.00    +0.000 OA
ATOM     12  H   UNL     1      48.475   4.671  13.973  0.00  0.00    +0.000 HD
ENDBRANCH   8  11
ENDBRANCH   1   2
BRANCH   1  16
ATOM     13  C   UNL     1      46.076   2.848   7.893  0.00  0.00    +0.000 A 
ATOM     14  C   UNL     1      46.012   4.220   8.149  0.00  0.00    +0.000 A 
ATOM     15  C   UNL     1      45.305   4.713   9.249  0.00  0.00    +0.000 A 
ATOM     16  C   UNL     1      44.640   3.841  10.127  0.00  0.00    +0.000 A 
ATOM     17  C   UNL     1      44.684   2.468   9.854  0.00  0.00    +0.000 A 
ATOM     18  C   UNL     1      45.400   1.978   8.757  0.00  0.00    +0.000 A 
BRANCH  13  19
ATOM     19  C   UNL     1      46.847   2.315   6.703  0.00  0.00    +0.000 C 
BRANCH  19  20
ATOM     20  N   UNL     1      47.387   0.986   6.941  0.00  0.00    +0.000 NA
ATOM     21  H   UNL     1      48.309   1.083   7.354  0.00  0.00    +0.000 HD
ATOM     22  H   UNL     1      47.514   0.517   6.047  0.00  0.00    +0.000 HD
ENDBRANCH  19  20
ENDBRANCH  13  19
ENDBRANCH   1  16
TORSDOF 5
ENDMDL
MODEL 5
REMARK VINA RESULT:    -6.114      4.495      7.789
REMARK INTER + INTRA:          -7.857
REMARK INTER:                  -7.316
REMARK INTRA:                  -0.541
REMARK UNBOUND:                -0.313
REMARK  Name = 
REMARK  5 active torsions:
REMARK  status: ('A' for Active; 'I' for Inactive)
REMARK    1  A    between atoms: N_1  and  C_2
REMARK    2  A    between atoms: C_2  and  C_3
REMARK    3  A    between atoms: C_6  and  C_7
REMARK    4  A    between atoms: C_7  and  N_8
REMARK    5  A    between atoms: C_14  and  O_15
REMARK                            x       y       z     vdW  Elec       q    Type
REMARK                         _______ _______ _______ _____ _____    ______ ____
ROOT
ATOM      1  C   UNL     1      47.720   5.096  16.464  0.00  0.00    +0.000 C 
ENDROOT
BRANCH   1   2
ATOM      2  N   UNL     1      47.808   5.602  15.094  0.00  0.00    +0.000 N 
ATOM      3  C   UNL     1      48.369   6.816  14.764  0.00  0.00    +0.000 A 
ATOM      4  C   UNL     1      48.202   7.011  13.414  0.00  0.00    +0.000 A 
ATOM      5  C   UNL     1      47.222   6.080  12.995  0.00  0.00    +0.000 A 
ATOM      6  C   UNL     1      46.403   5.990  11.852  0.00  0.00    +0.000 A 
ATOM      7  C   UNL     1      45.521   4.916  11.723  0.00  0.00    +0.000 A 
ATOM      8  C   UNL     1      45.533   3.897  12.669  0.00  0.00    +0.000 A 
ATOM      9  C   UNL     1      46.324   3.961  13.818  0.00  0.00    +0.000 A 
ATOM     10  C   UNL     1      47.103   5.116  14.003  0.00  0.00    +0.000 A 
BRANCH   8  11
ATOM     11  O   UNL     1      44.733   2.799  12.516  0.00  0.00    +0.000 OA
ATOM     12  H   UNL     1      45.074   2.093  13.089  0.00  0.00    +0.000 HD
ENDBRANCH   8  11
ENDBRANCH   1   2
BRANCH   1  16
ATOM     13  C   UNL     1      51.000   2.423  17.437  0.00  0.00    +0.000 A 
ATOM     14  C   UNL     1      49.791   1.919  16.951  0.00  0.00    +0.000 A 
ATOM     15  C   UNL     1      48.723   2.772  16.660  0.00  0.00    +0.000 A 
ATOM     16  C   UNL     1      48.838   4.159  16.848  0.00  0.00    +0.000 A 
ATOM     17  C   UNL     1      50.042   4.659  17.358  0.00  0.00    +0.000 A 
ATOM     18  C   UNL     1      51.111   3.803  17.641  0.00  0.00    +0.000 A 
BRANCH  13  19
ATOM     19  C   UNL     1      52.158   1.497  17.748  0.00  0.00    +0.000 C 
BRANCH  19  20
ATOM     20  N   UNL     1      51.718   0.170  18.144  0.00  0.00    +0.000 NA
ATOM     21  H   UNL     1      52.415  -0.503  17.846  0.00  0.00    +0.000 HD
ATOM     22  H   UNL     1      50.860  -0.055  17.644  0.00  0.00    +0.000 HD
ENDBRANCH  19  20
ENDBRANCH  13  19
ENDBRANCH   1  16
TORSDOF 5
ENDMDL
MODEL 6
REMARK VINA RESULT:    -5.792      4.386      6.265
REMARK INTER + INTRA:          -7.459
REMARK INTER:                  -7.093
REMARK INTRA:                  -0.367
REMARK UNBOUND:                -0.313
REMARK  Name = 
REMARK  5 active torsions:
REMARK  status: ('A' for Active; 'I' for Inactive)
REMARK    1  A    between atoms: N_1  and  C_2
REMARK    2  A    between atoms: C_2  and  C_3
REMARK    3  A    between atoms: C_6  and  C_7
REMARK    4  A    between atoms: C_7  and  N_8
REMARK    5  A    between atoms: C_14  and  O_15
REMARK                            x       y       z     vdW  Elec       q    Type
REMARK                         _______ _______ _______ _____ _____    ______ ____
ROOT
ATOM      1  C   UNL     1      48.160   5.777  13.525  0.00  0.00    +0.000 C 
ENDROOT
BRANCH   1   2
ATOM      2  N   UNL     1      48.378   6.243  14.895  0.00  0.00    +0.000 N 
ATOM      3  C   UNL     1      49.208   7.293  15.221  0.00  0.00    +0.000 A 
ATOM      4  C   UNL     1      49.246   7.398  16.591  0.00  0.00    +0.000 A 
ATOM      5  C   UNL     1      48.724   6.184  17.098  0.00  0.00    +0.000 A 
ATOM      6  C   UNL     1      48.791   5.557  18.358  0.00  0.00    +0.000 A 
ATOM      7  C   UNL     1      48.145   4.335  18.552  0.00  0.00    +0.000 A 
ATOM      8  C   UNL     1      47.359   3.803  17.536  0.00  0.00    +0.000 A 
ATOM      9  C   UNL     1      47.280   4.394  16.273  0.00  0.00    +0.000 A 
ATOM     10  C   UNL     1      48.049   5.549  16.050  0.00  0.00    +0.000 A 
BRANCH   8  11
ATOM     11  O   UNL     1      46.656   2.648  17.736  0.00  0.00    +0.000 OA
ATOM     12  H   UNL     1      46.304   2.355  16.879  0.00  0.00    +0.000 HD
ENDBRANCH   8  11
ENDBRANCH   1   2
BRANCH   1  16
ATOM     13  C   UNL     1      44.020   5.347  12.292  0.00  0.00    +0.000 A 
ATOM     14  C   UNL     1      44.604   6.612  12.397  0.00  0.00    +0.000 A 
ATOM     15  C   UNL     1      45.928   6.759  12.818  0.00  0.00    +0.000 A 
ATOM     16  C   UNL     1      46.708   5.636  13.145  0.00  0.00    +0.000 A 
ATOM     17  C   UNL     1      46.113   4.372  13.063  0.00  0.00    +0.000 A 
ATOM     18  C   UNL     1      44.789   4.229  12.634  0.00  0.00    +0.000 A 
BRANCH  13  19
ATOM     19  C   UNL     1      42.586   5.190  11.831  0.00  0.00    +0.000 C 
BRANCH  19  20
ATOM     20  N   UNL     1      41.873   6.456  11.792  0.00  0.00    +0.000 NA
ATOM     21  H   UNL     1      41.636   6.662  10.828  0.00  0.00    +0.000 HD
ATOM     22  H   UNL     1      42.498   7.195  12.105  0.00  0.00    +0.000 HD
ENDBRANCH  19  20
ENDBRANCH  13  19
ENDBRANCH   1  16
TORSDOF 5
ENDMDL
MODEL 7
REMARK VINA RESULT:    -5.715      3.631      6.975
REMARK INTER + INTRA:          -7.365
REMARK INTER:                  -6.873
REMARK INTRA:                  -0.493
REMARK UNBOUND:                -0.313
REMARK  Name = 
REMARK  5 active torsions:
REMARK  status: ('A' for Active; 'I' for Inactive)
REMARK    1  A    between atoms: N_1  and  C_2
REMARK    2  A    between atoms: C_2  and  C_3
REMARK    3  A    between atoms: C_6  and  C_7
REMARK    4  A    between atoms: C_7  and  N_8
REMARK    5  A    between atoms: C_14  and  O_15
REMARK                            x       y       z     vdW  Elec       q    Type
REMARK                         _______ _______ _______ _____ _____    ______ ____
ROOT
ATOM      1  C   UNL     1      47.767   6.284  12.461  0.00  0.00    +0.000 C 
ENDROOT
BRANCH   1   2
ATOM      2  N   UNL     1      46.435   6.685  12.009  0.00  0.00    +0.000 N 
ATOM      3  C   UNL     1      45.893   7.930  12.241  0.00  0.00    +0.000 A 
ATOM      4  C   UNL     1      44.605   7.931  11.763  0.00  0.00    +0.000 A 
ATOM      5  C   UNL     1      44.251   6.575  11.567  0.00  0.00    +0.000 A 
ATOM      6  C   UNL     1      43.017   5.913  11.413  0.00  0.00    +0.000 A 
ATOM      7  C   UNL     1      42.999   4.530  11.222  0.00  0.00    +0.000 A 
ATOM      8  C   UNL     1      44.197   3.839  11.082  0.00  0.00    +0.000 A 
ATOM      9  C   UNL     1      45.437   4.463  11.240  0.00  0.00    +0.000 A 
ATOM     10  C   UNL     1      45.435   5.829  11.572  0.00  0.00    +0.000 A 
BRANCH   8  11
ATOM     11  O   UNL     1      44.198   2.498  10.815  0.00  0.00    +0.000 OA
ATOM     12  H   UNL     1      43.368   2.121  11.152  0.00  0.00    +0.000 HD
ENDBRANCH   8  11
ENDBRANCH   1   2
BRANCH   1  16
ATOM     13  C   UNL     1      47.813   5.142  16.649  0.00  0.00    +0.000 A 
ATOM     14  C   UNL     1      48.535   6.253  16.206  0.00  0.00    +0.000 A 
ATOM     15  C   UNL     1      48.545   6.611  14.855  0.00  0.00    +0.000 A 
ATOM     16  C   UNL     1      47.827   5.862  13.907  0.00  0.00    +0.000 A 
ATOM     17  C   UNL     1      47.124   4.735  14.350  0.00  0.00    +0.000 A 
ATOM     18  C   UNL     1      47.111   4.385  15.704  0.00  0.00    +0.000 A 
BRANCH  13  19
ATOM     19  C   UNL     1      47.800   4.758  18.114  0.00  0.00    +0.000 C 
BRANCH  19  20
ATOM     20  N   UNL     1      46.589   5.191  18.791  0.00  0.00    +0.000 NA
ATOM     21  H   UNL     1      46.759   6.101  19.206  0.00  0.00    +0.000 HD
ATOM     22  H   UNL     1      46.394   4.552  19.559  0.00  0.00    +0.000 HD
ENDBRANCH  19  20
ENDBRANCH  13  19
ENDBRANCH   1  16
TORSDOF 5
ENDMDL
MODEL 8
REMARK VINA RESULT:    -5.672      3.969      6.232
REMARK INTER + INTRA:          -7.311
REMARK INTER:                  -6.948
REMARK INTRA:                  -0.363
REMARK UNBOUND:                -0.313
REMARK  Name = 
REMARK  5 active torsions:
REMARK  status: ('A' for Active; 'I' for Inactive)
REMARK    1  A    between atoms: N_1  and  C_2
REMARK    2  A    between atoms: C_2  and  C_3
REMARK    3  A    between atoms: C_6  and  C_7
REMARK    4  A    between atoms: C_7  and  N_8
REMARK    5  A    between atoms: C_14  and  O_15
REMARK                            x       y       z     vdW  Elec       q    Type
REMARK                         _______ _______ _______ _____ _____    ______ ____
ROOT
ATOM      1  C   UNL     1      47.660   6.606  13.442  0.00  0.00    +0.000 C 
ENDROOT
BRANCH   1   2
ATOM      2  N   UNL     1      48.342   7.524  12.530  0.00  0.00    +0.000 N 
ATOM      3  C   UNL     1      49.671   7.410  12.185  0.00  0.00    +0.000 A 
ATOM      4  C   UNL     1      50.000   8.482  11.391  0.00  0.00    +0.000 A 
ATOM      5  C   UNL     1      48.963   9.431  11.553  0.00  0.00    +0.000 A 
ATOM      6  C   UNL     1      48.867  10.810  11.281  0.00  0.00    +0.000 A 
ATOM      7  C   UNL     1      47.672  11.481  11.550  0.00  0.00    +0.000 A 
ATOM      8  C   UNL     1      46.563  10.765  11.984  0.00  0.00    +0.000 A 
ATOM      9  C   UNL     1      46.628   9.400  12.273  0.00  0.00    +0.000 A 
ATOM     10  C   UNL     1      47.875   8.767  12.131  0.00  0.00    +0.000 A 
BRANCH   8  11
ATOM     11  O   UNL     1      45.364  11.392  12.176  0.00  0.00    +0.000 OA
ATOM     12  H   UNL     1      45.530  12.345  12.261  0.00  0.00    +0.000 HD
ENDBRANCH   8  11
ENDBRANCH   1   2
BRANCH   1  16
ATOM     13  C   UNL     1      44.488   4.276  11.609  0.00  0.00    +0.000 A 
ATOM     14  C   UNL     1      45.262   5.153  10.843  0.00  0.00    +0.000 A 
ATOM     15  C   UNL     1      46.267   5.924  11.432  0.00  0.00    +0.000 A 
ATOM     16  C   UNL     1      46.528   5.837  12.810  0.00  0.00    +0.000 A 
ATOM     17  C   UNL     1      45.734   4.977  13.579  0.00  0.00    +0.000 A 
ATOM     18  C   UNL     1      44.734   4.201  12.984  0.00  0.00    +0.000 A 
BRANCH  13  19
ATOM     19  C   UNL     1      43.402   3.438  10.968  0.00  0.00    +0.000 C 
BRANCH  19  20
ATOM     20  N   UNL     1      43.089   2.248  11.742  0.00  0.00    +0.000 NA
ATOM     21  H   UNL     1      43.853   1.588  11.641  0.00  0.00    +0.000 HD
ATOM     22  H   UNL     1      42.264   1.804  11.345  0.00  0.00    +0.000 HD
ENDBRANCH  19  20
ENDBRANCH  13  19
ENDBRANCH   1  16
TORSDOF 5
ENDMDL
MODEL 9
REMARK VINA RESULT:    -5.379      4.101      6.012
REMARK INTER + INTRA:          -6.950
REMARK INTER:                  -6.657
REMARK INTRA:                  -0.293
REMARK UNBOUND:                -0.313
REMARK  Name = 
REMARK  5 active torsions:
REMARK  status: ('A' for Active; 'I' for Inactive)
REMARK    1  A    between atoms: N_1  and  C_2
REMARK    2  A    between atoms: C_2  and  C_3
REMARK    3  A    between atoms: C_6  and  C_7
REMARK    4  A    between atoms: C_7  and  N_8
REMARK    5  A    between atoms: C_14  and  O_15
REMARK                            x       y       z     vdW  Elec       q    Type
REMARK                         _______ _______ _______ _____ _____    ______ ____
ROOT
ATOM      1  C   UNL     1      46.879   7.404  13.254  0.00  0.00    +0.000 C 
ENDROOT
BRANCH   1   2
ATOM      2  N   UNL     1      46.480   8.722  12.760  0.00  0.00    +0.000 N 
ATOM      3  C   UNL     1      45.170   9.099  12.562  0.00  0.00    +0.000 A 
ATOM      4  C   UNL     1      45.166  10.357  12.010  0.00  0.00    +0.000 A 
ATOM      5  C   UNL     1      46.481  10.592  11.543  0.00  0.00    +0.000 A 
ATOM      6  C   UNL     1      47.030  11.514  10.630  0.00  0.00    +0.000 A 
ATOM      7  C   UNL     1      48.404  11.499  10.382  0.00  0.00    +0.000 A 
ATOM      8  C   UNL     1      49.226  10.648  11.111  0.00  0.00    +0.000 A 
ATOM      9  C   UNL     1      48.712   9.714  12.014  0.00  0.00    +0.000 A 
ATOM     10  C   UNL     1      47.315   9.646  12.149  0.00  0.00    +0.000 A 
BRANCH   8  11
ATOM     11  O   UNL     1      50.581  10.676  10.938  0.00  0.00    +0.000 OA
ATOM     12  H   UNL     1      50.884   9.770  10.764  0.00  0.00    +0.000 HD
ENDBRANCH   8  11
ENDBRANCH   1   2
BRANCH   1  16
ATOM     13  C   UNL     1      44.741   4.164  11.309  0.00  0.00    +0.000 A 
ATOM     14  C   UNL     1      45.011   4.118  12.679  0.00  0.00    +0.000 A 
ATOM     15  C   UNL     1      45.721   5.146  13.306  0.00  0.00    +0.000 A 
ATOM     16  C   UNL     1      46.181   6.254  12.575  0.00  0.00    +0.000 A 
ATOM     17  C   UNL     1      45.931   6.285  11.197  0.00  0.00    +0.000 A 
ATOM     18  C   UNL     1      45.213   5.258  10.575  0.00  0.00    +0.000 A 
BRANCH  13  19
ATOM     19  C   UNL     1      43.968   3.052  10.632  0.00  0.00    +0.000 C 
BRANCH  19  20
ATOM     20  N   UNL     1      43.021   2.408  11.527  0.00  0.00    +0.000 NA
ATOM     21  H   UNL     1      42.696   3.094  12.199  0.00  0.00    +0.000 HD
ATOM     22  H   UNL     1      43.507   1.687  12.057  0.00  0.00    +0.000 HD
ENDBRANCH  19  20
ENDBRANCH  13  19
ENDBRANCH   1  16
TORSDOF 5
ENDMDL
