MODEL 1
REMARK VINA RESULT:    -7.756      0.000      0.000
REMARK INTER + INTRA:         -10.139
REMARK INTER:                  -9.570
REMARK INTRA:                  -0.570
REMARK UNBOUND:                -0.570
REMARK  Name = 
REMARK  4 active torsions:
REMARK  status: ('A' for Active; 'I' for Inactive)
REMARK    1  A    between atoms: C_2  and  C_4
REMARK    2  A    between atoms: C_7  and  N_8
REMARK    3  A    between atoms: N_8  and  C_9
REMARK    4  A    between atoms: C_9  and  C_10
REMARK                            x       y       z     vdW  Elec       q    Type
REMARK                         _______ _______ _______ _____ _____    ______ ____
ROOT
ATOM      1  C   UNL     1      46.433   2.505   7.673  0.00  0.00    +0.000 A 
ATOM      2  C   UNL     1      45.494   1.863   8.486  0.00  0.00    +0.000 A 
ATOM      3  C   UNL     1      44.594   2.615   9.250  0.00  0.00    +0.000 A 
ATOM      4  C   UNL     1      44.628   4.014   9.229  0.00  0.00    +0.000 A 
ATOM      5  C   UNL     1      45.535   4.643   8.367  0.00  0.00    +0.000 A 
ATOM      6  C   UNL     1      46.448   3.900   7.613  0.00  0.00    +0.000 A 
ENDROOT
BRANCH   1   8
ATOM      7  N   UNL     1      48.531   2.455   6.435  0.00  0.00    +0.000 N 
ATOM      8  C   UNL     1      47.452   1.753   6.895  0.00  0.00    +0.000 C 
ATOM      9  O   UNL     1      47.351   0.551   6.694  0.00  0.00    +0.000 OA
ATOM     10  H   UNL     1      49.262   1.910   5.997  0.00  0.00    +0.000 HD
ATOM     11  H   UNL     1      48.773   3.368   6.791  0.00  0.00    +0.000 HD
ENDBRANCH   1   8
BRANCH   4  12
ATOM     12  N   UNL     1      43.797   4.826   9.998  0.00  0.00    +0.000 N 
ATOM     13  H   UNL     1      42.973   5.123   9.479  0.00  0.00    +0.000 HD
BRANCH  12  14
ATOM     14  C   UNL     1      43.497   4.443  11.371  0.00  0.00    +0.000 C 
BRANCH  14  15
ATOM     15  C   UNL     1      44.716   4.648  12.226  0.00  0.00    +0.000 A 
ATOM     16  C   UNL     1      45.266   5.921  12.420  0.00  0.00    +0.000 A 
ATOM     17  C   UNL     1      46.427   6.069  13.169  0.00  0.00    +0.000 A 
ATOM     18  C   UNL     1      47.010   4.932  13.700  0.00  0.00    +0.000 A 
ATOM     19  N   UNL     1      46.514   3.687  13.536  0.00  0.00    +0.000 NA
ATOM     20  C   UNL     1      45.384   3.574  12.802  0.00  0.00    +0.000 A 
ENDBRANCH  14  15
ENDBRANCH  12  14
ENDBRANCH   4  12
TORSDOF 4
ENDMDL
MODEL 2
REMARK VINA RESULT:    -7.390      2.634      5.986
REMARK INTER + INTRA:          -9.687
REMARK INTER:                  -9.269
REMARK INTRA:                  -0.419
REMARK UNBOUND:                -0.570
REMARK  Name = 
REMARK  4 active torsions:
REMARK  status: ('A' for Active; 'I' for Inactive)
REMARK    1  A    between atoms: C_2  and  C_4
REMARK    2  A    between atoms: C_7  and  N_8
REMARK    3  A    between atoms: N_8  and  C_9
REMARK    4  A    between atoms: C_9  and  C_10
REMARK                            x       y       z     vdW  Elec       q    Type
REMARK                         _______ _______ _______ _____ _____    ______ ____
ROOT
ATOM      1  C   UNL     1      46.446   4.901  13.372  0.00  0.00    +0.000 A 
ATOM      2  C   UNL     1      46.760   6.017  12.589  0.00  0.00    +0.000 A 
ATOM      3  C   UNL     1      46.261   6.124  11.286  0.00  0.00    +0.000 A 
ATOM      4  C   UNL     1      45.460   5.115  10.738  0.00  0.00    +0.000 A 
ATOM      5  C   UNL     1      45.107   4.032  11.552  0.00  0.00    +0.000 A 
ATOM      6  C   UNL     1      45.614   3.909  12.849  0.00  0.00    +0.000 A 
ENDROOT
BRANCH   1   8
ATOM      7  N   UNL     1      47.711   5.750  15.273  0.00  0.00    +0.000 N 
ATOM      8  C   UNL     1      47.004   4.710  14.736  0.00  0.00    +0.000 C 
ATOM      9  O   UNL     1      46.820   3.680  15.369  0.00  0.00    +0.000 OA
ATOM     10  H   UNL     1      47.996   5.642  16.238  0.00  0.00    +0.000 HD
ATOM     11  H   UNL     1      47.665   6.685  14.897  0.00  0.00    +0.000 HD
ENDBRANCH   1   8
BRANCH   4  12
ATOM     12  N   UNL     1      44.969   5.132   9.434  0.00  0.00    +0.000 N 
ATOM     13  H   UNL     1      45.610   5.595   8.794  0.00  0.00    +0.000 HD
BRANCH  12  14
ATOM     14  C   UNL     1      44.385   3.919   8.875  0.00  0.00    +0.000 C 
BRANCH  14  15
ATOM     15  C   UNL     1      45.471   3.070   8.278  0.00  0.00    +0.000 A 
ATOM     16  C   UNL     1      46.357   3.583   7.323  0.00  0.00    +0.000 A 
ATOM     17  C   UNL     1      47.314   2.757   6.746  0.00  0.00    +0.000 A 
ATOM     18  C   UNL     1      47.353   1.431   7.141  0.00  0.00    +0.000 A 
ATOM     19  N   UNL     1      46.517   0.894   8.057  0.00  0.00    +0.000 NA
ATOM     20  C   UNL     1      45.596   1.724   8.600  0.00  0.00    +0.000 A 
ENDBRANCH  14  15
ENDBRANCH  12  14
ENDBRANCH   4  12
TORSDOF 4
ENDMDL
MODEL 3
REMARK VINA RESULT:    -6.871      2.906      6.148
REMARK INTER + INTRA:          -9.047
REMARK INTER:                  -8.615
REMARK INTRA:                  -0.433
REMARK UNBOUND:                -0.570
REMARK  Name = 
REMARK  4 active torsions:
REMARK  status: ('A' for Active; 'I' for Inactive)
REMARK    1  A    between atoms: C_2  and  C_4
REMARK    2  A    between atoms: C_7  and  N_8
REMARK    3  A    between atoms: N_8  and  C_9
REMARK    4  A    between atoms: C_9  and  C_10
REMARK                            x       y       z     vdW  Elec       q    Type
REMARK                         _______ _______ _______ _____ _____    ______ ____
ROOT
ATOM      1  C   UNL     1      45.755   6.126  12.406  0.00  0.00    +0.000 A 
ATOM      2  C   UNL     1      45.279   6.154  11.091  0.00  0.00    +0.000 A 
ATOM      3  C   UNL     1      44.963   4.960  10.433  0.00  0.00    +0.000 A 
ATOM      4  C   UNL     1      45.132   3.724  11.066  0.00  0.00    +0.000 A 
ATOM      5  C   UNL     1      45.554   3.714  12.401  0.00  0.00    +0.000 A 
ATOM      6  C   UNL     1      45.888   4.900  13.061  0.00  0.00    +0.000 A 
ENDROOT
BRANCH   1   8
ATOM      7  N   UNL     1      47.180   7.244  14.036  0.00  0.00    +0.000 N 
ATOM      8  C   UNL     1      46.167   7.360  13.125  0.00  0.00    +0.000 C 
ATOM      9  O   UNL     1      45.646   8.443  12.896  0.00  0.00    +0.000 OA
ATOM     10  H   UNL     1      47.515   8.109  14.440  0.00  0.00    +0.000 HD
ATOM     11  H   UNL     1      47.792   6.442  14.063  0.00  0.00    +0.000 HD
ENDBRANCH   1   8
BRANCH   4  12
ATOM     12  N   UNL     1      44.884   2.495  10.457  0.00  0.00    +0.000 N 
ATOM     13  H   UNL     1      44.341   1.878  11.058  0.00  0.00    +0.000 HD
BRANCH  12  14
ATOM     14  C   UNL     1      44.448   2.463   9.067  0.00  0.00    +0.000 C 
BRANCH  14  15
ATOM     15  C   UNL     1      45.646   2.334   8.169  0.00  0.00    +0.000 A 
ATOM     16  C   UNL     1      46.076   3.400   7.369  0.00  0.00    +0.000 A 
ATOM     17  C   UNL     1      47.153   3.231   6.506  0.00  0.00    +0.000 A 
ATOM     18  C   UNL     1      47.768   1.992   6.466  0.00  0.00    +0.000 A 
ATOM     19  N   UNL     1      47.385   0.938   7.219  0.00  0.00    +0.000 NA
ATOM     20  C   UNL     1      46.334   1.133   8.048  0.00  0.00    +0.000 A 
ENDBRANCH  14  15
ENDBRANCH  12  14
ENDBRANCH   4  12
TORSDOF 4
ENDMDL
MODEL 4
REMARK VINA RESULT:    -6.748      2.796      6.012
REMARK INTER + INTRA:          -8.896
REMARK INTER:                  -8.527
REMARK INTRA:                  -0.369
REMARK UNBOUND:                -0.570
REMARK  Name = 
REMARK  4 active torsions:
REMARK  status: ('A' for Active; 'I' for Inactive)
REMARK    1  A    between atoms: C_2  and  C_4
REMARK    2  A    between atoms: C_7  and  N_8
REMARK    3  A    between atoms: N_8  and  C_9
REMARK    4  A    between atoms: C_9  and  C_10
REMARK                            x       y       z     vdW  Elec       q    Type
REMARK                         _______ _______ _______ _____ _____    ______ ____
ROOT
ATOM      1  C   UNL     1      46.715   5.965  12.847  0.00  0.00    +0.000 A 
ATOM      2  C   UNL     1      46.165   4.720  13.173  0.00  0.00    +0.000 A 
ATOM      3  C   UNL     1      45.316   4.069  12.270  0.00  0.00    +0.000 A 
ATOM      4  C   UNL     1      44.990   4.653  11.041  0.00  0.00    +0.000 A 
ATOM      5  C   UNL     1      45.593   5.871  10.704  0.00  0.00    +0.000 A 
ATOM      6  C   UNL     1      46.428   6.537  11.605  0.00  0.00    +0.000 A 
ENDROOT
BRANCH   1   8
ATOM      7  N   UNL     1      47.178   8.001  14.101  0.00  0.00    +0.000 N 
ATOM      8  C   UNL     1      47.567   6.726  13.797  0.00  0.00    +0.000 C 
ATOM      9  O   UNL     1      48.560   6.231  14.311  0.00  0.00    +0.000 OA
ATOM     10  H   UNL     1      47.710   8.467  14.825  0.00  0.00    +0.000 HD
ATOM     11  H   UNL     1      46.249   8.344  13.904  0.00  0.00    +0.000 HD
ENDBRANCH   1   8
BRANCH   4  12
ATOM     12  N   UNL     1      44.116   4.085  10.115  0.00  0.00    +0.000 N 
ATOM     13  H   UNL     1      43.930   4.714   9.337  0.00  0.00    +0.000 HD
BRANCH  12  14
ATOM     14  C   UNL     1      44.319   2.705   9.696  0.00  0.00    +0.000 C 
BRANCH  14  15
ATOM     15  C   UNL     1      45.309   2.665   8.565  0.00  0.00    +0.000 A 
ATOM     16  C   UNL     1      46.114   1.542   8.339  0.00  0.00    +0.000 A 
ATOM     17  C   UNL     1      47.060   1.559   7.321  0.00  0.00    +0.000 A 
ATOM     18  C   UNL     1      47.177   2.708   6.559  0.00  0.00    +0.000 A 
ATOM     19  N   UNL     1      46.423   3.813   6.744  0.00  0.00    +0.000 NA
ATOM     20  C   UNL     1      45.511   3.767   7.743  0.00  0.00    +0.000 A 
ENDBRANCH  14  15
ENDBRANCH  12  14
ENDBRANCH   4  12
TORSDOF 4
ENDMDL
MODEL 5
REMARK VINA RESULT:    -5.428      3.454      5.634
REMARK INTER + INTRA:          -7.267
REMARK INTER:                  -6.886
REMARK INTRA:                  -0.380
REMARK UNBOUND:                -0.570
REMARK  Name = 
REMARK  4 active torsions:
REMARK  status: ('A' for Active; 'I' for Inactive)
REMARK    1  A    between atoms: C_2  and  C_4
REMARK    2  A    between atoms: C_7  and  N_8
REMARK    3  A    between atoms: N_8  and  C_9
REMARK    4  A    between atoms: C_9  and  C_10
REMARK                            x       y       z     vdW  Elec       q    Type
REMARK                         _______ _______ _______ _____ _____    ______ ____
ROOT
ATOM      1  C   UNL     1      45.110   4.679  11.542  0.00  0.00    +0.000 A 
ATOM      2  C   UNL     1      45.719   5.921  11.750  0.00  0.00    +0.000 A 
ATOM      3  C   UNL     1      46.521   6.130  12.877  0.00  0.00    +0.000 A 
ATOM      4  C   UNL     1      46.714   5.115  13.821  0.00  0.00    +0.000 A 
ATOM      5  C   UNL     1      46.146   3.860  13.570  0.00  0.00    +0.000 A 
ATOM      6  C   UNL     1      45.330   3.646  12.456  0.00  0.00    +0.000 A 
ENDROOT
BRANCH   1   8
ATOM      7  N   UNL     1      44.590   3.494   9.478  0.00  0.00    +0.000 N 
ATOM      8  C   UNL     1      44.197   4.427  10.397  0.00  0.00    +0.000 C 
ATOM      9  O   UNL     1      43.124   5.005  10.288  0.00  0.00    +0.000 OA
ATOM     10  H   UNL     1      43.912   3.262   8.763  0.00  0.00    +0.000 HD
ATOM     11  H   UNL     1      45.324   2.827   9.665  0.00  0.00    +0.000 HD
ENDBRANCH   1   8
BRANCH   4  12
ATOM     12  N   UNL     1      47.459   5.267  14.988  0.00  0.00    +0.000 N 
ATOM     13  H   UNL     1      47.594   6.247  15.226  0.00  0.00    +0.000 HD
BRANCH  12  14
ATOM     14  C   UNL     1      47.150   4.438  16.146  0.00  0.00    +0.000 C 
BRANCH  14  15
ATOM     15  C   UNL     1      48.397   3.739  16.609  0.00  0.00    +0.000 A 
ATOM     16  C   UNL     1      49.353   4.395  17.393  0.00  0.00    +0.000 A 
ATOM     17  C   UNL     1      50.523   3.738  17.757  0.00  0.00    +0.000 A 
ATOM     18  C   UNL     1      50.705   2.438  17.317  0.00  0.00    +0.000 A 
ATOM     19  N   UNL     1      49.810   1.770  16.558  0.00  0.00    +0.000 NA
ATOM     20  C   UNL     1      48.682   2.435  16.220  0.00  0.00    +0.000 A 
ENDBRANCH  14  15
ENDBRANCH  12  14
ENDBRANCH   4  12
TORSDOF 4
ENDMDL
MODEL 6
REMARK VINA RESULT:    -5.374      2.617      4.304
REMARK INTER + INTRA:          -7.201
REMARK INTER:                  -6.776
REMARK INTRA:                  -0.425
REMARK UNBOUND:                -0.570
REMARK  Name = 
REMARK  4 active torsions:
REMARK  status: ('A' for Active; 'I' for Inactive)
REMARK    1  A    between atoms: C_2  and  C_4
REMARK    2  A    between atoms: C_7  and  N_8
REMARK    3  A    between atoms: N_8  and  C_9
REMARK    4  A    between atoms: C_9  and  C_10
REMARK                            x       y       z     vdW  Elec       q    Type
REMARK                         _______ _______ _______ _____ _____    ______ ____
ROOT
ATOM      1  C   UNL     1      45.001   3.851  10.340  0.00  0.00    +0.000 A 
ATOM      2  C   UNL     1      44.872   3.176  11.558  0.00  0.00    +0.000 A 
ATOM      3  C   UNL     1      45.247   3.803  12.752  0.00  0.00    +0.000 A 
ATOM      4  C   UNL     1      45.772   5.100  12.748  0.00  0.00    +0.000 A 
ATOM      5  C   UNL     1      45.842   5.784  11.529  0.00  0.00    +0.000 A 
ATOM      6  C   UNL     1      45.485   5.161  10.330  0.00  0.00    +0.000 A 
ENDROOT
BRANCH   1   8
ATOM      7  N   UNL     1      44.165   4.005   8.057  0.00  0.00    +0.000 N 
ATOM      8  C   UNL     1      44.679   3.206   9.040  0.00  0.00    +0.000 C 
ATOM      9  O   UNL     1      44.887   2.018   8.841  0.00  0.00    +0.000 OA
ATOM     10  H   UNL     1      44.047   3.573   7.149  0.00  0.00    +0.000 HD
ATOM     11  H   UNL     1      44.220   5.012   8.095  0.00  0.00    +0.000 HD
ENDBRANCH   1   8
BRANCH   4  12
ATOM     12  N   UNL     1      46.211   5.767  13.891  0.00  0.00    +0.000 N 
ATOM     13  H   UNL     1      45.632   5.551  14.700  0.00  0.00    +0.000 HD
BRANCH  12  14
ATOM     14  C   UNL     1      47.634   5.793  14.201  0.00  0.00    +0.000 C 
BRANCH  14  15
ATOM     15  C   UNL     1      47.862   5.192  15.559  0.00  0.00    +0.000 A 
ATOM     16  C   UNL     1      47.159   4.058  15.983  0.00  0.00    +0.000 A 
ATOM     17  C   UNL     1      47.351   3.562  17.267  0.00  0.00    +0.000 A 
ATOM     18  C   UNL     1      48.241   4.222  18.096  0.00  0.00    +0.000 A 
ATOM     19  N   UNL     1      48.937   5.320  17.728  0.00  0.00    +0.000 NA
ATOM     20  C   UNL     1      48.730   5.780  16.473  0.00  0.00    +0.000 A 
ENDBRANCH  14  15
ENDBRANCH  12  14
ENDBRANCH   4  12
TORSDOF 4
ENDMDL
MODEL 7
REMARK VINA RESULT:    -5.328      3.301      6.446
REMARK INTER + INTRA:          -7.144
REMARK INTER:                  -6.754
REMARK INTRA:                  -0.390
REMARK UNBOUND:                -0.570
REMARK  Name = 
REMARK  4 active torsions:
REMARK  status: ('A' for Active; 'I' for Inactive)
REMARK    1  A    between atoms: C_2  and  C_4
REMARK    2  A    between atoms: C_7  and  N_8
REMARK    3  A    between atoms: N_8  and  C_9
REMARK    4  A    between atoms: C_9  and  C_10
REMARK                            x       y       z     vdW  Elec       q    Type
REMARK                         _______ _______ _______ _____ _____    ______ ____
ROOT
ATOM      1  C   UNL     1      47.844   6.420  14.367  0.00  0.00    +0.000 A 
ATOM      2  C   UNL     1      47.159   5.203  14.448  0.00  0.00    +0.000 A 
ATOM      3  C   UNL     1      46.099   4.935  13.574  0.00  0.00    +0.000 A 
ATOM      4  C   UNL     1      45.696   5.878  12.622  0.00  0.00    +0.000 A 
ATOM      5  C   UNL     1      46.427   7.066  12.514  0.00  0.00    +0.000 A 
ATOM      6  C   UNL     1      47.476   7.351  13.393  0.00  0.00    +0.000 A 
ENDROOT
BRANCH   1   8
ATOM      7  N   UNL     1      49.208   8.110  15.472  0.00  0.00    +0.000 N 
ATOM      8  C   UNL     1      48.932   6.780  15.314  0.00  0.00    +0.000 C 
ATOM      9  O   UNL     1      49.539   5.930  15.950  0.00  0.00    +0.000 OA
ATOM     10  H   UNL     1      49.879   8.341  16.193  0.00  0.00    +0.000 HD
ATOM     11  H   UNL     1      48.573   8.833  15.170  0.00  0.00    +0.000 HD
ENDBRANCH   1   8
BRANCH   4  12
ATOM     12  N   UNL     1      44.621   5.698  11.753  0.00  0.00    +0.000 N 
ATOM     13  H   UNL     1      44.692   6.298  10.934  0.00  0.00    +0.000 HD
BRANCH  12  14
ATOM     14  C   UNL     1      44.181   4.347  11.431  0.00  0.00    +0.000 C 
BRANCH  14  15
ATOM     15  C   UNL     1      44.772   3.928  10.115  0.00  0.00    +0.000 A 
ATOM     16  C   UNL     1      44.799   2.585   9.721  0.00  0.00    +0.000 A 
ATOM     17  C   UNL     1      45.405   2.223   8.524  0.00  0.00    +0.000 A 
ATOM     18  C   UNL     1      45.974   3.222   7.753  0.00  0.00    +0.000 A 
ATOM     19  N   UNL     1      45.971   4.529   8.096  0.00  0.00    +0.000 NA
ATOM     20  C   UNL     1      45.375   4.850   9.267  0.00  0.00    +0.000 A 
ENDBRANCH  14  15
ENDBRANCH  12  14
ENDBRANCH   4  12
TORSDOF 4
ENDMDL
MODEL 8
REMARK VINA RESULT:    -5.283      2.908      4.390
REMARK INTER + INTRA:          -7.088
REMARK INTER:                  -6.646
REMARK INTRA:                  -0.442
REMARK UNBOUND:                -0.570
REMARK  Name = 
REMARK  4 active torsions:
REMARK  status: ('A' for Active; 'I' for Inactive)
REMARK    1  A    between atoms: C_2  and  C_4
REMARK    2  A    between atoms: C_7  and  N_8
REMARK    3  A    between atoms: N_8  and  C_9
REMARK    4  A    between atoms: C_9  and  C_10
REMARK                            x       y       z     vdW  Elec       q    Type
REMARK                         _______ _______ _______ _____ _____    ______ ____
ROOT
ATOM      1  C   UNL     1      44.952   3.757  10.304  0.00  0.00    +0.000 A 
ATOM      2  C   UNL     1      44.980   3.205  11.589  0.00  0.00    +0.000 A 
ATOM      3  C   UNL     1      45.367   3.989  12.681  0.00  0.00    +0.000 A 
ATOM      4  C   UNL     1      45.748   5.324  12.509  0.00  0.00    +0.000 A 
ATOM      5  C   UNL     1      45.659   5.879  11.227  0.00  0.00    +0.000 A 
ATOM      6  C   UNL     1      45.290   5.100  10.127  0.00  0.00    +0.000 A 
ENDROOT
BRANCH   1   8
ATOM      7  N   UNL     1      44.315   3.631   7.955  0.00  0.00    +0.000 N 
ATOM      8  C   UNL     1      44.612   2.949   9.103  0.00  0.00    +0.000 C 
ATOM      9  O   UNL     1      44.623   1.726   9.125  0.00  0.00    +0.000 OA
ATOM     10  H   UNL     1      44.186   3.067   7.125  0.00  0.00    +0.000 HD
ATOM     11  H   UNL     1      44.542   4.606   7.832  0.00  0.00    +0.000 HD
ENDBRANCH   1   8
BRANCH   4  12
ATOM     12  N   UNL     1      46.189   6.149  13.542  0.00  0.00    +0.000 N 
ATOM     13  H   UNL     1      45.647   6.013  14.392  0.00  0.00    +0.000 HD
BRANCH  12  14
ATOM     14  C   UNL     1      47.619   6.274  13.795  0.00  0.00    +0.000 C 
BRANCH  14  15
ATOM     15  C   UNL     1      48.161   7.450  13.031  0.00  0.00    +0.000 A 
ATOM     16  C   UNL     1      49.239   7.312  12.148  0.00  0.00    +0.000 A 
ATOM     17  C   UNL     1      49.754   8.429  11.501  0.00  0.00    +0.000 A 
ATOM     18  C   UNL     1      49.175   9.659  11.763  0.00  0.00    +0.000 A 
ATOM     19  N   UNL     1      48.136   9.836  12.608  0.00  0.00    +0.000 NA
ATOM     20  C   UNL     1      47.657   8.731  13.223  0.00  0.00    +0.000 A 
ENDBRANCH  14  15
ENDBRANCH  12  14
ENDBRANCH   4  12
TORSDOF 4
ENDMDL
MODEL 9
REMARK VINA RESULT:    -5.242      3.666      5.479
REMARK INTER + INTRA:          -7.038
REMARK INTER:                  -6.652
REMARK INTRA:                  -0.386
REMARK UNBOUND:                -0.570
REMARK  Name = 
REMARK  4 active torsions:
REMARK  status: ('A' for Active; 'I' for Inactive)
REMARK    1  A    between atoms: C_2  and  C_4
REMARK    2  A    between atoms: C_7  and  N_8
REMARK    3  A    between atoms: N_8  and  C_9
REMARK    4  A    between atoms: C_9  and  C_10
REMARK                            x       y       z     vdW  Elec       q    Type
REMARK                         _______ _______ _______ _____ _____    ______ ____
ROOT
ATOM      1  C   UNL     1      44.937   4.134  11.570  0.00  0.00    +0.000 A 
ATOM      2  C   UNL     1      45.132   5.364  10.934  0.00  0.00    +0.000 A 
ATOM      3  C   UNL     1      45.833   6.387  11.584  0.00  0.00    +0.000 A 
ATOM      4  C   UNL     1      46.332   6.207  12.878  0.00  0.00    +0.000 A 
ATOM      5  C   UNL     1      46.179   4.951  13.479  0.00  0.00    +0.000 A 
ATOM      6  C   UNL     1      45.467   3.929  12.845  0.00  0.00    +0.000 A 
ENDROOT
BRANCH   1   8
ATOM      7  N   UNL     1      44.737   2.334   9.940  0.00  0.00    +0.000 N 
ATOM      8  C   UNL     1      44.144   3.040  10.949  0.00  0.00    +0.000 C 
ATOM      9  O   UNL     1      43.019   2.759  11.338  0.00  0.00    +0.000 OA
ATOM     10  H   UNL     1      44.225   1.531   9.599  0.00  0.00    +0.000 HD
ATOM     11  H   UNL     1      45.732   2.365   9.771  0.00  0.00    +0.000 HD
ENDBRANCH   1   8
BRANCH   4  12
ATOM     12  N   UNL     1      46.996   7.194  13.603  0.00  0.00    +0.000 N 
ATOM     13  H   UNL     1      46.359   7.716  14.202  0.00  0.00    +0.000 HD
BRANCH  12  14
ATOM     14  C   UNL     1      48.257   6.874  14.257  0.00  0.00    +0.000 C 
BRANCH  14  15
ATOM     15  C   UNL     1      49.392   7.488  13.486  0.00  0.00    +0.000 A 
ATOM     16  C   UNL     1      49.432   7.441  12.087  0.00  0.00    +0.000 A 
ATOM     17  C   UNL     1      50.523   7.967  11.405  0.00  0.00    +0.000 A 
ATOM     18  C   UNL     1      51.550   8.523  12.148  0.00  0.00    +0.000 A 
ATOM     19  N   UNL     1      51.552   8.587  13.498  0.00  0.00    +0.000 NA
ATOM     20  C   UNL     1      50.477   8.066  14.133  0.00  0.00    +0.000 A 
ENDBRANCH  14  15
ENDBRANCH  12  14
ENDBRANCH   4  12
TORSDOF 4
ENDMDL
