MODEL 1
REMARK VINA RESULT:    -8.119      0.000      0.000
REMARK INTER + INTRA:         -10.069
REMARK INTER:                  -9.543
REMARK INTRA:                  -0.526
REMARK UNBOUND:                -0.526
REMARK  Name = 
REMARK  3 active torsions:
REMARK  status: ('A' for Active; 'I' for Inactive)
REMARK    1  A    between atoms: C_2  and  C_4
REMARK    2  A    between atoms: C_7  and  C_8
REMARK    3  A    between atoms: C_8  and  N_9
REMARK                            x       y       z     vdW  Elec       q    Type
REMARK                         _______ _______ _______ _____ _____    ______ ____
ROOT
ATOM      1  C   UNL     1      46.476   2.532   7.731  0.00  0.00    +0.000 A 
ATOM      2  C   UNL     1      46.433   3.931   7.724  0.00  0.00    +0.000 A 
ATOM      3  C   UNL     1      45.592   4.613   8.607  0.00  0.00    +0.000 A 
ATOM      4  C   UNL     1      44.778   3.907   9.505  0.00  0.00    +0.000 A 
ATOM      5  C   UNL     1      44.814   2.504   9.495  0.00  0.00    +0.000 A 
ATOM      6  C   UNL     1      45.653   1.820   8.610  0.00  0.00    +0.000 A 
ENDROOT
BRANCH   1   8
ATOM      7  N   UNL     1      48.441   2.449   6.299  0.00  0.00    +0.000 N 
ATOM      8  C   UNL     1      47.364   1.779   6.807  0.00  0.00    +0.000 C 
ATOM      9  O   UNL     1      47.168   0.599   6.541  0.00  0.00    +0.000 OA
ATOM     10  H   UNL     1      49.093   1.912   5.747  0.00  0.00    +0.000 HD
ATOM     11  H   UNL     1      48.763   3.325   6.690  0.00  0.00    +0.000 HD
ENDBRANCH   1   8
BRANCH   4  12
ATOM     12  C   UNL     1      43.876   4.646  10.463  0.00  0.00    +0.000 C 
BRANCH  12  13
ATOM     13  N   UNL     1      44.603   5.242  11.574  0.00  0.00    +0.000 N 
ATOM     14  C   UNL     1      45.363   4.550  12.489  0.00  0.00    +0.000 A 
ATOM     15  C   UNL     1      46.022   5.469  13.278  0.00  0.00    +0.000 A 
ATOM     16  C   UNL     1      45.668   6.764  12.816  0.00  0.00    +0.000 A 
ATOM     17  C   UNL     1      46.026   8.077  13.155  0.00  0.00    +0.000 A 
ATOM     18  C   UNL     1      45.461   9.116  12.418  0.00  0.00    +0.000 A 
ATOM     19  C   UNL     1      44.567   8.808  11.401  0.00  0.00    +0.000 A 
ATOM     20  N   UNL     1      44.186   7.565  11.030  0.00  0.00    +0.000 NA
ATOM     21  C   UNL     1      44.769   6.593  11.764  0.00  0.00    +0.000 A 
ENDBRANCH  12  13
ENDBRANCH   4  12
TORSDOF 3
ENDMDL
MODEL 2
REMARK VINA RESULT:    -7.838      0.901      2.343
REMARK INTER + INTRA:          -9.738
REMARK INTER:                  -9.377
REMARK INTRA:                  -0.361
REMARK UNBOUND:                -0.526
REMARK  Name = 
REMARK  3 active torsions:
REMARK  status: ('A' for Active; 'I' for Inactive)
REMARK    1  A    between atoms: C_2  and  C_4
REMARK    2  A    between atoms: C_7  and  C_8
REMARK    3  A    between atoms: C_8  and  N_9
REMARK                            x       y       z     vdW  Elec       q    Type
REMARK                         _______ _______ _______ _____ _____    ______ ____
ROOT
ATOM      1  C   UNL     1      46.448   2.472   7.648  0.00  0.00    +0.000 A 
ATOM      2  C   UNL     1      46.431   3.871   7.620  0.00  0.00    +0.000 A 
ATOM      3  C   UNL     1      45.628   4.583   8.515  0.00  0.00    +0.000 A 
ATOM      4  C   UNL     1      44.828   3.906   9.447  0.00  0.00    +0.000 A 
ATOM      5  C   UNL     1      44.838   2.503   9.460  0.00  0.00    +0.000 A 
ATOM      6  C   UNL     1      45.638   1.790   8.562  0.00  0.00    +0.000 A 
ENDROOT
BRANCH   1   8
ATOM      7  N   UNL     1      48.318   2.353   6.097  0.00  0.00    +0.000 N 
ATOM      8  C   UNL     1      47.295   1.687   6.712  0.00  0.00    +0.000 C 
ATOM      9  O   UNL     1      47.115   0.490   6.527  0.00  0.00    +0.000 OA
ATOM     10  H   UNL     1      48.948   1.800   5.535  0.00  0.00    +0.000 HD
ATOM     11  H   UNL     1      48.641   3.257   6.416  0.00  0.00    +0.000 HD
ENDBRANCH   1   8
BRANCH   4  12
ATOM     12  C   UNL     1      43.968   4.678  10.418  0.00  0.00    +0.000 C 
BRANCH  12  13
ATOM     13  N   UNL     1      44.745   5.539  11.298  0.00  0.00    +0.000 N 
ATOM     14  C   UNL     1      44.639   6.910  11.365  0.00  0.00    +0.000 A 
ATOM     15  C   UNL     1      45.409   7.345  12.423  0.00  0.00    +0.000 A 
ATOM     16  C   UNL     1      45.988   6.201  13.033  0.00  0.00    +0.000 A 
ATOM     17  C   UNL     1      46.807   5.971  14.148  0.00  0.00    +0.000 A 
ATOM     18  C   UNL     1      47.144   4.652  14.446  0.00  0.00    +0.000 A 
ATOM     19  C   UNL     1      46.672   3.636  13.625  0.00  0.00    +0.000 A 
ATOM     20  N   UNL     1      45.880   3.798  12.541  0.00  0.00    +0.000 NA
ATOM     21  C   UNL     1      45.570   5.090  12.300  0.00  0.00    +0.000 A 
ENDBRANCH  12  13
ENDBRANCH   4  12
TORSDOF 3
ENDMDL
MODEL 3
REMARK VINA RESULT:    -7.723      1.414      1.926
REMARK INTER + INTRA:          -9.603
REMARK INTER:                  -9.179
REMARK INTRA:                  -0.425
REMARK UNBOUND:                -0.526
REMARK  Name = 
REMARK  3 active torsions:
REMARK  status: ('A' for Active; 'I' for Inactive)
REMARK    1  A    between atoms: C_2  and  C_4
REMARK    2  A    between atoms: C_7  and  C_8
REMARK    3  A    between atoms: C_8  and  N_9
REMARK                            x       y       z     vdW  Elec       q    Type
REMARK                         _______ _______ _______ _____ _____    ______ ____
ROOT
ATOM      1  C   UNL     1      46.389   2.253   7.672  0.00  0.00    +0.000 A 
ATOM      2  C   UNL     1      45.557   1.717   8.662  0.00  0.00    +0.000 A 
ATOM      3  C   UNL     1      44.739   2.557   9.423  0.00  0.00    +0.000 A 
ATOM      4  C   UNL     1      44.746   3.943   9.209  0.00  0.00    +0.000 A 
ATOM      5  C   UNL     1      45.596   4.475   8.227  0.00  0.00    +0.000 A 
ATOM      6  C   UNL     1      46.417   3.635   7.466  0.00  0.00    +0.000 A 
ENDROOT
BRANCH   1   8
ATOM      7  N   UNL     1      48.354   1.975   6.264  0.00  0.00    +0.000 N 
ATOM      8  C   UNL     1      47.266   1.384   6.844  0.00  0.00    +0.000 C 
ATOM      9  O   UNL     1      47.053   0.185   6.716  0.00  0.00    +0.000 OA
ATOM     10  H   UNL     1      48.998   1.368   5.780  0.00  0.00    +0.000 HD
ATOM     11  H   UNL     1      48.689   2.886   6.552  0.00  0.00    +0.000 HD
ENDBRANCH   1   8
BRANCH   4  12
ATOM     12  C   UNL     1      43.857   4.847  10.027  0.00  0.00    +0.000 C 
BRANCH  12  13
ATOM     13  N   UNL     1      44.266   4.926  11.422  0.00  0.00    +0.000 N 
ATOM     14  C   UNL     1      43.680   4.242  12.463  0.00  0.00    +0.000 A 
ATOM     15  C   UNL     1      44.445   4.446  13.591  0.00  0.00    +0.000 A 
ATOM     16  C   UNL     1      45.545   5.266  13.223  0.00  0.00    +0.000 A 
ATOM     17  C   UNL     1      46.673   5.777  13.881  0.00  0.00    +0.000 A 
ATOM     18  C   UNL     1      47.567   6.544  13.137  0.00  0.00    +0.000 A 
ATOM     19  C   UNL     1      47.296   6.777  11.795  0.00  0.00    +0.000 A 
ATOM     20  N   UNL     1      46.228   6.311  11.110  0.00  0.00    +0.000 NA
ATOM     21  C   UNL     1      45.398   5.564  11.868  0.00  0.00    +0.000 A 
ENDBRANCH  12  13
ENDBRANCH   4  12
TORSDOF 3
ENDMDL
MODEL 4
REMARK VINA RESULT:    -6.678      2.995      6.496
REMARK INTER + INTRA:          -8.374
REMARK INTER:                  -7.900
REMARK INTRA:                  -0.474
REMARK UNBOUND:                -0.526
REMARK  Name = 
REMARK  3 active torsions:
REMARK  status: ('A' for Active; 'I' for Inactive)
REMARK    1  A    between atoms: C_2  and  C_4
REMARK    2  A    between atoms: C_7  and  C_8
REMARK    3  A    between atoms: C_8  and  N_9
REMARK                            x       y       z     vdW  Elec       q    Type
REMARK                         _______ _______ _______ _____ _____    ______ ____
ROOT
ATOM      1  C   UNL     1      46.866   6.180  13.027  0.00  0.00    +0.000 A 
ATOM      2  C   UNL     1      46.020   5.088  13.255  0.00  0.00    +0.000 A 
ATOM      3  C   UNL     1      45.227   4.584  12.220  0.00  0.00    +0.000 A 
ATOM      4  C   UNL     1      45.265   5.167  10.945  0.00  0.00    +0.000 A 
ATOM      5  C   UNL     1      46.102   6.272  10.728  0.00  0.00    +0.000 A 
ATOM      6  C   UNL     1      46.894   6.779  11.764  0.00  0.00    +0.000 A 
ENDROOT
BRANCH   1   8
ATOM      7  N   UNL     1      47.545   8.052  14.424  0.00  0.00    +0.000 N 
ATOM      8  C   UNL     1      47.724   6.735  14.106  0.00  0.00    +0.000 C 
ATOM      9  O   UNL     1      48.526   6.039  14.715  0.00  0.00    +0.000 OA
ATOM     10  H   UNL     1      48.060   8.403  15.217  0.00  0.00    +0.000 HD
ATOM     11  H   UNL     1      46.733   8.573  14.120  0.00  0.00    +0.000 HD
ENDBRANCH   1   8
BRANCH   4  12
ATOM     12  C   UNL     1      44.413   4.616   9.828  0.00  0.00    +0.000 C 
BRANCH  12  13
ATOM     13  N   UNL     1      44.928   3.365   9.292  0.00  0.00    +0.000 N 
ATOM     14  C   UNL     1      44.460   2.111   9.613  0.00  0.00    +0.000 A 
ATOM     15  C   UNL     1      45.081   1.200   8.785  0.00  0.00    +0.000 A 
ATOM     16  C   UNL     1      45.940   1.924   7.916  0.00  0.00    +0.000 A 
ATOM     17  C   UNL     1      46.785   1.595   6.846  0.00  0.00    +0.000 A 
ATOM     18  C   UNL     1      47.461   2.634   6.209  0.00  0.00    +0.000 A 
ATOM     19  C   UNL     1      47.280   3.933   6.667  0.00  0.00    +0.000 A 
ATOM     20  N   UNL     1      46.479   4.308   7.690  0.00  0.00    +0.000 NA
ATOM     21  C   UNL     1      45.838   3.270   8.267  0.00  0.00    +0.000 A 
ENDBRANCH  12  13
ENDBRANCH   4  12
TORSDOF 3
ENDMDL
MODEL 5
REMARK VINA RESULT:    -6.499      3.140      6.772
REMARK INTER + INTRA:          -8.165
REMARK INTER:                  -7.827
REMARK INTRA:                  -0.338
REMARK UNBOUND:                -0.526
REMARK  Name = 
REMARK  3 active torsions:
REMARK  status: ('A' for Active; 'I' for Inactive)
REMARK    1  A    between atoms: C_2  and  C_4
REMARK    2  A    between atoms: C_7  and  C_8
REMARK    3  A    between atoms: C_8  and  N_9
REMARK                            x       y       z     vdW  Elec       q    Type
REMARK                         _______ _______ _______ _____ _____    ______ ____
ROOT
ATOM      1  C   UNL     1      46.754   4.929  13.638  0.00  0.00    +0.000 A 
ATOM      2  C   UNL     1      46.491   3.568  13.448  0.00  0.00    +0.000 A 
ATOM      3  C   UNL     1      45.764   3.140  12.334  0.00  0.00    +0.000 A 
ATOM      4  C   UNL     1      45.285   4.068  11.398  0.00  0.00    +0.000 A 
ATOM      5  C   UNL     1      45.537   5.433  11.603  0.00  0.00    +0.000 A 
ATOM      6  C   UNL     1      46.262   5.862  12.720  0.00  0.00    +0.000 A 
ENDROOT
BRANCH   1   8
ATOM      7  N   UNL     1      47.861   6.738  14.830  0.00  0.00    +0.000 N 
ATOM      8  C   UNL     1      47.528   5.413  14.811  0.00  0.00    +0.000 C 
ATOM      9  O   UNL     1      47.822   4.672  15.741  0.00  0.00    +0.000 OA
ATOM     10  H   UNL     1      48.304   7.085  15.667  0.00  0.00    +0.000 HD
ATOM     11  H   UNL     1      47.424   7.412  14.214  0.00  0.00    +0.000 HD
ENDBRANCH   1   8
BRANCH   4  12
ATOM     12  C   UNL     1      44.506   3.604  10.192  0.00  0.00    +0.000 C 
BRANCH  12  13
ATOM     13  N   UNL     1      45.294   3.631   8.968  0.00  0.00    +0.000 N 
ATOM     14  C   UNL     1      45.754   4.769   8.345  0.00  0.00    +0.000 A 
ATOM     15  C   UNL     1      46.593   4.384   7.321  0.00  0.00    +0.000 A 
ATOM     16  C   UNL     1      46.663   2.966   7.332  0.00  0.00    +0.000 A 
ATOM     17  C   UNL     1      47.361   1.995   6.599  0.00  0.00    +0.000 A 
ATOM     18  C   UNL     1      47.174   0.659   6.949  0.00  0.00    +0.000 A 
ATOM     19  C   UNL     1      46.304   0.351   7.986  0.00  0.00    +0.000 A 
ATOM     20  N   UNL     1      45.606   1.243   8.725  0.00  0.00    +0.000 NA
ATOM     21  C   UNL     1      45.829   2.522   8.359  0.00  0.00    +0.000 A 
ENDBRANCH  12  13
ENDBRANCH   4  12
TORSDOF 3
ENDMDL
MODEL 6
REMARK VINA RESULT:    -6.252      3.352      6.310
REMARK INTER + INTRA:          -7.874
REMARK INTER:                  -7.409
REMARK INTRA:                  -0.465
REMARK UNBOUND:                -0.526
REMARK  Name = 
REMARK  3 active torsions:
REMARK  status: ('A' for Active; 'I' for Inactive)
REMARK    1  A    between atoms: C_2  and  C_4
REMARK    2  A    between atoms: C_7  and  C_8
REMARK    3  A    between atoms: C_8  and  N_9
REMARK                            x       y       z     vdW  Elec       q    Type
REMARK                         _______ _______ _______ _____ _____    ______ ____
ROOT
ATOM      1  C   UNL     1      48.173   6.678  13.528  0.00  0.00    +0.000 A 
ATOM      2  C   UNL     1      47.338   5.605  13.862  0.00  0.00    +0.000 A 
ATOM      3  C   UNL     1      46.190   5.346  13.107  0.00  0.00    +0.000 A 
ATOM      4  C   UNL     1      45.859   6.158  12.013  0.00  0.00    +0.000 A 
ATOM      5  C   UNL     1      46.691   7.241  11.694  0.00  0.00    +0.000 A 
ATOM      6  C   UNL     1      47.838   7.504  12.450  0.00  0.00    +0.000 A 
ENDROOT
BRANCH   1   8
ATOM      7  N   UNL     1      50.373   7.704  13.680  0.00  0.00    +0.000 N 
ATOM      8  C   UNL     1      49.402   6.976  14.308  0.00  0.00    +0.000 C 
ATOM      9  O   UNL     1      49.527   6.623  15.474  0.00  0.00    +0.000 OA
ATOM     10  H   UNL     1      51.165   7.984  14.239  0.00  0.00    +0.000 HD
ATOM     11  H   UNL     1      50.195   8.214  12.825  0.00  0.00    +0.000 HD
ENDBRANCH   1   8
BRANCH   4  12
ATOM     12  C   UNL     1      44.623   5.870  11.196  0.00  0.00    +0.000 C 
BRANCH  12  13
ATOM     13  N   UNL     1      44.629   4.535  10.616  0.00  0.00    +0.000 N 
ATOM     14  C   UNL     1      43.893   3.466  11.075  0.00  0.00    +0.000 A 
ATOM     15  C   UNL     1      44.036   2.432  10.175  0.00  0.00    +0.000 A 
ATOM     16  C   UNL     1      44.871   2.892   9.121  0.00  0.00    +0.000 A 
ATOM     17  C   UNL     1      45.344   2.353   7.916  0.00  0.00    +0.000 A 
ATOM     18  C   UNL     1      46.146   3.163   7.114  0.00  0.00    +0.000 A 
ATOM     19  C   UNL     1      46.450   4.447   7.546  0.00  0.00    +0.000 A 
ATOM     20  N   UNL     1      46.023   5.017   8.696  0.00  0.00    +0.000 NA
ATOM     21  C   UNL     1      45.240   4.201   9.432  0.00  0.00    +0.000 A 
ENDBRANCH  12  13
ENDBRANCH   4  12
TORSDOF 3
ENDMDL
MODEL 7
REMARK VINA RESULT:    -5.780      4.114      6.115
REMARK INTER + INTRA:          -7.320
REMARK INTER:                  -6.803
REMARK INTRA:                  -0.517
REMARK UNBOUND:                -0.526
REMARK  Name = 
REMARK  3 active torsions:
REMARK  status: ('A' for Active; 'I' for Inactive)
REMARK    1  A    between atoms: C_2  and  C_4
REMARK    2  A    between atoms: C_7  and  C_8
REMARK    3  A    between atoms: C_8  and  N_9
REMARK                            x       y       z     vdW  Elec       q    Type
REMARK                         _______ _______ _______ _____ _____    ______ ____
ROOT
ATOM      1  C   UNL     1      44.482   5.394  12.030  0.00  0.00    +0.000 A 
ATOM      2  C   UNL     1      45.074   4.910  13.203  0.00  0.00    +0.000 A 
ATOM      3  C   UNL     1      46.383   5.272  13.531  0.00  0.00    +0.000 A 
ATOM      4  C   UNL     1      47.121   6.117  12.689  0.00  0.00    +0.000 A 
ATOM      5  C   UNL     1      46.527   6.584  11.506  0.00  0.00    +0.000 A 
ATOM      6  C   UNL     1      45.218   6.220  11.175  0.00  0.00    +0.000 A 
ENDROOT
BRANCH   1   8
ATOM      7  N   UNL     1      42.150   6.020  11.733  0.00  0.00    +0.000 N 
ATOM      8  C   UNL     1      43.090   5.030  11.657  0.00  0.00    +0.000 C 
ATOM      9  O   UNL     1      42.800   3.909  11.260  0.00  0.00    +0.000 OA
ATOM     10  H   UNL     1      41.227   5.797  11.392  0.00  0.00    +0.000 HD
ATOM     11  H   UNL     1      42.402   6.996  11.812  0.00  0.00    +0.000 HD
ENDBRANCH   1   8
BRANCH   4  12
ATOM     12  C   UNL     1      48.532   6.511  13.049  0.00  0.00    +0.000 C 
BRANCH  12  13
ATOM     13  N   UNL     1      48.593   7.388  14.210  0.00  0.00    +0.000 N 
ATOM     14  C   UNL     1      48.248   8.720  14.218  0.00  0.00    +0.000 A 
ATOM     15  C   UNL     1      48.279   9.160  15.524  0.00  0.00    +0.000 A 
ATOM     16  C   UNL     1      48.634   8.055  16.342  0.00  0.00    +0.000 A 
ATOM     17  C   UNL     1      48.784   7.840  17.720  0.00  0.00    +0.000 A 
ATOM     18  C   UNL     1      49.127   6.557  18.144  0.00  0.00    +0.000 A 
ATOM     19  C   UNL     1      49.316   5.564  17.192  0.00  0.00    +0.000 A 
ATOM     20  N   UNL     1      49.185   5.713  15.854  0.00  0.00    +0.000 NA
ATOM     21  C   UNL     1      48.841   6.967  15.494  0.00  0.00    +0.000 A 
ENDBRANCH  12  13
ENDBRANCH   4  12
TORSDOF 3
ENDMDL
MODEL 8
REMARK VINA RESULT:    -5.765      3.295      4.617
REMARK INTER + INTRA:          -7.302
REMARK INTER:                  -6.871
REMARK INTRA:                  -0.431
REMARK UNBOUND:                -0.526
REMARK  Name = 
REMARK  3 active torsions:
REMARK  status: ('A' for Active; 'I' for Inactive)
REMARK    1  A    between atoms: C_2  and  C_4
REMARK    2  A    between atoms: C_7  and  C_8
REMARK    3  A    between atoms: C_8  and  N_9
REMARK                            x       y       z     vdW  Elec       q    Type
REMARK                         _______ _______ _______ _____ _____    ______ ____
ROOT
ATOM      1  C   UNL     1      44.562   4.110  11.411  0.00  0.00    +0.000 A 
ATOM      2  C   UNL     1      44.878   5.154  10.534  0.00  0.00    +0.000 A 
ATOM      3  C   UNL     1      45.416   6.347  11.024  0.00  0.00    +0.000 A 
ATOM      4  C   UNL     1      45.640   6.515  12.398  0.00  0.00    +0.000 A 
ATOM      5  C   UNL     1      45.305   5.471  13.274  0.00  0.00    +0.000 A 
ATOM      6  C   UNL     1      44.764   4.277  12.785  0.00  0.00    +0.000 A 
ENDROOT
BRANCH   1   8
ATOM      7  N   UNL     1      44.646   2.217   9.885  0.00  0.00    +0.000 N 
ATOM      8  C   UNL     1      43.993   2.828  10.919  0.00  0.00    +0.000 C 
ATOM      9  O   UNL     1      43.009   2.317  11.438  0.00  0.00    +0.000 OA
ATOM     10  H   UNL     1      44.315   1.304   9.614  0.00  0.00    +0.000 HD
ATOM     11  H   UNL     1      45.584   2.480   9.611  0.00  0.00    +0.000 HD
ENDBRANCH   1   8
BRANCH   4  12
ATOM     12  C   UNL     1      46.228   7.801  12.925  0.00  0.00    +0.000 C 
BRANCH  12  13
ATOM     13  N   UNL     1      47.642   7.944  12.611  0.00  0.00    +0.000 N 
ATOM     14  C   UNL     1      48.575   6.934  12.674  0.00  0.00    +0.000 A 
ATOM     15  C   UNL     1      49.756   7.413  12.147  0.00  0.00    +0.000 A 
ATOM     16  C   UNL     1      49.530   8.751  11.730  0.00  0.00    +0.000 A 
ATOM     17  C   UNL     1      50.293   9.741  11.093  0.00  0.00    +0.000 A 
ATOM     18  C   UNL     1      49.677  10.961  10.821  0.00  0.00    +0.000 A 
ATOM     19  C   UNL     1      48.355  11.146  11.202  0.00  0.00    +0.000 A 
ATOM     20  N   UNL     1      47.572  10.230  11.817  0.00  0.00    +0.000 NA
ATOM     21  C   UNL     1      48.208   9.062  12.048  0.00  0.00    +0.000 A 
ENDBRANCH  12  13
ENDBRANCH   4  12
TORSDOF 3
ENDMDL
MODEL 9
REMARK VINA RESULT:    -5.699      1.628      2.319
REMARK INTER + INTRA:          -7.224
REMARK INTER:                  -6.746
REMARK INTRA:                  -0.478
REMARK UNBOUND:                -0.526
REMARK  Name = 
REMARK  3 active torsions:
REMARK  status: ('A' for Active; 'I' for Inactive)
REMARK    1  A    between atoms: C_2  and  C_4
REMARK    2  A    between atoms: C_7  and  C_8
REMARK    3  A    between atoms: C_8  and  N_9
REMARK                            x       y       z     vdW  Elec       q    Type
REMARK                         _______ _______ _______ _____ _____    ______ ____
ROOT
ATOM      1  C   UNL     1      45.427   3.407   9.311  0.00  0.00    +0.000 A 
ATOM      2  C   UNL     1      45.681   4.774   9.150  0.00  0.00    +0.000 A 
ATOM      3  C   UNL     1      45.387   5.671  10.181  0.00  0.00    +0.000 A 
ATOM      4  C   UNL     1      44.829   5.215  11.384  0.00  0.00    +0.000 A 
ATOM      5  C   UNL     1      44.561   3.845  11.532  0.00  0.00    +0.000 A 
ATOM      6  C   UNL     1      44.852   2.947  10.500  0.00  0.00    +0.000 A 
ENDROOT
BRANCH   1   8
ATOM      7  N   UNL     1      45.947   2.933   6.983  0.00  0.00    +0.000 N 
ATOM      8  C   UNL     1      45.733   2.429   8.235  0.00  0.00    +0.000 C 
ATOM      9  O   UNL     1      45.832   1.229   8.462  0.00  0.00    +0.000 OA
ATOM     10  H   UNL     1      46.246   2.279   6.274  0.00  0.00    +0.000 HD
ATOM     11  H   UNL     1      46.119   3.917   6.820  0.00  0.00    +0.000 HD
ENDBRANCH   1   8
BRANCH   4  12
ATOM     12  C   UNL     1      44.519   6.184  12.498  0.00  0.00    +0.000 C 
BRANCH  12  13
ATOM     13  N   UNL     1      45.622   7.092  12.777  0.00  0.00    +0.000 N 
ATOM     14  C   UNL     1      46.830   6.728  13.329  0.00  0.00    +0.000 A 
ATOM     15  C   UNL     1      47.666   7.823  13.283  0.00  0.00    +0.000 A 
ATOM     16  C   UNL     1      46.952   8.884  12.664  0.00  0.00    +0.000 A 
ATOM     17  C   UNL     1      47.250  10.203  12.290  0.00  0.00    +0.000 A 
ATOM     18  C   UNL     1      46.251  10.939  11.656  0.00  0.00    +0.000 A 
ATOM     19  C   UNL     1      45.014  10.345  11.438  0.00  0.00    +0.000 A 
ATOM     20  N   UNL     1      44.672   9.081  11.776  0.00  0.00    +0.000 NA
ATOM     21  C   UNL     1      45.674   8.404  12.375  0.00  0.00    +0.000 A 
ENDBRANCH  12  13
ENDBRANCH   4  12
TORSDOF 3
ENDMDL
