MODEL 1
REMARK VINA RESULT:    -8.651      0.000      0.000
REMARK INTER + INTRA:         -12.323
REMARK INTER:                 -11.686
REMARK INTRA:                  -0.637
REMARK UNBOUND:                -0.637
REMARK  Name = 
REMARK  7 active torsions:
REMARK  status: ('A' for Active; 'I' for Inactive)
REMARK    1  A    between atoms: C_1  and  O_2
REMARK    2  A    between atoms: O_2  and  C_3
REMARK    3  A    between atoms: C_5  and  C_6
REMARK    4  A    between atoms: C_6  and  N_7
REMARK    5  A    between atoms: N_7  and  C_8
REMARK    6  A    between atoms: C_11  and  C_12
REMARK    7  A    between atoms: C_21  and  C_22
REMARK                            x       y       z     vdW  Elec       q    Type
REMARK                         _______ _______ _______ _____ _____    ______ ____
ROOT
ATOM      1  C   UNL     1      43.780   5.096  11.298  0.00  0.00    +0.000 C 
ATOM      2  C   UNL     1      42.524   5.530  12.022  0.00  0.00    +0.000 C 
ATOM      3  C   UNL     1      42.938   4.099  12.098  0.00  0.00    +0.000 C 
ENDROOT
BRANCH   1   6
ATOM      4  C   UNL     1      47.039   5.076  13.387  0.00  0.00    +0.000 A 
ATOM      5  C   UNL     1      45.838   4.673  12.774  0.00  0.00    +0.000 A 
ATOM      6  C   UNL     1      45.142   5.490  11.864  0.00  0.00    +0.000 A 
ATOM      7  C   UNL     1      45.727   6.723  11.542  0.00  0.00    +0.000 A 
ATOM      8  C   UNL     1      46.938   7.124  12.113  0.00  0.00    +0.000 A 
ATOM      9  C   UNL     1      47.600   6.310  13.038  0.00  0.00    +0.000 A 
BRANCH   4  11
ATOM     10  C   UNL     1      47.202   4.230  15.609  0.00  0.00    +0.000 C 
ATOM     11  O   UNL     1      47.565   4.135  14.235  0.00  0.00    +0.000 OA
ENDBRANCH   4  11
BRANCH   9  12
ATOM     12  C   UNL     1      48.844   6.799  13.558  0.00  0.00    +0.000 C 
ATOM     13  N   UNL     1      49.827   7.204  14.017  0.00  0.00    +0.000 NA
ENDBRANCH   9  12
ENDBRANCH   1   6
BRANCH   1  14
ATOM     14  N   UNL     1      43.809   4.782   9.861  0.00  0.00    +0.000 N 
ATOM     15  H   UNL     1      42.890   4.689   9.437  0.00  0.00    +0.000 HD
BRANCH  14  16
ATOM     16  C   UNL     1      44.775   4.018   9.179  0.00  0.00    +0.000 A 
ATOM     17  C   UNL     1      45.679   4.526   8.246  0.00  0.00    +0.000 A 
ATOM     18  C   UNL     1      46.529   3.666   7.530  0.00  0.00    +0.000 A 
ATOM     19  C   UNL     1      46.471   2.278   7.724  0.00  0.00    +0.000 A 
ATOM     20  C   UNL     1      45.551   1.758   8.638  0.00  0.00    +0.000 A 
ATOM     21  C   UNL     1      44.719   2.624   9.349  0.00  0.00    +0.000 A 
BRANCH  19  22
ATOM     22  C   UNL     1      47.335   1.389   6.905  0.00  0.00    +0.000 C 
ATOM     23  N   UNL     1      48.364   1.969   6.212  0.00  0.00    +0.000 N 
ATOM     24  O   UNL     1      47.133   0.184   6.832  0.00  0.00    +0.000 OA
ATOM     25  H   UNL     1      48.441   2.966   6.071  0.00  0.00    +0.000 HD
ATOM     26  H   UNL     1      48.903   1.364   5.608  0.00  0.00    +0.000 HD
ENDBRANCH  19  22
ENDBRANCH  14  16
ENDBRANCH   1  14
TORSDOF 6
ENDMDL
MODEL 2
REMARK VINA RESULT:    -7.936      1.230      1.954
REMARK INTER + INTRA:         -11.356
REMARK INTER:                 -10.909
REMARK INTRA:                  -0.447
REMARK UNBOUND:                -0.637
REMARK  Name = 
REMARK  7 active torsions:
REMARK  status: ('A' for Active; 'I' for Inactive)
REMARK    1  A    between atoms: C_1  and  O_2
REMARK    2  A    between atoms: O_2  and  C_3
REMARK    3  A    between atoms: C_5  and  C_6
REMARK    4  A    between atoms: C_6  and  N_7
REMARK    5  A    between atoms: N_7  and  C_8
REMARK    6  A    between atoms: C_11  and  C_12
REMARK    7  A    between atoms: C_21  and  C_22
REMARK                            x       y       z     vdW  Elec       q    Type
REMARK                         _______ _______ _______ _____ _____    ______ ____
ROOT
ATOM      1  C   UNL     1      43.654   5.258  11.261  0.00  0.00    +0.000 C 
ATOM      2  C   UNL     1      42.292   5.540  11.857  0.00  0.00    +0.000 C 
ATOM      3  C   UNL     1      42.794   4.135  11.846  0.00  0.00    +0.000 C 
ENDROOT
BRANCH   1   6
ATOM      4  C   UNL     1      46.414   7.411  12.915  0.00  0.00    +0.000 A 
ATOM      5  C   UNL     1      45.210   7.016  12.303  0.00  0.00    +0.000 A 
ATOM      6  C   UNL     1      44.905   5.668  12.033  0.00  0.00    +0.000 A 
ATOM      7  C   UNL     1      45.840   4.710  12.452  0.00  0.00    +0.000 A 
ATOM      8  C   UNL     1      47.024   5.082  13.094  0.00  0.00    +0.000 A 
ATOM      9  C   UNL     1      47.322   6.429  13.327  0.00  0.00    +0.000 A 
BRANCH   4  11
ATOM     10  C   UNL     1      47.233   9.499  12.107  0.00  0.00    +0.000 C 
ATOM     11  O   UNL     1      46.518   8.767  13.097  0.00  0.00    +0.000 OA
ENDBRANCH   4  11
BRANCH   9  12
ATOM     12  C   UNL     1      48.553   6.713  14.006  0.00  0.00    +0.000 C 
ATOM     13  N   UNL     1      49.570   6.931  14.515  0.00  0.00    +0.000 NA
ENDBRANCH   9  12
ENDBRANCH   1   6
BRANCH   1  14
ATOM     14  N   UNL     1      43.880   5.100   9.816  0.00  0.00    +0.000 N 
ATOM     15  H   UNL     1      43.040   5.197   9.251  0.00  0.00    +0.000 HD
BRANCH  14  16
ATOM     16  C   UNL     1      44.834   4.274   9.192  0.00  0.00    +0.000 A 
ATOM     17  C   UNL     1      45.808   4.718   8.298  0.00  0.00    +0.000 A 
ATOM     18  C   UNL     1      46.643   3.801   7.635  0.00  0.00    +0.000 A 
ATOM     19  C   UNL     1      46.499   2.422   7.845  0.00  0.00    +0.000 A 
ATOM     20  C   UNL     1      45.509   1.967   8.720  0.00  0.00    +0.000 A 
ATOM     21  C   UNL     1      44.693   2.888   9.378  0.00  0.00    +0.000 A 
BRANCH  19  22
ATOM     22  C   UNL     1      47.351   1.474   7.081  0.00  0.00    +0.000 C 
ATOM     23  N   UNL     1      48.397   1.997   6.368  0.00  0.00    +0.000 N 
ATOM     24  O   UNL     1      47.125   0.271   7.068  0.00  0.00    +0.000 OA
ATOM     25  H   UNL     1      48.496   2.983   6.177  0.00  0.00    +0.000 HD
ATOM     26  H   UNL     1      48.928   1.350   5.801  0.00  0.00    +0.000 HD
ENDBRANCH  19  22
ENDBRANCH  14  16
ENDBRANCH   1  14
TORSDOF 6
ENDMDL
MODEL 3
REMARK VINA RESULT:    -5.989      2.982      4.863
REMARK INTER + INTRA:          -8.727
REMARK INTER:                  -7.955
REMARK INTRA:                  -0.773
REMARK UNBOUND:                -0.637
REMARK  Name = 
REMARK  7 active torsions:
REMARK  status: ('A' for Active; 'I' for Inactive)
REMARK    1  A    between atoms: C_1  and  O_2
REMARK    2  A    between atoms: O_2  and  C_3
REMARK    3  A    between atoms: C_5  and  C_6
REMARK    4  A    between atoms: C_6  and  N_7
REMARK    5  A    between atoms: N_7  and  C_8
REMARK    6  A    between atoms: C_11  and  C_12
REMARK    7  A    between atoms: C_21  and  C_22
REMARK                            x       y       z     vdW  Elec       q    Type
REMARK                         _______ _______ _______ _____ _____    ______ ____
ROOT
ATOM      1  C   UNL     1      47.925   7.987  12.500  0.00  0.00    +0.000 C 
ATOM      2  C   UNL     1      48.996   7.742  11.459  0.00  0.00    +0.000 C 
ATOM      3  C   UNL     1      48.599   9.148  11.764  0.00  0.00    +0.000 C 
ENDROOT
BRANCH   1   6
ATOM      4  C   UNL     1      48.673   6.319  15.913  0.00  0.00    +0.000 A 
ATOM      5  C   UNL     1      48.473   6.518  14.535  0.00  0.00    +0.000 A 
ATOM      6  C   UNL     1      48.262   7.793  13.977  0.00  0.00    +0.000 A 
ATOM      7  C   UNL     1      48.314   8.886  14.854  0.00  0.00    +0.000 A 
ATOM      8  C   UNL     1      48.549   8.711  16.221  0.00  0.00    +0.000 A 
ATOM      9  C   UNL     1      48.726   7.433  16.761  0.00  0.00    +0.000 A 
BRANCH   4  11
ATOM     10  C   UNL     1      47.701   4.216  16.472  0.00  0.00    +0.000 C 
ATOM     11  O   UNL     1      48.867   5.005  16.256  0.00  0.00    +0.000 OA
ENDBRANCH   4  11
BRANCH   9  12
ATOM     12  C   UNL     1      48.977   7.353  18.170  0.00  0.00    +0.000 C 
ATOM     13  N   UNL     1      49.134   7.294  19.316  0.00  0.00    +0.000 NA
ENDBRANCH   9  12
ENDBRANCH   1   6
BRANCH   1  14
ATOM     14  N   UNL     1      46.487   7.895  12.209  0.00  0.00    +0.000 N 
ATOM     15  H   UNL     1      45.923   8.607  12.666  0.00  0.00    +0.000 HD
BRANCH  14  16
ATOM     16  C   UNL     1      45.745   6.725  11.962  0.00  0.00    +0.000 A 
ATOM     17  C   UNL     1      45.070   5.988  12.936  0.00  0.00    +0.000 A 
ATOM     18  C   UNL     1      44.453   4.768  12.612  0.00  0.00    +0.000 A 
ATOM     19  C   UNL     1      44.519   4.256  11.307  0.00  0.00    +0.000 A 
ATOM     20  C   UNL     1      45.214   4.975  10.331  0.00  0.00    +0.000 A 
ATOM     21  C   UNL     1      45.815   6.190  10.664  0.00  0.00    +0.000 A 
BRANCH  19  22
ATOM     22  C   UNL     1      43.914   2.933  11.010  0.00  0.00    +0.000 C 
ATOM     23  N   UNL     1      44.442   2.215   9.970  0.00  0.00    +0.000 N 
ATOM     24  O   UNL     1      42.968   2.497  11.653  0.00  0.00    +0.000 OA
ATOM     25  H   UNL     1      45.070   2.613   9.287  0.00  0.00    +0.000 HD
ATOM     26  H   UNL     1      43.980   1.346   9.737  0.00  0.00    +0.000 HD
ENDBRANCH  19  22
ENDBRANCH  14  16
ENDBRANCH   1  14
TORSDOF 6
ENDMDL
MODEL 4
REMARK VINA RESULT:    -5.841      2.828      5.299
REMARK INTER + INTRA:          -8.527
REMARK INTER:                  -7.926
REMARK INTRA:                  -0.601
REMARK UNBOUND:                -0.637
REMARK  Name = 
REMARK  7 active torsions:
REMARK  status: ('A' for Active; 'I' for Inactive)
REMARK    1  A    between atoms: C_1  and  O_2
REMARK    2  A    between atoms: O_2  and  C_3
REMARK    3  A    between atoms: C_5  and  C_6
REMARK    4  A    between atoms: C_6  and  N_7
REMARK    5  A    between atoms: N_7  and  C_8
REMARK    6  A    between atoms: C_11  and  C_12
REMARK    7  A    between atoms: C_21  and  C_22
REMARK                            x       y       z     vdW  Elec       q    Type
REMARK                         _______ _______ _______ _____ _____    ______ ____
ROOT
ATOM      1  C   UNL     1      48.454   7.530  14.002  0.00  0.00    +0.000 C 
ATOM      2  C   UNL     1      49.265   8.087  12.853  0.00  0.00    +0.000 C 
ATOM      3  C   UNL     1      48.699   9.033  13.858  0.00  0.00    +0.000 C 
ENDROOT
BRANCH   1   6
ATOM      4  C   UNL     1      49.130   5.271  17.073  0.00  0.00    +0.000 A 
ATOM      5  C   UNL     1      48.512   5.865  15.958  0.00  0.00    +0.000 A 
ATOM      6  C   UNL     1      49.170   6.800  15.136  0.00  0.00    +0.000 A 
ATOM      7  C   UNL     1      50.508   7.084  15.443  0.00  0.00    +0.000 A 
ATOM      8  C   UNL     1      51.150   6.475  16.526  0.00  0.00    +0.000 A 
ATOM      9  C   UNL     1      50.470   5.570  17.348  0.00  0.00    +0.000 A 
BRANCH   4  11
ATOM     10  C   UNL     1      47.154   3.938  17.061  0.00  0.00    +0.000 C 
ATOM     11  O   UNL     1      48.325   4.382  17.739  0.00  0.00    +0.000 OA
ENDBRANCH   4  11
BRANCH   9  12
ATOM     12  C   UNL     1      51.215   4.985  18.424  0.00  0.00    +0.000 C 
ATOM     13  N   UNL     1      51.814   4.553  19.316  0.00  0.00    +0.000 NA
ENDBRANCH   9  12
ENDBRANCH   1   6
BRANCH   1  14
ATOM     14  N   UNL     1      47.031   7.177  13.883  0.00  0.00    +0.000 N 
ATOM     15  H   UNL     1      46.546   7.098  14.772  0.00  0.00    +0.000 HD
BRANCH  14  16
ATOM     16  C   UNL     1      46.437   6.370  12.894  0.00  0.00    +0.000 A 
ATOM     17  C   UNL     1      46.265   6.740  11.560  0.00  0.00    +0.000 A 
ATOM     18  C   UNL     1      45.556   5.913  10.672  0.00  0.00    +0.000 A 
ATOM     19  C   UNL     1      44.989   4.708  11.114  0.00  0.00    +0.000 A 
ATOM     20  C   UNL     1      45.134   4.341  12.455  0.00  0.00    +0.000 A 
ATOM     21  C   UNL     1      45.849   5.168  13.324  0.00  0.00    +0.000 A 
BRANCH  19  22
ATOM     22  C   UNL     1      44.189   3.887  10.170  0.00  0.00    +0.000 C 
ATOM     23  N   UNL     1      44.031   4.362   8.895  0.00  0.00    +0.000 N 
ATOM     24  O   UNL     1      43.670   2.832  10.513  0.00  0.00    +0.000 OA
ATOM     25  H   UNL     1      44.254   5.310   8.628  0.00  0.00    +0.000 HD
ATOM     26  H   UNL     1      43.431   3.827   8.282  0.00  0.00    +0.000 HD
ENDBRANCH  19  22
ENDBRANCH  14  16
ENDBRANCH   1  14
TORSDOF 6
ENDMDL
