MODEL 1
REMARK VINA RESULT:    -8.316      0.000      0.000
REMARK INTER + INTRA:         -14.055
REMARK INTER:                 -12.692
REMARK INTRA:                  -1.363
REMARK UNBOUND:                -1.363
REMARK  Name = 
REMARK  10 active torsions:
REMARK  status: ('A' for Active; 'I' for Inactive)
REMARK    1  A    between atoms: C_1  and  O_2
REMARK    2  A    between atoms: O_2  and  C_3
REMARK    3  A    between atoms: C_5  and  O_6
REMARK    4  A    between atoms: O_6  and  C_7
REMARK    5  A    between atoms: C_7  and  C_8
REMARK    6  A    between atoms: N_11  and  C_12
REMARK    7  A    between atoms: C_12  and  C_13
REMARK    8  A    between atoms: C_22  and  C_23
REMARK    9  A    between atoms: C_23  and  N_24
REMARK   10  A    between atoms: C_25  and  C_27
REMARK                            x       y       z     vdW  Elec       q    Type
REMARK                         _______ _______ _______ _____ _____    ______ ____
ROOT
ATOM      1  C   UNL     1      47.930   4.892  16.472  0.00  0.00    +0.000 A 
ATOM      2  C   UNL     1      47.190   4.577  15.322  0.00  0.00    +0.000 A 
ATOM      3  C   UNL     1      47.299   5.365  14.174  0.00  0.00    +0.000 A 
ATOM      4  C   UNL     1      48.078   6.522  14.204  0.00  0.00    +0.000 A 
ATOM      5  C   UNL     1      48.825   6.837  15.332  0.00  0.00    +0.000 A 
ATOM      6  C   UNL     1      48.766   6.025  16.474  0.00  0.00    +0.000 A 
ENDROOT
BRANCH   1   8
ATOM      7  C   UNL     1      47.192   2.931  17.594  0.00  0.00    +0.000 C 
ATOM      8  O   UNL     1      47.882   4.174  17.640  0.00  0.00    +0.000 OA
ENDBRANCH   1   8
BRANCH   3   9
ATOM      9  O   UNL     1      46.633   4.918  13.055  0.00  0.00    +0.000 OA
BRANCH   9  10
ATOM     10  C   UNL     1      45.243   4.667  13.298  0.00  0.00    +0.000 C 
BRANCH  10  11
ATOM     11  C   UNL     1      44.340   5.329  12.248  0.00  0.00    +0.000 C 
ATOM     12  C   UNL     1      43.087   4.507  11.933  0.00  0.00    +0.000 C 
ATOM     13  C   UNL     1      43.419   3.204  11.201  0.00  0.00    +0.000 C 
ATOM     14  N   UNL     1      44.175   3.446   9.958  0.00  0.00    +0.000 NA
ATOM     15  C   UNL     1      45.404   4.216  10.213  0.00  0.00    +0.000 C 
ATOM     16  C   UNL     1      45.128   5.538  10.945  0.00  0.00    +0.000 C 
BRANCH  14  17
ATOM     17  C   UNL     1      44.535   2.168   9.311  0.00  0.00    +0.000 C 
BRANCH  17  18
ATOM     18  C   UNL     1      45.541   2.348   8.223  0.00  0.00    +0.000 A 
ATOM     19  C   UNL     1      45.693   3.353   7.286  0.00  0.00    +0.000 A 
ATOM     20  C   UNL     1      46.811   3.027   6.484  0.00  0.00    +0.000 A 
ATOM     21  C   UNL     1      47.318   1.835   6.951  0.00  0.00    +0.000 A 
ATOM     22  N   UNL     1      46.546   1.435   8.010  0.00  0.00    +0.000 N 
ATOM     23  H   UNL     1      46.699   0.612   8.581  0.00  0.00    +0.000 HD
ENDBRANCH  17  18
ENDBRANCH  14  17
ENDBRANCH  10  11
ENDBRANCH   9  10
ENDBRANCH   3   9
BRANCH   6  24
ATOM     24  C   UNL     1      49.654   6.385  17.639  0.00  0.00    +0.000 C 
BRANCH  24  25
ATOM     25  N   UNL     1      50.623   5.350  17.919  0.00  0.00    +0.000 N 
ATOM     26  C   UNL     1      51.867   5.304  17.340  0.00  0.00    +0.000 C 
ATOM     27  O   UNL     1      52.255   6.147  16.535  0.00  0.00    +0.000 OA
ATOM     28  H   UNL     1      50.263   4.528  18.390  0.00  0.00    +0.000 HD
BRANCH  26  29
ATOM     29  C   UNL     1      52.758   4.232  17.812  0.00  0.00    +0.000 A 
ATOM     30  C   UNL     1      53.995   4.553  18.357  0.00  0.00    +0.000 A 
ATOM     31  S   UNL     1      54.849   3.203  18.956  0.00  0.00    +0.000 S 
ATOM     32  C   UNL     1      53.624   2.135  18.454  0.00  0.00    +0.000 A 
ATOM     33  N   UNL     1      53.727   0.797  18.676  0.00  0.00    +0.000 NA
ATOM     34  C   UNL     1      52.744   0.102  18.210  0.00  0.00    +0.000 A 
ATOM     35  N   UNL     1      51.670   0.623  17.538  0.00  0.00    +0.000 N 
ATOM     36  C   UNL     1      51.505   1.972  17.321  0.00  0.00    +0.000 A 
ATOM     37  O   UNL     1      50.504   2.407  16.764  0.00  0.00    +0.000 OA
ATOM     38  C   UNL     1      52.581   2.799  17.831  0.00  0.00    +0.000 A 
ATOM     39  H   UNL     1      50.930   0.026  17.199  0.00  0.00    +0.000 HD
ENDBRANCH  26  29
ENDBRANCH  24  25
ENDBRANCH   6  24
TORSDOF 9
ENDMDL
MODEL 2
REMARK VINA RESULT:    -7.320      2.618      3.809
REMARK INTER + INTRA:         -12.534
REMARK INTER:                 -10.904
REMARK INTRA:                  -1.630
REMARK UNBOUND:                -1.363
REMARK  Name = 
REMARK  10 active torsions:
REMARK  status: ('A' for Active; 'I' for Inactive)
REMARK    1  A    between atoms: C_1  and  O_2
REMARK    2  A    between atoms: O_2  and  C_3
REMARK    3  A    between atoms: C_5  and  O_6
REMARK    4  A    between atoms: O_6  and  C_7
REMARK    5  A    between atoms: C_7  and  C_8
REMARK    6  A    between atoms: N_11  and  C_12
REMARK    7  A    between atoms: C_12  and  C_13
REMARK    8  A    between atoms: C_22  and  C_23
REMARK    9  A    between atoms: C_23  and  N_24
REMARK   10  A    between atoms: C_25  and  C_27
REMARK                            x       y       z     vdW  Elec       q    Type
REMARK                         _______ _______ _______ _____ _____    ______ ____
ROOT
ATOM      1  C   UNL     1      48.266   9.039  13.900  0.00  0.00    +0.000 A 
ATOM      2  C   UNL     1      47.025   9.074  13.245  0.00  0.00    +0.000 A 
ATOM      3  C   UNL     1      46.777   8.237  12.154  0.00  0.00    +0.000 A 
ATOM      4  C   UNL     1      47.802   7.431  11.659  0.00  0.00    +0.000 A 
ATOM      5  C   UNL     1      49.030   7.378  12.306  0.00  0.00    +0.000 A 
ATOM      6  C   UNL     1      49.274   8.173  13.435  0.00  0.00    +0.000 A 
ENDROOT
BRANCH   1   8
ATOM      7  C   UNL     1      49.123  11.112  14.685  0.00  0.00    +0.000 C 
ATOM      8  O   UNL     1      48.592   9.825  14.976  0.00  0.00    +0.000 OA
ENDBRANCH   1   8
BRANCH   3   9
ATOM      9  O   UNL     1      45.498   8.249  11.647  0.00  0.00    +0.000 OA
BRANCH   9  10
ATOM     10  C   UNL     1      44.993   6.935  11.377  0.00  0.00    +0.000 C 
BRANCH  10  11
ATOM     11  C   UNL     1      44.514   6.223  12.649  0.00  0.00    +0.000 C 
ATOM     12  C   UNL     1      45.385   5.021  13.026  0.00  0.00    +0.000 C 
ATOM     13  C   UNL     1      45.252   3.874  12.022  0.00  0.00    +0.000 C 
ATOM     14  N   UNL     1      43.852   3.436  11.865  0.00  0.00    +0.000 NA
ATOM     15  C   UNL     1      42.975   4.555  11.480  0.00  0.00    +0.000 C 
ATOM     16  C   UNL     1      43.068   5.737  12.457  0.00  0.00    +0.000 C 
BRANCH  14  17
ATOM     17  C   UNL     1      43.750   2.374  10.845  0.00  0.00    +0.000 C 
BRANCH  17  18
ATOM     18  C   UNL     1      44.547   2.684   9.622  0.00  0.00    +0.000 A 
ATOM     19  C   UNL     1      44.554   3.797   8.803  0.00  0.00    +0.000 A 
ATOM     20  C   UNL     1      45.500   3.570   7.777  0.00  0.00    +0.000 A 
ATOM     21  C   UNL     1      46.052   2.328   7.995  0.00  0.00    +0.000 A 
ATOM     22  N   UNL     1      45.473   1.802   9.121  0.00  0.00    +0.000 N 
ATOM     23  H   UNL     1      45.706   0.913   9.550  0.00  0.00    +0.000 HD
ENDBRANCH  17  18
ENDBRANCH  14  17
ENDBRANCH  10  11
ENDBRANCH   9  10
ENDBRANCH   3   9
BRANCH   6  24
ATOM     24  C   UNL     1      50.603   8.017  14.130  0.00  0.00    +0.000 C 
BRANCH  24  25
ATOM     25  N   UNL     1      50.549   7.028  15.183  0.00  0.00    +0.000 N 
ATOM     26  C   UNL     1      50.545   7.347  16.518  0.00  0.00    +0.000 C 
ATOM     27  O   UNL     1      50.585   8.506  16.923  0.00  0.00    +0.000 OA
ATOM     28  H   UNL     1      50.743   6.075  14.900  0.00  0.00    +0.000 HD
BRANCH  26  29
ATOM     29  C   UNL     1      50.390   6.219  17.450  0.00  0.00    +0.000 A 
ATOM     30  C   UNL     1      51.250   6.096  18.534  0.00  0.00    +0.000 A 
ATOM     31  S   UNL     1      50.861   4.799  19.572  0.00  0.00    +0.000 S 
ATOM     32  C   UNL     1      49.566   4.320  18.578  0.00  0.00    +0.000 A 
ATOM     33  N   UNL     1      48.790   3.252  18.906  0.00  0.00    +0.000 NA
ATOM     34  C   UNL     1      47.868   2.978  18.045  0.00  0.00    +0.000 A 
ATOM     35  N   UNL     1      47.655   3.673  16.883  0.00  0.00    +0.000 N 
ATOM     36  C   UNL     1      48.390   4.779  16.528  0.00  0.00    +0.000 A 
ATOM     37  O   UNL     1      48.136   5.409  15.507  0.00  0.00    +0.000 OA
ATOM     38  C   UNL     1      49.438   5.133  17.466  0.00  0.00    +0.000 A 
ATOM     39  H   UNL     1      46.915   3.409  16.250  0.00  0.00    +0.000 HD
ENDBRANCH  26  29
ENDBRANCH  24  25
ENDBRANCH   6  24
TORSDOF 9
ENDMDL
MODEL 3
REMARK VINA RESULT:    -7.267      3.541      8.955
REMARK INTER + INTRA:         -12.453
REMARK INTER:                 -10.074
REMARK INTRA:                  -2.380
REMARK UNBOUND:                -1.363
REMARK  Name = 
REMARK  10 active torsions:
REMARK  status: ('A' for Active; 'I' for Inactive)
REMARK    1  A    between atoms: C_1  and  O_2
REMARK    2  A    between atoms: O_2  and  C_3
REMARK    3  A    between atoms: C_5  and  O_6
REMARK    4  A    between atoms: O_6  and  C_7
REMARK    5  A    between atoms: C_7  and  C_8
REMARK    6  A    between atoms: N_11  and  C_12
REMARK    7  A    between atoms: C_12  and  C_13
REMARK    8  A    between atoms: C_22  and  C_23
REMARK    9  A    between atoms: C_23  and  N_24
REMARK   10  A    between atoms: C_25  and  C_27
REMARK                            x       y       z     vdW  Elec       q    Type
REMARK                         _______ _______ _______ _____ _____    ______ ____
ROOT
ATOM      1  C   UNL     1      49.269   7.920  12.678  0.00  0.00    +0.000 A 
ATOM      2  C   UNL     1      50.150   7.976  13.769  0.00  0.00    +0.000 A 
ATOM      3  C   UNL     1      49.714   8.457  15.006  0.00  0.00    +0.000 A 
ATOM      4  C   UNL     1      48.422   8.969  15.128  0.00  0.00    +0.000 A 
ATOM      5  C   UNL     1      47.538   8.908  14.059  0.00  0.00    +0.000 A 
ATOM      6  C   UNL     1      47.946   8.377  12.826  0.00  0.00    +0.000 A 
ENDROOT
BRANCH   1   8
ATOM      7  C   UNL     1      50.961   7.679  11.026  0.00  0.00    +0.000 C 
ATOM      8  O   UNL     1      49.615   7.463  11.431  0.00  0.00    +0.000 OA
ENDBRANCH   1   8
BRANCH   3   9
ATOM      9  O   UNL     1      50.605   8.366  16.051  0.00  0.00    +0.000 OA
BRANCH   9  10
ATOM     10  C   UNL     1      51.176   7.059  16.184  0.00  0.00    +0.000 C 
BRANCH  10  11
ATOM     11  C   UNL     1      51.249   6.603  17.648  0.00  0.00    +0.000 C 
ATOM     12  C   UNL     1      51.341   5.081  17.796  0.00  0.00    +0.000 C 
ATOM     13  C   UNL     1      50.049   4.380  17.372  0.00  0.00    +0.000 C 
ATOM     14  N   UNL     1      48.878   4.877  18.120  0.00  0.00    +0.000 NA
ATOM     15  C   UNL     1      48.733   6.337  17.990  0.00  0.00    +0.000 C 
ATOM     16  C   UNL     1      50.005   7.093  18.406  0.00  0.00    +0.000 C 
BRANCH  14  17
ATOM     17  C   UNL     1      47.641   4.228  17.643  0.00  0.00    +0.000 C 
BRANCH  17  18
ATOM     18  C   UNL     1      47.484   4.326  16.162  0.00  0.00    +0.000 A 
ATOM     19  C   UNL     1      47.532   5.418  15.316  0.00  0.00    +0.000 A 
ATOM     20  C   UNL     1      47.314   4.951  13.999  0.00  0.00    +0.000 A 
ATOM     21  C   UNL     1      47.144   3.587  14.071  0.00  0.00    +0.000 A 
ATOM     22  N   UNL     1      47.256   3.216  15.385  0.00  0.00    +0.000 N 
ATOM     23  H   UNL     1      47.212   2.268  15.742  0.00  0.00    +0.000 HD
ENDBRANCH  17  18
ENDBRANCH  14  17
ENDBRANCH  10  11
ENDBRANCH   9  10
ENDBRANCH   3   9
BRANCH   6  24
ATOM     24  C   UNL     1      46.917   8.276  11.729  0.00  0.00    +0.000 C 
BRANCH  24  25
ATOM     25  N   UNL     1      46.347   6.950  11.643  0.00  0.00    +0.000 N 
ATOM     26  C   UNL     1      45.001   6.714  11.522  0.00  0.00    +0.000 C 
ATOM     27  O   UNL     1      44.171   7.618  11.475  0.00  0.00    +0.000 OA
ATOM     28  H   UNL     1      46.965   6.191  11.905  0.00  0.00    +0.000 HD
BRANCH  26  29
ATOM     29  C   UNL     1      44.607   5.306  11.354  0.00  0.00    +0.000 A 
ATOM     30  C   UNL     1      43.891   4.665  12.356  0.00  0.00    +0.000 A 
ATOM     31  S   UNL     1      43.419   3.077  11.951  0.00  0.00    +0.000 S 
ATOM     32  C   UNL     1      44.205   3.168  10.445  0.00  0.00    +0.000 A 
ATOM     33  N   UNL     1      44.180   2.121   9.578  0.00  0.00    +0.000 NA
ATOM     34  C   UNL     1      44.848   2.313   8.490  0.00  0.00    +0.000 A 
ATOM     35  N   UNL     1      45.542   3.457   8.193  0.00  0.00    +0.000 N 
ATOM     36  C   UNL     1      45.567   4.554   9.022  0.00  0.00    +0.000 A 
ATOM     37  O   UNL     1      46.154   5.580   8.700  0.00  0.00    +0.000 OA
ATOM     38  C   UNL     1      44.825   4.391  10.258  0.00  0.00    +0.000 A 
ATOM     39  H   UNL     1      46.045   3.547   7.323  0.00  0.00    +0.000 HD
ENDBRANCH  26  29
ENDBRANCH  24  25
ENDBRANCH   6  24
TORSDOF 9
ENDMDL
MODEL 4
REMARK VINA RESULT:    -6.826      4.058      9.528
REMARK INTER + INTRA:         -11.780
REMARK INTER:                  -9.837
REMARK INTRA:                  -1.943
REMARK UNBOUND:                -1.363
REMARK  Name = 
REMARK  10 active torsions:
REMARK  status: ('A' for Active; 'I' for Inactive)
REMARK    1  A    between atoms: C_1  and  O_2
REMARK    2  A    between atoms: O_2  and  C_3
REMARK    3  A    between atoms: C_5  and  O_6
REMARK    4  A    between atoms: O_6  and  C_7
REMARK    5  A    between atoms: C_7  and  C_8
REMARK    6  A    between atoms: N_11  and  C_12
REMARK    7  A    between atoms: C_12  and  C_13
REMARK    8  A    between atoms: C_22  and  C_23
REMARK    9  A    between atoms: C_23  and  N_24
REMARK   10  A    between atoms: C_25  and  C_27
REMARK                            x       y       z     vdW  Elec       q    Type
REMARK                         _______ _______ _______ _____ _____    ______ ____
ROOT
ATOM      1  C   UNL     1      49.612   3.645  17.641  0.00  0.00    +0.000 A 
ATOM      2  C   UNL     1      50.500   4.214  18.565  0.00  0.00    +0.000 A 
ATOM      3  C   UNL     1      50.077   5.243  19.411  0.00  0.00    +0.000 A 
ATOM      4  C   UNL     1      48.792   5.766  19.269  0.00  0.00    +0.000 A 
ATOM      5  C   UNL     1      47.900   5.202  18.366  0.00  0.00    +0.000 A 
ATOM      6  C   UNL     1      48.295   4.132  17.548  0.00  0.00    +0.000 A 
ENDROOT
BRANCH   1   8
ATOM      7  C   UNL     1      50.964   1.739  17.204  0.00  0.00    +0.000 C 
ATOM      8  O   UNL     1      49.945   2.634  16.775  0.00  0.00    +0.000 OA
ENDBRANCH   1   8
BRANCH   3   9
ATOM      9  O   UNL     1      50.974   5.662  20.367  0.00  0.00    +0.000 OA
BRANCH   9  10
ATOM     10  C   UNL     1      51.008   7.088  20.513  0.00  0.00    +0.000 C 
BRANCH  10  11
ATOM     11  C   UNL     1      52.441   7.635  20.544  0.00  0.00    +0.000 C 
ATOM     12  C   UNL     1      52.524   9.117  20.167  0.00  0.00    +0.000 C 
ATOM     13  C   UNL     1      52.189   9.357  18.693  0.00  0.00    +0.000 C 
ATOM     14  N   UNL     1      53.054   8.571  17.793  0.00  0.00    +0.000 NA
ATOM     15  C   UNL     1      52.992   7.132  18.103  0.00  0.00    +0.000 C 
ATOM     16  C   UNL     1      53.323   6.833  19.573  0.00  0.00    +0.000 C 
BRANCH  14  17
ATOM     17  C   UNL     1      52.664   8.775  16.384  0.00  0.00    +0.000 C 
BRANCH  17  18
ATOM     18  C   UNL     1      51.290   8.267  16.098  0.00  0.00    +0.000 A 
ATOM     19  C   UNL     1      50.824   6.983  15.886  0.00  0.00    +0.000 A 
ATOM     20  C   UNL     1      49.432   7.064  15.652  0.00  0.00    +0.000 A 
ATOM     21  C   UNL     1      49.079   8.392  15.731  0.00  0.00    +0.000 A 
ATOM     22  N   UNL     1      50.211   9.113  16.009  0.00  0.00    +0.000 N 
ATOM     23  H   UNL     1      50.256  10.114  16.161  0.00  0.00    +0.000 HD
ENDBRANCH  17  18
ENDBRANCH  14  17
ENDBRANCH  10  11
ENDBRANCH   9  10
ENDBRANCH   3   9
BRANCH   6  24
ATOM     24  C   UNL     1      47.258   3.522  16.639  0.00  0.00    +0.000 C 
BRANCH  24  25
ATOM     25  N   UNL     1      46.770   4.471  15.664  0.00  0.00    +0.000 N 
ATOM     26  C   UNL     1      46.775   4.234  14.312  0.00  0.00    +0.000 C 
ATOM     27  O   UNL     1      47.195   3.187  13.825  0.00  0.00    +0.000 OA
ATOM     28  H   UNL     1      46.633   5.416  16.003  0.00  0.00    +0.000 HD
BRANCH  26  29
ATOM     29  C   UNL     1      46.154   5.271  13.473  0.00  0.00    +0.000 A 
ATOM     30  C   UNL     1      46.856   6.434  13.180  0.00  0.00    +0.000 A 
ATOM     31  S   UNL     1      46.037   7.475  12.107  0.00  0.00    +0.000 S 
ATOM     32  C   UNL     1      44.690   6.439  12.042  0.00  0.00    +0.000 A 
ATOM     33  N   UNL     1      43.608   6.744  11.275  0.00  0.00    +0.000 NA
ATOM     34  C   UNL     1      42.644   5.888  11.348  0.00  0.00    +0.000 A 
ATOM     35  N   UNL     1      42.662   4.758  12.123  0.00  0.00    +0.000 N 
ATOM     36  C   UNL     1      43.745   4.391  12.886  0.00  0.00    +0.000 A 
ATOM     37  O   UNL     1      43.747   3.345  13.525  0.00  0.00    +0.000 OA
ATOM     38  C   UNL     1      44.860   5.318  12.834  0.00  0.00    +0.000 A 
ATOM     39  H   UNL     1      41.875   4.127  12.137  0.00  0.00    +0.000 HD
ENDBRANCH  26  29
ENDBRANCH  24  25
ENDBRANCH   6  24
TORSDOF 9
ENDMDL
MODEL 5
REMARK VINA RESULT:    -6.768      2.624      3.630
REMARK INTER + INTRA:         -11.692
REMARK INTER:                 -10.668
REMARK INTRA:                  -1.025
REMARK UNBOUND:                -1.363
REMARK  Name = 
REMARK  10 active torsions:
REMARK  status: ('A' for Active; 'I' for Inactive)
REMARK    1  A    between atoms: C_1  and  O_2
REMARK    2  A    between atoms: O_2  and  C_3
REMARK    3  A    between atoms: C_5  and  O_6
REMARK    4  A    between atoms: O_6  and  C_7
REMARK    5  A    between atoms: C_7  and  C_8
REMARK    6  A    between atoms: N_11  and  C_12
REMARK    7  A    between atoms: C_12  and  C_13
REMARK    8  A    between atoms: C_22  and  C_23
REMARK    9  A    between atoms: C_23  and  N_24
REMARK   10  A    between atoms: C_25  and  C_27
REMARK                            x       y       z     vdW  Elec       q    Type
REMARK                         _______ _______ _______ _____ _____    ______ ____
ROOT
ATOM      1  C   UNL     1      50.037   7.966  12.421  0.00  0.00    +0.000 A 
ATOM      2  C   UNL     1      48.825   7.849  11.723  0.00  0.00    +0.000 A 
ATOM      3  C   UNL     1      47.653   7.495  12.397  0.00  0.00    +0.000 A 
ATOM      4  C   UNL     1      47.710   7.169  13.752  0.00  0.00    +0.000 A 
ATOM      5  C   UNL     1      48.902   7.293  14.455  0.00  0.00    +0.000 A 
ATOM      6  C   UNL     1      50.075   7.700  13.802  0.00  0.00    +0.000 A 
ENDROOT
BRANCH   1   8
ATOM      7  C   UNL     1      51.595   7.587  10.665  0.00  0.00    +0.000 C 
ATOM      8  O   UNL     1      51.231   8.307  11.837  0.00  0.00    +0.000 OA
ENDBRANCH   1   8
BRANCH   3   9
ATOM      9  O   UNL     1      46.489   7.520  11.663  0.00  0.00    +0.000 OA
BRANCH   9  10
ATOM     10  C   UNL     1      46.094   6.222  11.201  0.00  0.00    +0.000 C 
BRANCH  10  11
ATOM     11  C   UNL     1      44.966   5.621  12.051  0.00  0.00    +0.000 C 
ATOM     12  C   UNL     1      45.299   4.225  12.585  0.00  0.00    +0.000 C 
ATOM     13  C   UNL     1      45.366   3.180  11.469  0.00  0.00    +0.000 C 
ATOM     14  N   UNL     1      44.114   3.123  10.689  0.00  0.00    +0.000 NA
ATOM     15  C   UNL     1      43.763   4.441  10.134  0.00  0.00    +0.000 C 
ATOM     16  C   UNL     1      43.680   5.530  11.214  0.00  0.00    +0.000 C 
BRANCH  14  17
ATOM     17  C   UNL     1      44.234   2.153   9.582  0.00  0.00    +0.000 C 
BRANCH  17  18
ATOM     18  C   UNL     1      45.298   2.535   8.607  0.00  0.00    +0.000 A 
ATOM     19  C   UNL     1      45.550   3.732   7.963  0.00  0.00    +0.000 A 
ATOM     20  C   UNL     1      46.683   3.546   7.138  0.00  0.00    +0.000 A 
ATOM     21  C   UNL     1      47.099   2.243   7.300  0.00  0.00    +0.000 A 
ATOM     22  N   UNL     1      46.257   1.640   8.198  0.00  0.00    +0.000 N 
ATOM     23  H   UNL     1      46.337   0.691   8.544  0.00  0.00    +0.000 HD
ENDBRANCH  17  18
ENDBRANCH  14  17
ENDBRANCH  10  11
ENDBRANCH   9  10
ENDBRANCH   3   9
BRANCH   6  24
ATOM     24  C   UNL     1      51.318   7.880  14.637  0.00  0.00    +0.000 C 
BRANCH  24  25
ATOM     25  N   UNL     1      51.138   7.388  15.985  0.00  0.00    +0.000 N 
ATOM     26  C   UNL     1      52.057   6.596  16.627  0.00  0.00    +0.000 C 
ATOM     27  O   UNL     1      53.111   6.244  16.103  0.00  0.00    +0.000 OA
ATOM     28  H   UNL     1      50.199   7.463  16.357  0.00  0.00    +0.000 HD
BRANCH  26  29
ATOM     29  C   UNL     1      51.754   6.264  18.028  0.00  0.00    +0.000 A 
ATOM     30  C   UNL     1      52.610   6.686  19.038  0.00  0.00    +0.000 A 
ATOM     31  S   UNL     1      52.052   6.315  20.606  0.00  0.00    +0.000 S 
ATOM     32  C   UNL     1      50.676   5.527  19.991  0.00  0.00    +0.000 A 
ATOM     33  N   UNL     1      49.755   4.975  20.825  0.00  0.00    +0.000 NA
ATOM     34  C   UNL     1      48.781   4.377  20.223  0.00  0.00    +0.000 A 
ATOM     35  N   UNL     1      48.650   4.277  18.863  0.00  0.00    +0.000 N 
ATOM     36  C   UNL     1      49.537   4.849  17.981  0.00  0.00    +0.000 A 
ATOM     37  O   UNL     1      49.358   4.786  16.770  0.00  0.00    +0.000 OA
ATOM     38  C   UNL     1      50.648   5.539  18.608  0.00  0.00    +0.000 A 
ATOM     39  H   UNL     1      47.863   3.796  18.452  0.00  0.00    +0.000 HD
ENDBRANCH  26  29
ENDBRANCH  24  25
ENDBRANCH   6  24
TORSDOF 9
ENDMDL
MODEL 6
REMARK VINA RESULT:    -6.663      4.192      8.740
REMARK INTER + INTRA:         -11.532
REMARK INTER:                  -9.040
REMARK INTRA:                  -2.493
REMARK UNBOUND:                -1.363
REMARK  Name = 
REMARK  10 active torsions:
REMARK  status: ('A' for Active; 'I' for Inactive)
REMARK    1  A    between atoms: C_1  and  O_2
REMARK    2  A    between atoms: O_2  and  C_3
REMARK    3  A    between atoms: C_5  and  O_6
REMARK    4  A    between atoms: O_6  and  C_7
REMARK    5  A    between atoms: C_7  and  C_8
REMARK    6  A    between atoms: N_11  and  C_12
REMARK    7  A    between atoms: C_12  and  C_13
REMARK    8  A    between atoms: C_22  and  C_23
REMARK    9  A    between atoms: C_23  and  N_24
REMARK   10  A    between atoms: C_25  and  C_27
REMARK                            x       y       z     vdW  Elec       q    Type
REMARK                         _______ _______ _______ _____ _____    ______ ____
ROOT
ATOM      1  C   UNL     1      49.888   3.901  17.232  0.00  0.00    +0.000 A 
ATOM      2  C   UNL     1      51.015   4.595  17.700  0.00  0.00    +0.000 A 
ATOM      3  C   UNL     1      50.890   5.898  18.189  0.00  0.00    +0.000 A 
ATOM      4  C   UNL     1      49.654   6.541  18.125  0.00  0.00    +0.000 A 
ATOM      5  C   UNL     1      48.530   5.860  17.676  0.00  0.00    +0.000 A 
ATOM      6  C   UNL     1      48.631   4.534  17.232  0.00  0.00    +0.000 A 
ENDROOT
BRANCH   1   8
ATOM      7  C   UNL     1      50.912   1.757  17.277  0.00  0.00    +0.000 C 
ATOM      8  O   UNL     1      49.923   2.623  16.735  0.00  0.00    +0.000 OA
ENDBRANCH   1   8
BRANCH   3   9
ATOM      9  O   UNL     1      52.020   6.460  18.738  0.00  0.00    +0.000 OA
BRANCH   9  10
ATOM     10  C   UNL     1      52.244   7.805  18.296  0.00  0.00    +0.000 C 
BRANCH  10  11
ATOM     11  C   UNL     1      53.507   7.929  17.432  0.00  0.00    +0.000 C 
ATOM     12  C   UNL     1      53.843   9.379  17.070  0.00  0.00    +0.000 C 
ATOM     13  C   UNL     1      52.815   9.989  16.114  0.00  0.00    +0.000 C 
ATOM     14  N   UNL     1      52.668   9.195  14.879  0.00  0.00    +0.000 NA
ATOM     15  C   UNL     1      52.322   7.794  15.175  0.00  0.00    +0.000 C 
ATOM     16  C   UNL     1      53.325   7.131  16.131  0.00  0.00    +0.000 C 
BRANCH  14  17
ATOM     17  C   UNL     1      51.625   9.773  14.008  0.00  0.00    +0.000 C 
BRANCH  17  18
ATOM     18  C   UNL     1      51.395   8.956  12.781  0.00  0.00    +0.000 A 
ATOM     19  C   UNL     1      52.243   8.626  11.740  0.00  0.00    +0.000 A 
ATOM     20  C   UNL     1      51.512   7.831  10.827  0.00  0.00    +0.000 A 
ATOM     21  C   UNL     1      50.239   7.691  11.332  0.00  0.00    +0.000 A 
ATOM     22  N   UNL     1      50.180   8.371  12.521  0.00  0.00    +0.000 N 
ATOM     23  H   UNL     1      49.380   8.416  13.141  0.00  0.00    +0.000 HD
ENDBRANCH  17  18
ENDBRANCH  14  17
ENDBRANCH  10  11
ENDBRANCH   9  10
ENDBRANCH   3   9
BRANCH   6  24
ATOM     24  C   UNL     1      47.361   3.831  16.822  0.00  0.00    +0.000 C 
BRANCH  24  25
ATOM     25  N   UNL     1      46.713   4.493  15.712  0.00  0.00    +0.000 N 
ATOM     26  C   UNL     1      46.800   4.052  14.415  0.00  0.00    +0.000 C 
ATOM     27  O   UNL     1      47.438   3.052  14.097  0.00  0.00    +0.000 OA
ATOM     28  H   UNL     1      46.375   5.430  15.898  0.00  0.00    +0.000 HD
BRANCH  26  29
ATOM     29  C   UNL     1      46.000   4.793  13.428  0.00  0.00    +0.000 A 
ATOM     30  C   UNL     1      45.000   4.140  12.718  0.00  0.00    +0.000 A 
ATOM     31  S   UNL     1      44.098   5.171  11.701  0.00  0.00    +0.000 S 
ATOM     32  C   UNL     1      45.049   6.515  12.127  0.00  0.00    +0.000 A 
ATOM     33  N   UNL     1      44.796   7.745  11.604  0.00  0.00    +0.000 NA
ATOM     34  C   UNL     1      45.617   8.666  11.986  0.00  0.00    +0.000 A 
ATOM     35  N   UNL     1      46.672   8.466  12.838  0.00  0.00    +0.000 N 
ATOM     36  C   UNL     1      46.944   7.249  13.418  0.00  0.00    +0.000 A 
ATOM     37  O   UNL     1      47.863   7.120  14.219  0.00  0.00    +0.000 OA
ATOM     38  C   UNL     1      46.045   6.180  13.027  0.00  0.00    +0.000 A 
ATOM     39  H   UNL     1      47.279   9.228  13.099  0.00  0.00    +0.000 HD
ENDBRANCH  26  29
ENDBRANCH  24  25
ENDBRANCH   6  24
TORSDOF 9
ENDMDL
MODEL 7
REMARK VINA RESULT:    -6.495      3.769      9.626
REMARK INTER + INTRA:         -11.275
REMARK INTER:                  -9.559
REMARK INTRA:                  -1.717
REMARK UNBOUND:                -1.363
REMARK  Name = 
REMARK  10 active torsions:
REMARK  status: ('A' for Active; 'I' for Inactive)
REMARK    1  A    between atoms: C_1  and  O_2
REMARK    2  A    between atoms: O_2  and  C_3
REMARK    3  A    between atoms: C_5  and  O_6
REMARK    4  A    between atoms: O_6  and  C_7
REMARK    5  A    between atoms: C_7  and  C_8
REMARK    6  A    between atoms: N_11  and  C_12
REMARK    7  A    between atoms: C_12  and  C_13
REMARK    8  A    between atoms: C_22  and  C_23
REMARK    9  A    between atoms: C_23  and  N_24
REMARK   10  A    between atoms: C_25  and  C_27
REMARK                            x       y       z     vdW  Elec       q    Type
REMARK                         _______ _______ _______ _____ _____    ______ ____
ROOT
ATOM      1  C   UNL     1      46.265   8.385  13.068  0.00  0.00    +0.000 A 
ATOM      2  C   UNL     1      47.473   8.822  13.632  0.00  0.00    +0.000 A 
ATOM      3  C   UNL     1      48.526   7.925  13.830  0.00  0.00    +0.000 A 
ATOM      4  C   UNL     1      48.338   6.571  13.549  0.00  0.00    +0.000 A 
ATOM      5  C   UNL     1      47.151   6.130  12.978  0.00  0.00    +0.000 A 
ATOM      6  C   UNL     1      46.106   7.030  12.724  0.00  0.00    +0.000 A 
ENDROOT
BRANCH   1   8
ATOM      7  C   UNL     1      45.369  10.259  11.911  0.00  0.00    +0.000 C 
ATOM      8  O   UNL     1      45.183   9.198  12.840  0.00  0.00    +0.000 OA
ENDBRANCH   1   8
BRANCH   3   9
ATOM      9  O   UNL     1      49.714   8.458  14.276  0.00  0.00    +0.000 OA
BRANCH   9  10
ATOM     10  C   UNL     1      50.470   7.542  15.078  0.00  0.00    +0.000 C 
BRANCH  10  11
ATOM     11  C   UNL     1      50.858   8.142  16.436  0.00  0.00    +0.000 C 
ATOM     12  C   UNL     1      51.513   7.123  17.374  0.00  0.00    +0.000 C 
ATOM     13  C   UNL     1      50.528   6.049  17.839  0.00  0.00    +0.000 C 
ATOM     14  N   UNL     1      49.342   6.632  18.496  0.00  0.00    +0.000 NA
ATOM     15  C   UNL     1      48.663   7.604  17.623  0.00  0.00    +0.000 C 
ATOM     16  C   UNL     1      49.608   8.709  17.128  0.00  0.00    +0.000 C 
BRANCH  14  17
ATOM     17  C   UNL     1      48.384   5.575  18.875  0.00  0.00    +0.000 C 
BRANCH  17  18
ATOM     18  C   UNL     1      48.270   4.513  17.832  0.00  0.00    +0.000 A 
ATOM     19  C   UNL     1      47.640   4.516  16.601  0.00  0.00    +0.000 A 
ATOM     20  C   UNL     1      47.837   3.244  16.015  0.00  0.00    +0.000 A 
ATOM     21  C   UNL     1      48.585   2.497  16.897  0.00  0.00    +0.000 A 
ATOM     22  N   UNL     1      48.849   3.278  17.992  0.00  0.00    +0.000 N 
ATOM     23  H   UNL     1      49.412   3.011  18.792  0.00  0.00    +0.000 HD
ENDBRANCH  17  18
ENDBRANCH  14  17
ENDBRANCH  10  11
ENDBRANCH   9  10
ENDBRANCH   3   9
BRANCH   6  24
ATOM     24  C   UNL     1      44.871   6.497  12.041  0.00  0.00    +0.000 C 
BRANCH  24  25
ATOM     25  N   UNL     1      45.154   5.314  11.261  0.00  0.00    +0.000 N 
ATOM     26  C   UNL     1      44.217   4.679  10.486  0.00  0.00    +0.000 C 
ATOM     27  O   UNL     1      43.057   5.072  10.393  0.00  0.00    +0.000 OA
ATOM     28  H   UNL     1      46.019   4.837  11.487  0.00  0.00    +0.000 HD
BRANCH  26  29
ATOM     29  C   UNL     1      44.703   3.544   9.686  0.00  0.00    +0.000 A 
ATOM     30  C   UNL     1      44.205   2.269   9.921  0.00  0.00    +0.000 A 
ATOM     31  S   UNL     1      44.791   1.094   8.832  0.00  0.00    +0.000 S 
ATOM     32  C   UNL     1      45.777   2.235   8.044  0.00  0.00    +0.000 A 
ATOM     33  N   UNL     1      46.554   1.877   6.987  0.00  0.00    +0.000 NA
ATOM     34  C   UNL     1      47.278   2.834   6.510  0.00  0.00    +0.000 A 
ATOM     35  N   UNL     1      47.299   4.114   6.998  0.00  0.00    +0.000 N 
ATOM     36  C   UNL     1      46.505   4.530   8.041  0.00  0.00    +0.000 A 
ATOM     37  O   UNL     1      46.509   5.697   8.415  0.00  0.00    +0.000 OA
ATOM     38  C   UNL     1      45.666   3.493   8.610  0.00  0.00    +0.000 A 
ATOM     39  H   UNL     1      47.887   4.819   6.579  0.00  0.00    +0.000 HD
ENDBRANCH  26  29
ENDBRANCH  24  25
ENDBRANCH   6  24
TORSDOF 9
ENDMDL
MODEL 8
REMARK VINA RESULT:    -6.342      2.832      3.920
REMARK INTER + INTRA:         -11.041
REMARK INTER:                 -10.172
REMARK INTRA:                  -0.869
REMARK UNBOUND:                -1.363
REMARK  Name = 
REMARK  10 active torsions:
REMARK  status: ('A' for Active; 'I' for Inactive)
REMARK    1  A    between atoms: C_1  and  O_2
REMARK    2  A    between atoms: O_2  and  C_3
REMARK    3  A    between atoms: C_5  and  O_6
REMARK    4  A    between atoms: O_6  and  C_7
REMARK    5  A    between atoms: C_7  and  C_8
REMARK    6  A    between atoms: N_11  and  C_12
REMARK    7  A    between atoms: C_12  and  C_13
REMARK    8  A    between atoms: C_22  and  C_23
REMARK    9  A    between atoms: C_23  and  N_24
REMARK   10  A    between atoms: C_25  and  C_27
REMARK                            x       y       z     vdW  Elec       q    Type
REMARK                         _______ _______ _______ _____ _____    ______ ____
ROOT
ATOM      1  C   UNL     1      47.939   4.921  16.381  0.00  0.00    +0.000 A 
ATOM      2  C   UNL     1      47.113   4.532  15.315  0.00  0.00    +0.000 A 
ATOM      3  C   UNL     1      47.127   5.244  14.113  0.00  0.00    +0.000 A 
ATOM      4  C   UNL     1      47.899   6.401  14.008  0.00  0.00    +0.000 A 
ATOM      5  C   UNL     1      48.730   6.788  15.052  0.00  0.00    +0.000 A 
ATOM      6  C   UNL     1      48.766   6.051  16.245  0.00  0.00    +0.000 A 
ENDROOT
BRANCH   1   8
ATOM      7  C   UNL     1      47.840   2.864  17.569  0.00  0.00    +0.000 C 
ATOM      8  O   UNL     1      47.986   4.279  17.593  0.00  0.00    +0.000 OA
ENDBRANCH   1   8
BRANCH   3   9
ATOM      9  O   UNL     1      46.378   4.726  13.081  0.00  0.00    +0.000 OA
BRANCH   9  10
ATOM     10  C   UNL     1      44.969   4.776  13.335  0.00  0.00    +0.000 C 
BRANCH  10  11
ATOM     11  C   UNL     1      44.197   5.460  12.199  0.00  0.00    +0.000 C 
ATOM     12  C   UNL     1      42.952   4.680  11.767  0.00  0.00    +0.000 C 
ATOM     13  C   UNL     1      43.307   3.360  11.080  0.00  0.00    +0.000 C 
ATOM     14  N   UNL     1      44.189   3.562   9.914  0.00  0.00    +0.000 NA
ATOM     15  C   UNL     1      45.414   4.291  10.284  0.00  0.00    +0.000 C 
ATOM     16  C   UNL     1      45.116   5.629  10.977  0.00  0.00    +0.000 C 
BRANCH  14  17
ATOM     17  C   UNL     1      44.564   2.267   9.313  0.00  0.00    +0.000 C 
BRANCH  17  18
ATOM     18  C   UNL     1      45.551   2.421   8.204  0.00  0.00    +0.000 A 
ATOM     19  C   UNL     1      45.664   3.385   7.220  0.00  0.00    +0.000 A 
ATOM     20  C   UNL     1      46.780   3.050   6.418  0.00  0.00    +0.000 A 
ATOM     21  C   UNL     1      47.324   1.895   6.933  0.00  0.00    +0.000 A 
ATOM     22  N   UNL     1      46.576   1.525   8.020  0.00  0.00    +0.000 N 
ATOM     23  H   UNL     1      46.758   0.734   8.627  0.00  0.00    +0.000 HD
ENDBRANCH  17  18
ENDBRANCH  14  17
ENDBRANCH  10  11
ENDBRANCH   9  10
ENDBRANCH   3   9
BRANCH   6  24
ATOM     24  C   UNL     1      49.740   6.487  17.311  0.00  0.00    +0.000 C 
BRANCH  24  25
ATOM     25  N   UNL     1      51.044   6.783  16.762  0.00  0.00    +0.000 N 
ATOM     26  C   UNL     1      51.638   8.017  16.853  0.00  0.00    +0.000 C 
ATOM     27  O   UNL     1      51.105   8.970  17.415  0.00  0.00    +0.000 OA
ATOM     28  H   UNL     1      51.408   6.103  16.105  0.00  0.00    +0.000 HD
BRANCH  26  29
ATOM     29  C   UNL     1      53.007   8.114  16.321  0.00  0.00    +0.000 A 
ATOM     30  C   UNL     1      54.090   8.081  17.189  0.00  0.00    +0.000 A 
ATOM     31  S   UNL     1      55.601   8.090  16.399  0.00  0.00    +0.000 S 
ATOM     32  C   UNL     1      54.863   8.198  14.870  0.00  0.00    +0.000 A 
ATOM     33  N   UNL     1      55.610   8.237  13.734  0.00  0.00    +0.000 NA
ATOM     34  C   UNL     1      54.922   8.356  12.648  0.00  0.00    +0.000 A 
ATOM     35  N   UNL     1      53.556   8.445  12.596  0.00  0.00    +0.000 N 
ATOM     36  C   UNL     1      52.759   8.375  13.714  0.00  0.00    +0.000 A 
ATOM     37  O   UNL     1      51.536   8.403  13.625  0.00  0.00    +0.000 OA
ATOM     38  C   UNL     1      53.483   8.234  14.963  0.00  0.00    +0.000 A 
ATOM     39  H   UNL     1      53.075   8.537  11.713  0.00  0.00    +0.000 HD
ENDBRANCH  26  29
ENDBRANCH  24  25
ENDBRANCH   6  24
TORSDOF 9
ENDMDL
MODEL 9
REMARK VINA RESULT:    -6.239      3.230      9.815
REMARK INTER + INTRA:         -10.885
REMARK INTER:                  -9.726
REMARK INTRA:                  -1.159
REMARK UNBOUND:                -1.363
REMARK  Name = 
REMARK  10 active torsions:
REMARK  status: ('A' for Active; 'I' for Inactive)
REMARK    1  A    between atoms: C_1  and  O_2
REMARK    2  A    between atoms: O_2  and  C_3
REMARK    3  A    between atoms: C_5  and  O_6
REMARK    4  A    between atoms: O_6  and  C_7
REMARK    5  A    between atoms: C_7  and  C_8
REMARK    6  A    between atoms: N_11  and  C_12
REMARK    7  A    between atoms: C_12  and  C_13
REMARK    8  A    between atoms: C_22  and  C_23
REMARK    9  A    between atoms: C_23  and  N_24
REMARK   10  A    between atoms: C_25  and  C_27
REMARK                            x       y       z     vdW  Elec       q    Type
REMARK                         _______ _______ _______ _____ _____    ______ ____
ROOT
ATOM      1  C   UNL     1      45.916   6.159  12.095  0.00  0.00    +0.000 A 
ATOM      2  C   UNL     1      46.926   6.915  12.710  0.00  0.00    +0.000 A 
ATOM      3  C   UNL     1      47.646   6.389  13.786  0.00  0.00    +0.000 A 
ATOM      4  C   UNL     1      47.295   5.144  14.306  0.00  0.00    +0.000 A 
ATOM      5  C   UNL     1      46.306   4.382  13.698  0.00  0.00    +0.000 A 
ATOM      6  C   UNL     1      45.611   4.875  12.583  0.00  0.00    +0.000 A 
ENDROOT
BRANCH   1   8
ATOM      7  C   UNL     1      44.185   7.593  11.321  0.00  0.00    +0.000 C 
ATOM      8  O   UNL     1      45.162   6.599  11.036  0.00  0.00    +0.000 OA
ENDBRANCH   1   8
BRANCH   3   9
ATOM      9  O   UNL     1      48.696   7.147  14.253  0.00  0.00    +0.000 OA
BRANCH   9  10
ATOM     10  C   UNL     1      48.306   8.069  15.278  0.00  0.00    +0.000 C 
BRANCH  10  11
ATOM     11  C   UNL     1      49.382   8.222  16.362  0.00  0.00    +0.000 C 
ATOM     12  C   UNL     1      50.568   7.273  16.166  0.00  0.00    +0.000 C 
ATOM     13  C   UNL     1      50.180   5.810  16.393  0.00  0.00    +0.000 C 
ATOM     14  N   UNL     1      49.592   5.594  17.729  0.00  0.00    +0.000 NA
ATOM     15  C   UNL     1      48.431   6.471  17.957  0.00  0.00    +0.000 C 
ATOM     16  C   UNL     1      48.766   7.955  17.744  0.00  0.00    +0.000 C 
BRANCH  14  17
ATOM     17  C   UNL     1      49.171   4.188  17.891  0.00  0.00    +0.000 C 
BRANCH  17  18
ATOM     18  C   UNL     1      50.319   3.239  17.802  0.00  0.00    +0.000 A 
ATOM     19  C   UNL     1      50.442   2.024  17.153  0.00  0.00    +0.000 A 
ATOM     20  C   UNL     1      51.746   1.537  17.397  0.00  0.00    +0.000 A 
ATOM     21  C   UNL     1      52.391   2.465  18.184  0.00  0.00    +0.000 A 
ATOM     22  N   UNL     1      51.519   3.497  18.418  0.00  0.00    +0.000 N 
ATOM     23  H   UNL     1      51.724   4.343  18.936  0.00  0.00    +0.000 HD
ENDBRANCH  17  18
ENDBRANCH  14  17
ENDBRANCH  10  11
ENDBRANCH   9  10
ENDBRANCH   3   9
BRANCH   6  24
ATOM     24  C   UNL     1      44.598   3.969  11.929  0.00  0.00    +0.000 C 
BRANCH  24  25
ATOM     25  N   UNL     1      45.204   3.112  10.935  0.00  0.00    +0.000 N 
ATOM     26  C   UNL     1      44.748   3.016   9.644  0.00  0.00    +0.000 C 
ATOM     27  O   UNL     1      43.786   3.657   9.231  0.00  0.00    +0.000 OA
ATOM     28  H   UNL     1      45.842   2.410  11.292  0.00  0.00    +0.000 HD
BRANCH  26  29
ATOM     29  C   UNL     1      45.542   2.166   8.743  0.00  0.00    +0.000 A 
ATOM     30  C   UNL     1      45.452   0.783   8.840  0.00  0.00    +0.000 A 
ATOM     31  S   UNL     1      46.349  -0.046   7.649  0.00  0.00    +0.000 S 
ATOM     32  C   UNL     1      46.937   1.411   6.998  0.00  0.00    +0.000 A 
ATOM     33  N   UNL     1      47.772   1.411   5.924  0.00  0.00    +0.000 NA
ATOM     34  C   UNL     1      48.169   2.584   5.558  0.00  0.00    +0.000 A 
ATOM     35  N   UNL     1      47.812   3.755   6.172  0.00  0.00    +0.000 N 
ATOM     36  C   UNL     1      46.943   3.807   7.237  0.00  0.00    +0.000 A 
ATOM     37  O   UNL     1      46.603   4.878   7.727  0.00  0.00    +0.000 OA
ATOM     38  C   UNL     1      46.462   2.514   7.685  0.00  0.00    +0.000 A 
ATOM     39  H   UNL     1      48.157   4.643   5.837  0.00  0.00    +0.000 HD
ENDBRANCH  26  29
ENDBRANCH  24  25
ENDBRANCH   6  24
TORSDOF 9
ENDMDL
