MODEL 1
REMARK VINA RESULT:    -8.154      0.000      0.000
REMARK INTER + INTRA:         -12.103
REMARK INTER:                 -11.014
REMARK INTRA:                  -1.089
REMARK UNBOUND:                -1.089
REMARK  Name = 
REMARK  6 active torsions:
REMARK  status: ('A' for Active; 'I' for Inactive)
REMARK    1  A    between atoms: C_2  and  C_20
REMARK    2  A    between atoms: N_3  and  C_4
REMARK    3  A    between atoms: C_4  and  C_5
REMARK    4  A    between atoms: C_8  and  C_9
REMARK    5  A    between atoms: C_9  and  C_10
REMARK    6  A    between atoms: C_10  and  N_11
REMARK                            x       y       z     vdW  Elec       q    Type
REMARK                         _______ _______ _______ _____ _____    ______ ____
ROOT
ATOM      1  C   UNL     1      46.624   7.796  12.887  0.00  0.00    +0.000 C 
ENDROOT
BRANCH   1   2
ATOM      2  C   UNL     1      45.834   6.625  12.383  0.00  0.00    +0.000 A 
ATOM      3  C   UNL     1      44.953   5.920  13.205  0.00  0.00    +0.000 A 
ATOM      4  C   UNL     1      44.201   4.867  12.683  0.00  0.00    +0.000 A 
ATOM      5  C   UNL     1      44.357   4.532  11.342  0.00  0.00    +0.000 A 
ATOM      6  N   UNL     1      45.239   5.178  10.541  0.00  0.00    +0.000 NA
ATOM      7  C   UNL     1      45.957   6.192  11.072  0.00  0.00    +0.000 A 
BRANCH   5   8
ATOM      8  C   UNL     1      43.522   3.427  10.727  0.00  0.00    +0.000 C 
BRANCH   8   9
ATOM      9  C   UNL     1      44.375   2.509   9.846  0.00  0.00    +0.000 C 
BRANCH   9  10
ATOM     10  N   UNL     1      44.491   3.001   8.475  0.00  0.00    +0.000 N 
ATOM     11  C   UNL     1      45.675   2.678   7.808  0.00  0.00    +0.000 A 
ATOM     12  C   UNL     1      46.351   1.459   7.950  0.00  0.00    +0.000 A 
ATOM     13  N   UNL     1      47.487   1.133   7.283  0.00  0.00    +0.000 NA
ATOM     14  C   UNL     1      47.924   2.075   6.425  0.00  0.00    +0.000 A 
ATOM     15  C   UNL     1      47.262   3.278   6.257  0.00  0.00    +0.000 A 
ATOM     16  N   UNL     1      46.138   3.604   6.944  0.00  0.00    +0.000 NA
ATOM     17  H   UNL     1      44.347   4.000   8.341  0.00  0.00    +0.000 HD
ENDBRANCH   9  10
ENDBRANCH   8   9
ENDBRANCH   5   8
ENDBRANCH   1   2
BRANCH   1  20
ATOM     18  O   UNL     1      48.827   6.109  13.312  0.00  0.00    +0.000 OA
ATOM     19  C   UNL     1      48.349   6.710  14.270  0.00  0.00    +0.000 C 
ATOM     20  N   UNL     1      47.247   7.517  14.153  0.00  0.00    +0.000 N 
ATOM     21  H   UNL     1      46.975   8.103  14.935  0.00  0.00    +0.000 HD
BRANCH  19  22
ATOM     22  C   UNL     1      48.909   6.566  15.619  0.00  0.00    +0.000 A 
ATOM     23  C   UNL     1      49.893   7.443  16.055  0.00  0.00    +0.000 A 
ATOM     24  S   UNL     1      50.416   7.146  17.651  0.00  0.00    +0.000 S 
ATOM     25  C   UNL     1      49.317   5.858  17.829  0.00  0.00    +0.000 A 
ATOM     26  N   UNL     1      49.217   5.184  19.006  0.00  0.00    +0.000 NA
ATOM     27  C   UNL     1      48.313   4.261  19.016  0.00  0.00    +0.000 A 
ATOM     28  N   UNL     1      47.515   3.935  17.948  0.00  0.00    +0.000 N 
ATOM     29  C   UNL     1      47.646   4.530  16.716  0.00  0.00    +0.000 A 
ATOM     30  O   UNL     1      47.029   4.113  15.738  0.00  0.00    +0.000 OA
ATOM     31  C   UNL     1      48.594   5.627  16.672  0.00  0.00    +0.000 A 
ATOM     32  H   UNL     1      46.857   3.174  18.011  0.00  0.00    +0.000 HD
ENDBRANCH  19  22
ENDBRANCH   1  20
TORSDOF 6
ENDMDL
MODEL 2
REMARK VINA RESULT:    -8.061      1.835      2.294
REMARK INTER + INTRA:         -11.977
REMARK INTER:                 -10.742
REMARK INTRA:                  -1.235
REMARK UNBOUND:                -1.089
REMARK  Name = 
REMARK  6 active torsions:
REMARK  status: ('A' for Active; 'I' for Inactive)
REMARK    1  A    between atoms: C_2  and  C_20
REMARK    2  A    between atoms: N_3  and  C_4
REMARK    3  A    between atoms: C_4  and  C_5
REMARK    4  A    between atoms: C_8  and  C_9
REMARK    5  A    between atoms: C_9  and  C_10
REMARK    6  A    between atoms: C_10  and  N_11
REMARK                            x       y       z     vdW  Elec       q    Type
REMARK                         _______ _______ _______ _____ _____    ______ ____
ROOT
ATOM      1  C   UNL     1      48.107   6.670  13.880  0.00  0.00    +0.000 C 
ENDROOT
BRANCH   1   2
ATOM      2  C   UNL     1      46.846   5.933  13.537  0.00  0.00    +0.000 A 
ATOM      3  C   UNL     1      45.749   6.577  12.962  0.00  0.00    +0.000 A 
ATOM      4  C   UNL     1      44.613   5.844  12.613  0.00  0.00    +0.000 A 
ATOM      5  C   UNL     1      44.596   4.475  12.860  0.00  0.00    +0.000 A 
ATOM      6  N   UNL     1      45.636   3.842  13.456  0.00  0.00    +0.000 NA
ATOM      7  C   UNL     1      46.722   4.576  13.787  0.00  0.00    +0.000 A 
BRANCH   5   8
ATOM      8  C   UNL     1      43.402   3.638  12.450  0.00  0.00    +0.000 C 
BRANCH   8   9
ATOM      9  C   UNL     1      43.479   3.245  10.970  0.00  0.00    +0.000 C 
BRANCH   9  10
ATOM     10  N   UNL     1      44.679   2.472  10.660  0.00  0.00    +0.000 N 
ATOM     11  C   UNL     1      45.282   2.748   9.430  0.00  0.00    +0.000 A 
ATOM     12  C   UNL     1      45.362   4.026   8.862  0.00  0.00    +0.000 A 
ATOM     13  N   UNL     1      45.971   4.300   7.680  0.00  0.00    +0.000 NA
ATOM     14  C   UNL     1      46.538   3.236   7.082  0.00  0.00    +0.000 A 
ATOM     15  C   UNL     1      46.486   1.969   7.634  0.00  0.00    +0.000 A 
ATOM     16  N   UNL     1      45.857   1.700   8.806  0.00  0.00    +0.000 NA
ATOM     17  H   UNL     1      44.590   1.459  10.718  0.00  0.00    +0.000 HD
ENDBRANCH   9  10
ENDBRANCH   8   9
ENDBRANCH   5   8
ENDBRANCH   1   2
BRANCH   1  20
ATOM     18  O   UNL     1      50.381   6.405  15.505  0.00  0.00    +0.000 OA
ATOM     19  C   UNL     1      49.349   6.851  16.000  0.00  0.00    +0.000 C 
ATOM     20  N   UNL     1      48.186   6.969  15.286  0.00  0.00    +0.000 N 
ATOM     21  H   UNL     1      47.404   7.473  15.690  0.00  0.00    +0.000 HD
BRANCH  19  22
ATOM     22  C   UNL     1      49.289   7.248  17.412  0.00  0.00    +0.000 A 
ATOM     23  C   UNL     1      50.032   8.334  17.855  0.00  0.00    +0.000 A 
ATOM     24  S   UNL     1      49.829   8.670  19.515  0.00  0.00    +0.000 S 
ATOM     25  C   UNL     1      48.711   7.398  19.691  0.00  0.00    +0.000 A 
ATOM     26  N   UNL     1      48.105   7.162  20.885  0.00  0.00    +0.000 NA
ATOM     27  C   UNL     1      47.247   6.196  20.866  0.00  0.00    +0.000 A 
ATOM     28  N   UNL     1      46.957   5.429  19.766  0.00  0.00    +0.000 N 
ATOM     29  C   UNL     1      47.612   5.576  18.566  0.00  0.00    +0.000 A 
ATOM     30  O   UNL     1      47.445   4.776  17.648  0.00  0.00    +0.000 OA
ATOM     31  C   UNL     1      48.530   6.697  18.512  0.00  0.00    +0.000 A 
ATOM     32  H   UNL     1      46.306   4.662  19.830  0.00  0.00    +0.000 HD
ENDBRANCH  19  22
ENDBRANCH   1  20
TORSDOF 6
ENDMDL
MODEL 3
REMARK VINA RESULT:    -7.835      2.044      3.020
REMARK INTER + INTRA:         -11.671
REMARK INTER:                 -10.613
REMARK INTRA:                  -1.058
REMARK UNBOUND:                -1.089
REMARK  Name = 
REMARK  6 active torsions:
REMARK  status: ('A' for Active; 'I' for Inactive)
REMARK    1  A    between atoms: C_2  and  C_20
REMARK    2  A    between atoms: N_3  and  C_4
REMARK    3  A    between atoms: C_4  and  C_5
REMARK    4  A    between atoms: C_8  and  C_9
REMARK    5  A    between atoms: C_9  and  C_10
REMARK    6  A    between atoms: C_10  and  N_11
REMARK                            x       y       z     vdW  Elec       q    Type
REMARK                         _______ _______ _______ _____ _____    ______ ____
ROOT
ATOM      1  C   UNL     1      47.587   3.340  14.984  0.00  0.00    +0.000 C 
ENDROOT
BRANCH   1   2
ATOM      2  C   UNL     1      46.787   3.952  13.873  0.00  0.00    +0.000 A 
ATOM      3  C   UNL     1      46.803   5.325  13.621  0.00  0.00    +0.000 A 
ATOM      4  C   UNL     1      46.082   5.847  12.546  0.00  0.00    +0.000 A 
ATOM      5  C   UNL     1      45.348   4.978  11.745  0.00  0.00    +0.000 A 
ATOM      6  N   UNL     1      45.289   3.648  12.001  0.00  0.00    +0.000 NA
ATOM      7  C   UNL     1      45.992   3.169  13.051  0.00  0.00    +0.000 A 
BRANCH   5   8
ATOM      8  C   UNL     1      44.595   5.500  10.540  0.00  0.00    +0.000 C 
BRANCH   8   9
ATOM      9  C   UNL     1      43.908   4.362   9.777  0.00  0.00    +0.000 C 
BRANCH   9  10
ATOM     10  N   UNL     1      44.305   4.313   8.371  0.00  0.00    +0.000 N 
ATOM     11  C   UNL     1      45.276   3.364   8.044  0.00  0.00    +0.000 A 
ATOM     12  C   UNL     1      45.357   2.090   8.621  0.00  0.00    +0.000 A 
ATOM     13  N   UNL     1      46.284   1.157   8.285  0.00  0.00    +0.000 NA
ATOM     14  C   UNL     1      47.131   1.534   7.309  0.00  0.00    +0.000 A 
ATOM     15  C   UNL     1      47.057   2.781   6.714  0.00  0.00    +0.000 A 
ATOM     16  N   UNL     1      46.140   3.715   7.070  0.00  0.00    +0.000 NA
ATOM     17  H   UNL     1      44.609   5.193   7.958  0.00  0.00    +0.000 HD
ENDBRANCH   9  10
ENDBRANCH   8   9
ENDBRANCH   5   8
ENDBRANCH   1   2
BRANCH   1  20
ATOM     18  O   UNL     1      46.679   3.255  17.640  0.00  0.00    +0.000 OA
ATOM     19  C   UNL     1      47.436   4.161  17.303  0.00  0.00    +0.000 C 
ATOM     20  N   UNL     1      47.887   4.297  16.016  0.00  0.00    +0.000 N 
ATOM     21  H   UNL     1      48.621   4.969  15.815  0.00  0.00    +0.000 HD
BRANCH  19  22
ATOM     22  C   UNL     1      47.874   5.186  18.258  0.00  0.00    +0.000 A 
ATOM     23  C   UNL     1      46.935   5.843  19.042  0.00  0.00    +0.000 A 
ATOM     24  S   UNL     1      47.616   6.985  20.111  0.00  0.00    +0.000 S 
ATOM     25  C   UNL     1      49.193   6.614  19.588  0.00  0.00    +0.000 A 
ATOM     26  N   UNL     1      50.274   7.220  20.147  0.00  0.00    +0.000 NA
ATOM     27  C   UNL     1      51.411   6.813  19.688  0.00  0.00    +0.000 A 
ATOM     28  N   UNL     1      51.564   5.871  18.702  0.00  0.00    +0.000 N 
ATOM     29  C   UNL     1      50.498   5.301  18.049  0.00  0.00    +0.000 A 
ATOM     30  O   UNL     1      50.663   4.580  17.068  0.00  0.00    +0.000 OA
ATOM     31  C   UNL     1      49.199   5.666  18.580  0.00  0.00    +0.000 A 
ATOM     32  H   UNL     1      52.481   5.628  18.361  0.00  0.00    +0.000 HD
ENDBRANCH  19  22
ENDBRANCH   1  20
TORSDOF 6
ENDMDL
MODEL 4
REMARK VINA RESULT:    -7.716      2.398      3.319
REMARK INTER + INTRA:         -11.511
REMARK INTER:                 -10.564
REMARK INTRA:                  -0.947
REMARK UNBOUND:                -1.089
REMARK  Name = 
REMARK  6 active torsions:
REMARK  status: ('A' for Active; 'I' for Inactive)
REMARK    1  A    between atoms: C_2  and  C_20
REMARK    2  A    between atoms: N_3  and  C_4
REMARK    3  A    between atoms: C_4  and  C_5
REMARK    4  A    between atoms: C_8  and  C_9
REMARK    5  A    between atoms: C_9  and  C_10
REMARK    6  A    between atoms: C_10  and  N_11
REMARK                            x       y       z     vdW  Elec       q    Type
REMARK                         _______ _______ _______ _____ _____    ______ ____
ROOT
ATOM      1  C   UNL     1      47.578   4.029  15.436  0.00  0.00    +0.000 C 
ENDROOT
BRANCH   1   2
ATOM      2  C   UNL     1      46.826   4.366  14.183  0.00  0.00    +0.000 A 
ATOM      3  C   UNL     1      46.280   3.377  13.362  0.00  0.00    +0.000 A 
ATOM      4  C   UNL     1      45.545   3.735  12.231  0.00  0.00    +0.000 A 
ATOM      5  C   UNL     1      45.380   5.085  11.938  0.00  0.00    +0.000 A 
ATOM      6  N   UNL     1      45.939   6.057  12.701  0.00  0.00    +0.000 NA
ATOM      7  C   UNL     1      46.649   5.682  13.788  0.00  0.00    +0.000 A 
BRANCH   5   8
ATOM      8  C   UNL     1      44.547   5.514  10.747  0.00  0.00    +0.000 C 
BRANCH   8   9
ATOM      9  C   UNL     1      43.951   4.303  10.020  0.00  0.00    +0.000 C 
BRANCH   9  10
ATOM     10  N   UNL     1      44.264   4.299   8.593  0.00  0.00    +0.000 N 
ATOM     11  C   UNL     1      45.226   3.374   8.182  0.00  0.00    +0.000 A 
ATOM     12  C   UNL     1      45.358   2.086   8.716  0.00  0.00    +0.000 A 
ATOM     13  N   UNL     1      46.275   1.176   8.299  0.00  0.00    +0.000 NA
ATOM     14  C   UNL     1      47.057   1.593   7.285  0.00  0.00    +0.000 A 
ATOM     15  C   UNL     1      46.931   2.854   6.732  0.00  0.00    +0.000 A 
ATOM     16  N   UNL     1      46.026   3.765   7.169  0.00  0.00    +0.000 NA
ATOM     17  H   UNL     1      44.531   5.195   8.189  0.00  0.00    +0.000 HD
ENDBRANCH   9  10
ENDBRANCH   8   9
ENDBRANCH   5   8
ENDBRANCH   1   2
BRANCH   1  20
ATOM     18  O   UNL     1      49.749   5.403  16.570  0.00  0.00    +0.000 OA
ATOM     19  C   UNL     1      48.609   5.737  16.882  0.00  0.00    +0.000 C 
ATOM     20  N   UNL     1      47.500   5.088  16.408  0.00  0.00    +0.000 N 
ATOM     21  H   UNL     1      46.582   5.486  16.576  0.00  0.00    +0.000 HD
BRANCH  19  22
ATOM     22  C   UNL     1      48.367   6.835  17.825  0.00  0.00    +0.000 A 
ATOM     23  C   UNL     1      48.262   6.567  19.184  0.00  0.00    +0.000 A 
ATOM     24  S   UNL     1      48.003   7.957  20.137  0.00  0.00    +0.000 S 
ATOM     25  C   UNL     1      48.061   8.971  18.771  0.00  0.00    +0.000 A 
ATOM     26  N   UNL     1      47.950  10.321  18.898  0.00  0.00    +0.000 NA
ATOM     27  C   UNL     1      48.056  10.971  17.787  0.00  0.00    +0.000 A 
ATOM     28  N   UNL     1      48.238  10.393  16.555  0.00  0.00    +0.000 N 
ATOM     29  C   UNL     1      48.265   9.031  16.373  0.00  0.00    +0.000 A 
ATOM     30  O   UNL     1      48.272   8.540  15.247  0.00  0.00    +0.000 OA
ATOM     31  C   UNL     1      48.228   8.256  17.598  0.00  0.00    +0.000 A 
ATOM     32  H   UNL     1      48.271  10.958  15.722  0.00  0.00    +0.000 HD
ENDBRANCH  19  22
ENDBRANCH   1  20
TORSDOF 6
ENDMDL
MODEL 5
REMARK VINA RESULT:    -7.386      2.851      8.366
REMARK INTER + INTRA:         -11.065
REMARK INTER:                  -9.525
REMARK INTRA:                  -1.541
REMARK UNBOUND:                -1.089
REMARK  Name = 
REMARK  6 active torsions:
REMARK  status: ('A' for Active; 'I' for Inactive)
REMARK    1  A    between atoms: C_2  and  C_20
REMARK    2  A    between atoms: N_3  and  C_4
REMARK    3  A    between atoms: C_4  and  C_5
REMARK    4  A    between atoms: C_8  and  C_9
REMARK    5  A    between atoms: C_9  and  C_10
REMARK    6  A    between atoms: C_10  and  N_11
REMARK                            x       y       z     vdW  Elec       q    Type
REMARK                         _______ _______ _______ _____ _____    ______ ____
ROOT
ATOM      1  C   UNL     1      47.739   7.996  11.783  0.00  0.00    +0.000 C 
ENDROOT
BRANCH   1   2
ATOM      2  C   UNL     1      48.392   8.159  13.123  0.00  0.00    +0.000 A 
ATOM      3  C   UNL     1      47.727   8.750  14.200  0.00  0.00    +0.000 A 
ATOM      4  C   UNL     1      48.353   8.838  15.444  0.00  0.00    +0.000 A 
ATOM      5  C   UNL     1      49.645   8.338  15.582  0.00  0.00    +0.000 A 
ATOM      6  N   UNL     1      50.319   7.800  14.537  0.00  0.00    +0.000 NA
ATOM      7  C   UNL     1      49.691   7.731  13.342  0.00  0.00    +0.000 A 
BRANCH   5   8
ATOM      8  C   UNL     1      50.338   8.370  16.929  0.00  0.00    +0.000 C 
BRANCH   8   9
ATOM      9  C   UNL     1      50.059   7.093  17.729  0.00  0.00    +0.000 C 
BRANCH   9  10
ATOM     10  N   UNL     1      50.191   5.886  16.917  0.00  0.00    +0.000 N 
ATOM     11  C   UNL     1      49.233   4.894  17.137  0.00  0.00    +0.000 A 
ATOM     12  C   UNL     1      47.884   5.152  17.416  0.00  0.00    +0.000 A 
ATOM     13  N   UNL     1      46.945   4.190  17.603  0.00  0.00    +0.000 NA
ATOM     14  C   UNL     1      47.400   2.930  17.472  0.00  0.00    +0.000 A 
ATOM     15  C   UNL     1      48.723   2.654  17.179  0.00  0.00    +0.000 A 
ATOM     16  N   UNL     1      49.660   3.621  17.014  0.00  0.00    +0.000 NA
ATOM     17  H   UNL     1      51.098   5.423  16.944  0.00  0.00    +0.000 HD
ENDBRANCH   9  10
ENDBRANCH   8   9
ENDBRANCH   5   8
ENDBRANCH   1   2
BRANCH   1  20
ATOM     18  O   UNL     1      44.958   7.665  11.984  0.00  0.00    +0.000 OA
ATOM     19  C   UNL     1      45.656   6.680  11.753  0.00  0.00    +0.000 C 
ATOM     20  N   UNL     1      47.023   6.752  11.684  0.00  0.00    +0.000 N 
ATOM     21  H   UNL     1      47.546   5.949  11.351  0.00  0.00    +0.000 HD
BRANCH  19  22
ATOM     22  C   UNL     1      45.064   5.349  11.578  0.00  0.00    +0.000 A 
ATOM     23  C   UNL     1      44.395   4.747  12.635  0.00  0.00    +0.000 A 
ATOM     24  S   UNL     1      43.751   3.215  12.253  0.00  0.00    +0.000 S 
ATOM     25  C   UNL     1      44.312   3.318  10.650  0.00  0.00    +0.000 A 
ATOM     26  N   UNL     1      44.052   2.329   9.753  0.00  0.00    +0.000 NA
ATOM     27  C   UNL     1      44.498   2.557   8.563  0.00  0.00    +0.000 A 
ATOM     28  N   UNL     1      45.202   3.675   8.192  0.00  0.00    +0.000 N 
ATOM     29  C   UNL     1      45.564   4.654   9.086  0.00  0.00    +0.000 A 
ATOM     30  O   UNL     1      46.325   5.563   8.762  0.00  0.00    +0.000 OA
ATOM     31  C   UNL     1      45.022   4.484  10.420  0.00  0.00    +0.000 A 
ATOM     32  H   UNL     1      45.557   3.771   7.254  0.00  0.00    +0.000 HD
ENDBRANCH  19  22
ENDBRANCH   1  20
TORSDOF 6
ENDMDL
MODEL 6
REMARK VINA RESULT:    -6.983      3.476      4.831
REMARK INTER + INTRA:         -10.520
REMARK INTER:                  -9.630
REMARK INTRA:                  -0.891
REMARK UNBOUND:                -1.089
REMARK  Name = 
REMARK  6 active torsions:
REMARK  status: ('A' for Active; 'I' for Inactive)
REMARK    1  A    between atoms: C_2  and  C_20
REMARK    2  A    between atoms: N_3  and  C_4
REMARK    3  A    between atoms: C_4  and  C_5
REMARK    4  A    between atoms: C_8  and  C_9
REMARK    5  A    between atoms: C_9  and  C_10
REMARK    6  A    between atoms: C_10  and  N_11
REMARK                            x       y       z     vdW  Elec       q    Type
REMARK                         _______ _______ _______ _____ _____    ______ ____
ROOT
ATOM      1  C   UNL     1      48.605   5.030  17.337  0.00  0.00    +0.000 C 
ENDROOT
BRANCH   1   2
ATOM      2  C   UNL     1      48.177   5.391  15.946  0.00  0.00    +0.000 A 
ATOM      3  C   UNL     1      47.238   4.633  15.242  0.00  0.00    +0.000 A 
ATOM      4  C   UNL     1      46.831   5.032  13.969  0.00  0.00    +0.000 A 
ATOM      5  C   UNL     1      47.384   6.185  13.418  0.00  0.00    +0.000 A 
ATOM      6  N   UNL     1      48.327   6.908  14.070  0.00  0.00    +0.000 NA
ATOM      7  C   UNL     1      48.706   6.497  15.300  0.00  0.00    +0.000 A 
BRANCH   5   8
ATOM      8  C   UNL     1      46.930   6.677  12.059  0.00  0.00    +0.000 C 
BRANCH   8   9
ATOM      9  C   UNL     1      45.482   6.265  11.773  0.00  0.00    +0.000 C 
BRANCH   9  10
ATOM     10  N   UNL     1      45.204   6.156  10.343  0.00  0.00    +0.000 N 
ATOM     11  C   UNL     1      45.224   4.863   9.814  0.00  0.00    +0.000 A 
ATOM     12  C   UNL     1      44.759   3.729  10.492  0.00  0.00    +0.000 A 
ATOM     13  N   UNL     1      44.752   2.476   9.969  0.00  0.00    +0.000 NA
ATOM     14  C   UNL     1      45.211   2.393   8.705  0.00  0.00    +0.000 A 
ATOM     15  C   UNL     1      45.658   3.504   8.012  0.00  0.00    +0.000 A 
ATOM     16  N   UNL     1      45.680   4.749   8.550  0.00  0.00    +0.000 NA
ATOM     17  H   UNL     1      45.779   6.729   9.728  0.00  0.00    +0.000 HD
ENDBRANCH   9  10
ENDBRANCH   8   9
ENDBRANCH   5   8
ENDBRANCH   1   2
BRANCH   1  20
ATOM     18  O   UNL     1      50.179   4.684  19.637  0.00  0.00    +0.000 OA
ATOM     19  C   UNL     1      50.653   4.382  18.545  0.00  0.00    +0.000 C 
ATOM     20  N   UNL     1      49.966   4.563  17.373  0.00  0.00    +0.000 N 
ATOM     21  H   UNL     1      50.336   4.169  16.514  0.00  0.00    +0.000 HD
BRANCH  19  22
ATOM     22  C   UNL     1      52.013   3.844  18.426  0.00  0.00    +0.000 A 
ATOM     23  C   UNL     1      53.094   4.599  18.863  0.00  0.00    +0.000 A 
ATOM     24  S   UNL     1      54.597   3.816  18.671  0.00  0.00    +0.000 S 
ATOM     25  C   UNL     1      53.852   2.426  18.031  0.00  0.00    +0.000 A 
ATOM     26  N   UNL     1      54.588   1.333  17.691  0.00  0.00    +0.000 NA
ATOM     27  C   UNL     1      53.892   0.334  17.260  0.00  0.00    +0.000 A 
ATOM     28  N   UNL     1      52.527   0.336  17.115  0.00  0.00    +0.000 N 
ATOM     29  C   UNL     1      51.757   1.448  17.361  0.00  0.00    +0.000 A 
ATOM     30  O   UNL     1      50.562   1.471  17.074  0.00  0.00    +0.000 OA
ATOM     31  C   UNL     1      52.481   2.573  17.921  0.00  0.00    +0.000 A 
ATOM     32  H   UNL     1      52.049  -0.464  16.734  0.00  0.00    +0.000 HD
ENDBRANCH  19  22
ENDBRANCH   1  20
TORSDOF 6
ENDMDL
MODEL 7
REMARK VINA RESULT:    -6.824      3.831      8.722
REMARK INTER + INTRA:         -10.307
REMARK INTER:                  -8.980
REMARK INTRA:                  -1.326
REMARK UNBOUND:                -1.089
REMARK  Name = 
REMARK  6 active torsions:
REMARK  status: ('A' for Active; 'I' for Inactive)
REMARK    1  A    between atoms: C_2  and  C_20
REMARK    2  A    between atoms: N_3  and  C_4
REMARK    3  A    between atoms: C_4  and  C_5
REMARK    4  A    between atoms: C_8  and  C_9
REMARK    5  A    between atoms: C_9  and  C_10
REMARK    6  A    between atoms: C_10  and  N_11
REMARK                            x       y       z     vdW  Elec       q    Type
REMARK                         _______ _______ _______ _____ _____    ______ ____
ROOT
ATOM      1  C   UNL     1      47.158   3.357  16.827  0.00  0.00    +0.000 C 
ENDROOT
BRANCH   1   2
ATOM      2  C   UNL     1      48.588   3.512  17.251  0.00  0.00    +0.000 A 
ATOM      3  C   UNL     1      49.530   2.499  17.054  0.00  0.00    +0.000 A 
ATOM      4  C   UNL     1      50.861   2.703  17.420  0.00  0.00    +0.000 A 
ATOM      5  C   UNL     1      51.222   3.921  17.987  0.00  0.00    +0.000 A 
ATOM      6  N   UNL     1      50.313   4.898  18.223  0.00  0.00    +0.000 NA
ATOM      7  C   UNL     1      49.029   4.673  17.864  0.00  0.00    +0.000 A 
BRANCH   5   8
ATOM      8  C   UNL     1      52.666   4.198  18.350  0.00  0.00    +0.000 C 
BRANCH   8   9
ATOM      9  C   UNL     1      53.075   5.623  17.962  0.00  0.00    +0.000 C 
BRANCH   9  10
ATOM     10  N   UNL     1      52.702   5.956  16.590  0.00  0.00    +0.000 N 
ATOM     11  C   UNL     1      52.123   7.213  16.402  0.00  0.00    +0.000 A 
ATOM     12  C   UNL     1      52.504   8.367  17.101  0.00  0.00    +0.000 A 
ATOM     13  N   UNL     1      51.962   9.595  16.901  0.00  0.00    +0.000 NA
ATOM     14  C   UNL     1      51.022   9.643  15.938  0.00  0.00    +0.000 A 
ATOM     15  C   UNL     1      50.644   8.520  15.224  0.00  0.00    +0.000 A 
ATOM     16  N   UNL     1      51.177   7.292  15.445  0.00  0.00    +0.000 NA
ATOM     17  H   UNL     1      52.102   5.287  16.111  0.00  0.00    +0.000 HD
ENDBRANCH   9  10
ENDBRANCH   8   9
ENDBRANCH   5   8
ENDBRANCH   1   2
BRANCH   1  20
ATOM     18  O   UNL     1      47.247   3.094  14.032  0.00  0.00    +0.000 OA
ATOM     19  C   UNL     1      46.809   4.135  14.515  0.00  0.00    +0.000 C 
ATOM     20  N   UNL     1      46.774   4.358  15.866  0.00  0.00    +0.000 N 
ATOM     21  H   UNL     1      46.274   5.165  16.224  0.00  0.00    +0.000 HD
BRANCH  19  22
ATOM     22  C   UNL     1      46.331   5.230  13.662  0.00  0.00    +0.000 A 
ATOM     23  C   UNL     1      47.147   6.329  13.430  0.00  0.00    +0.000 A 
ATOM     24  S   UNL     1      46.447   7.495  12.401  0.00  0.00    +0.000 S 
ATOM     25  C   UNL     1      45.043   6.554  12.200  0.00  0.00    +0.000 A 
ATOM     26  N   UNL     1      44.036   6.967  11.384  0.00  0.00    +0.000 NA
ATOM     27  C   UNL     1      43.052   6.136  11.289  0.00  0.00    +0.000 A 
ATOM     28  N   UNL     1      42.971   4.939  11.957  0.00  0.00    +0.000 N 
ATOM     29  C   UNL     1      43.922   4.528  12.859  0.00  0.00    +0.000 A 
ATOM     30  O   UNL     1      43.749   3.531  13.556  0.00  0.00    +0.000 OA
ATOM     31  C   UNL     1      45.086   5.388  12.944  0.00  0.00    +0.000 A 
ATOM     32  H   UNL     1      42.153   4.356  11.869  0.00  0.00    +0.000 HD
ENDBRANCH  19  22
ENDBRANCH   1  20
TORSDOF 6
ENDMDL
MODEL 8
REMARK VINA RESULT:    -6.820      3.953      9.165
REMARK INTER + INTRA:         -10.301
REMARK INTER:                  -9.305
REMARK INTRA:                  -0.996
REMARK UNBOUND:                -1.089
REMARK  Name = 
REMARK  6 active torsions:
REMARK  status: ('A' for Active; 'I' for Inactive)
REMARK    1  A    between atoms: C_2  and  C_20
REMARK    2  A    between atoms: N_3  and  C_4
REMARK    3  A    between atoms: C_4  and  C_5
REMARK    4  A    between atoms: C_8  and  C_9
REMARK    5  A    between atoms: C_9  and  C_10
REMARK    6  A    between atoms: C_10  and  N_11
REMARK                            x       y       z     vdW  Elec       q    Type
REMARK                         _______ _______ _______ _____ _____    ______ ____
ROOT
ATOM      1  C   UNL     1      47.152   3.365  16.542  0.00  0.00    +0.000 C 
ENDROOT
BRANCH   1   2
ATOM      2  C   UNL     1      48.340   3.856  17.314  0.00  0.00    +0.000 A 
ATOM      3  C   UNL     1      48.321   5.071  18.003  0.00  0.00    +0.000 A 
ATOM      4  C   UNL     1      49.431   5.467  18.750  0.00  0.00    +0.000 A 
ATOM      5  C   UNL     1      50.548   4.639  18.784  0.00  0.00    +0.000 A 
ATOM      6  N   UNL     1      50.598   3.477  18.087  0.00  0.00    +0.000 NA
ATOM      7  C   UNL     1      49.512   3.119  17.368  0.00  0.00    +0.000 A 
BRANCH   5   8
ATOM      8  C   UNL     1      51.752   5.011  19.624  0.00  0.00    +0.000 C 
BRANCH   8   9
ATOM      9  C   UNL     1      53.033   4.373  19.075  0.00  0.00    +0.000 C 
BRANCH   9  10
ATOM     10  N   UNL     1      53.173   2.973  19.470  0.00  0.00    +0.000 N 
ATOM     11  C   UNL     1      53.724   2.121  18.511  0.00  0.00    +0.000 A 
ATOM     12  C   UNL     1      54.751   2.486  17.630  0.00  0.00    +0.000 A 
ATOM     13  N   UNL     1      55.307   1.651  16.716  0.00  0.00    +0.000 NA
ATOM     14  C   UNL     1      54.813   0.398  16.728  0.00  0.00    +0.000 A 
ATOM     15  C   UNL     1      53.813   0.012  17.601  0.00  0.00    +0.000 A 
ATOM     16  N   UNL     1      53.248   0.859  18.497  0.00  0.00    +0.000 NA
ATOM     17  H   UNL     1      52.330   2.516  19.813  0.00  0.00    +0.000 HD
ENDBRANCH   9  10
ENDBRANCH   8   9
ENDBRANCH   5   8
ENDBRANCH   1   2
BRANCH   1  20
ATOM     18  O   UNL     1      47.418   3.334  13.746  0.00  0.00    +0.000 OA
ATOM     19  C   UNL     1      46.793   4.252  14.271  0.00  0.00    +0.000 C 
ATOM     20  N   UNL     1      46.657   4.362  15.630  0.00  0.00    +0.000 N 
ATOM     21  H   UNL     1      46.016   5.050  16.011  0.00  0.00    +0.000 HD
BRANCH  19  22
ATOM     22  C   UNL     1      46.185   5.320  13.468  0.00  0.00    +0.000 A 
ATOM     23  C   UNL     1      46.903   6.479  13.206  0.00  0.00    +0.000 A 
ATOM     24  S   UNL     1      46.057   7.603  12.241  0.00  0.00    +0.000 S 
ATOM     25  C   UNL     1      44.717   6.563  12.109  0.00  0.00    +0.000 A 
ATOM     26  N   UNL     1      43.635   6.910  11.361  0.00  0.00    +0.000 NA
ATOM     27  C   UNL     1      42.710   6.010  11.311  0.00  0.00    +0.000 A 
ATOM     28  N   UNL     1      42.758   4.802  11.962  0.00  0.00    +0.000 N 
ATOM     29  C   UNL     1      43.790   4.451  12.798  0.00  0.00    +0.000 A 
ATOM     30  O   UNL     1      43.733   3.435  13.487  0.00  0.00    +0.000 OA
ATOM     31  C   UNL     1      44.891   5.394  12.828  0.00  0.00    +0.000 A 
ATOM     32  H   UNL     1      41.981   4.161  11.913  0.00  0.00    +0.000 HD
ENDBRANCH  19  22
ENDBRANCH   1  20
TORSDOF 6
ENDMDL
MODEL 9
REMARK VINA RESULT:    -6.658      2.180      2.827
REMARK INTER + INTRA:         -10.082
REMARK INTER:                  -9.943
REMARK INTRA:                  -0.139
REMARK UNBOUND:                -1.089
REMARK  Name = 
REMARK  6 active torsions:
REMARK  status: ('A' for Active; 'I' for Inactive)
REMARK    1  A    between atoms: C_2  and  C_20
REMARK    2  A    between atoms: N_3  and  C_4
REMARK    3  A    between atoms: C_4  and  C_5
REMARK    4  A    between atoms: C_8  and  C_9
REMARK    5  A    between atoms: C_9  and  C_10
REMARK    6  A    between atoms: C_10  and  N_11
REMARK                            x       y       z     vdW  Elec       q    Type
REMARK                         _______ _______ _______ _____ _____    ______ ____
ROOT
ATOM      1  C   UNL     1      47.812   7.734  13.791  0.00  0.00    +0.000 C 
ENDROOT
BRANCH   1   2
ATOM      2  C   UNL     1      47.076   6.623  13.102  0.00  0.00    +0.000 A 
ATOM      3  C   UNL     1      46.785   5.419  13.748  0.00  0.00    +0.000 A 
ATOM      4  C   UNL     1      46.056   4.430  13.087  0.00  0.00    +0.000 A 
ATOM      5  C   UNL     1      45.639   4.665  11.780  0.00  0.00    +0.000 A 
ATOM      6  N   UNL     1      45.949   5.810  11.125  0.00  0.00    +0.000 NA
ATOM      7  C   UNL     1      46.660   6.749  11.787  0.00  0.00    +0.000 A 
BRANCH   5   8
ATOM      8  C   UNL     1      44.803   3.636  11.047  0.00  0.00    +0.000 C 
BRANCH   8   9
ATOM      9  C   UNL     1      43.772   4.306  10.132  0.00  0.00    +0.000 C 
BRANCH   9  10
ATOM     10  N   UNL     1      44.240   4.419   8.752  0.00  0.00    +0.000 N 
ATOM     11  C   UNL     1      45.180   3.469   8.347  0.00  0.00    +0.000 A 
ATOM     12  C   UNL     1      45.169   2.128   8.752  0.00  0.00    +0.000 A 
ATOM     13  N   UNL     1      46.065   1.197   8.337  0.00  0.00    +0.000 NA
ATOM     14  C   UNL     1      46.981   1.652   7.460  0.00  0.00    +0.000 A 
ATOM     15  C   UNL     1      46.999   2.968   7.034  0.00  0.00    +0.000 A 
ATOM     16  N   UNL     1      46.112   3.896   7.470  0.00  0.00    +0.000 NA
ATOM     17  H   UNL     1      44.608   5.328   8.475  0.00  0.00    +0.000 HD
ENDBRANCH   9  10
ENDBRANCH   8   9
ENDBRANCH   5   8
ENDBRANCH   1   2
BRANCH   1  20
ATOM     18  O   UNL     1      50.054   6.719  15.143  0.00  0.00    +0.000 OA
ATOM     19  C   UNL     1      49.067   7.046  15.796  0.00  0.00    +0.000 C 
ATOM     20  N   UNL     1      47.919   7.507  15.208  0.00  0.00    +0.000 N 
ATOM     21  H   UNL     1      47.185   7.898  15.789  0.00  0.00    +0.000 HD
BRANCH  19  22
ATOM     22  C   UNL     1      49.044   6.920  17.258  0.00  0.00    +0.000 A 
ATOM     23  C   UNL     1      48.263   5.937  17.853  0.00  0.00    +0.000 A 
ATOM     24  S   UNL     1      48.370   5.917  19.556  0.00  0.00    +0.000 S 
ATOM     25  C   UNL     1      49.493   7.196  19.555  0.00  0.00    +0.000 A 
ATOM     26  N   UNL     1      50.035   7.650  20.716  0.00  0.00    +0.000 NA
ATOM     27  C   UNL     1      50.905   8.593  20.566  0.00  0.00    +0.000 A 
ATOM     28  N   UNL     1      51.265   9.141  19.360  0.00  0.00    +0.000 N 
ATOM     29  C   UNL     1      50.676   8.774  18.174  0.00  0.00    +0.000 A 
ATOM     30  O   UNL     1      50.903   9.387  17.133  0.00  0.00    +0.000 OA
ATOM     31  C   UNL     1      49.748   7.665  18.277  0.00  0.00    +0.000 A 
ATOM     32  H   UNL     1      51.922   9.904  19.318  0.00  0.00    +0.000 HD
ENDBRANCH  19  22
ENDBRANCH   1  20
TORSDOF 6
ENDMDL
