MODEL 1
REMARK VINA RESULT:    -8.571      0.000      0.000
REMARK INTER + INTRA:         -12.247
REMARK INTER:                 -11.327
REMARK INTRA:                  -0.920
REMARK UNBOUND:                -0.920
REMARK  Name = 
REMARK  6 active torsions:
REMARK  status: ('A' for Active; 'I' for Inactive)
REMARK    1  A    between atoms: C_2  and  C_4
REMARK    2  A    between atoms: C_7  and  N_8
REMARK    3  A    between atoms: N_8  and  C_9
REMARK    4  A    between atoms: C_9  and  C_10
REMARK    5  A    between atoms: C_14  and  N_15
REMARK    6  A    between atoms: C_18  and  O_19
REMARK                            x       y       z     vdW  Elec       q    Type
REMARK                         _______ _______ _______ _____ _____    ______ ____
ROOT
ATOM      1  C   UNL     1      43.541   4.771  11.296  0.00  0.00    +0.000 C 
ENDROOT
BRANCH   1   2
ATOM      2  C   UNL     1      44.815   4.764  12.092  0.00  0.00    +0.000 A 
ATOM      3  C   UNL     1      45.251   3.616  12.733  0.00  0.00    +0.000 A 
ATOM      4  N   UNL     1      46.353   3.566  13.507  0.00  0.00    +0.000 NA
ATOM      5  C   UNL     1      47.063   4.719  13.631  0.00  0.00    +0.000 A 
ATOM      6  C   UNL     1      46.761   5.938  13.015  0.00  0.00    +0.000 A 
ATOM      7  C   UNL     1      45.593   5.922  12.240  0.00  0.00    +0.000 A 
BRANCH   6   8
ATOM      8  N   UNL     1      47.520   7.088  13.162  0.00  0.00    +0.000 N 
ATOM      9  C   UNL     1      48.955   7.123  12.867  0.00  0.00    +0.000 C 
ATOM     10  C   UNL     1      49.230   8.020  11.663  0.00  0.00    +0.000 C 
ATOM     11  C   UNL     1      48.594   9.400  11.826  0.00  0.00    +0.000 C 
ATOM     12  C   UNL     1      47.116   9.304  12.195  0.00  0.00    +0.000 C 
ATOM     13  C   UNL     1      46.877   8.386  13.392  0.00  0.00    +0.000 C 
BRANCH  11  14
ATOM     14  O   UNL     1      49.304  10.174  12.793  0.00  0.00    +0.000 OA
ATOM     15  H   UNL     1      50.254   9.989  12.717  0.00  0.00    +0.000 HD
ENDBRANCH  11  14
ENDBRANCH   6   8
ENDBRANCH   1   2
BRANCH   1  16
ATOM     16  N   UNL     1      43.812   4.983   9.885  0.00  0.00    +0.000 N 
ATOM     17  H   UNL     1      43.068   5.430   9.362  0.00  0.00    +0.000 HD
BRANCH  16  21
ATOM     18  C   UNL     1      46.325   2.271   7.839  0.00  0.00    +0.000 A 
ATOM     19  C   UNL     1      45.328   1.783   8.685  0.00  0.00    +0.000 A 
ATOM     20  C   UNL     1      44.465   2.672   9.340  0.00  0.00    +0.000 A 
ATOM     21  C   UNL     1      44.553   4.057   9.151  0.00  0.00    +0.000 A 
ATOM     22  C   UNL     1      45.555   4.528   8.289  0.00  0.00    +0.000 A 
ATOM     23  C   UNL     1      46.434   3.649   7.642  0.00  0.00    +0.000 A 
BRANCH  18  25
ATOM     24  N   UNL     1      48.371   1.955   6.544  0.00  0.00    +0.000 N 
ATOM     25  C   UNL     1      47.323   1.372   7.202  0.00  0.00    +0.000 C 
ATOM     26  O   UNL     1      47.227   0.153   7.270  0.00  0.00    +0.000 OA
ATOM     27  H   UNL     1      49.074   1.327   6.176  0.00  0.00    +0.000 HD
ATOM     28  H   UNL     1      48.619   2.926   6.660  0.00  0.00    +0.000 HD
ENDBRANCH  18  25
ENDBRANCH  16  21
ENDBRANCH   1  16
TORSDOF 6
ENDMDL
MODEL 2
REMARK VINA RESULT:    -8.327      2.091      3.276
REMARK INTER + INTRA:         -11.925
REMARK INTER:                 -11.016
REMARK INTRA:                  -0.908
REMARK UNBOUND:                -0.920
REMARK  Name = 
REMARK  6 active torsions:
REMARK  status: ('A' for Active; 'I' for Inactive)
REMARK    1  A    between atoms: C_2  and  C_4
REMARK    2  A    between atoms: C_7  and  N_8
REMARK    3  A    between atoms: N_8  and  C_9
REMARK    4  A    between atoms: C_9  and  C_10
REMARK    5  A    between atoms: C_14  and  N_15
REMARK    6  A    between atoms: C_18  and  O_19
REMARK                            x       y       z     vdW  Elec       q    Type
REMARK                         _______ _______ _______ _____ _____    ______ ____
ROOT
ATOM      1  C   UNL     1      43.444   4.731  11.334  0.00  0.00    +0.000 C 
ENDROOT
BRANCH   1   2
ATOM      2  C   UNL     1      44.485   5.617  11.956  0.00  0.00    +0.000 A 
ATOM      3  C   UNL     1      44.516   6.977  11.696  0.00  0.00    +0.000 A 
ATOM      4  N   UNL     1      45.460   7.809  12.179  0.00  0.00    +0.000 NA
ATOM      5  C   UNL     1      46.410   7.253  12.977  0.00  0.00    +0.000 A 
ATOM      6  C   UNL     1      46.482   5.907  13.352  0.00  0.00    +0.000 A 
ATOM      7  C   UNL     1      45.480   5.098  12.799  0.00  0.00    +0.000 A 
BRANCH   6   8
ATOM      8  N   UNL     1      47.465   5.385  14.177  0.00  0.00    +0.000 N 
ATOM      9  C   UNL     1      48.593   6.188  14.657  0.00  0.00    +0.000 C 
ATOM     10  C   UNL     1      48.508   6.378  16.169  0.00  0.00    +0.000 C 
ATOM     11  C   UNL     1      48.334   5.048  16.900  0.00  0.00    +0.000 C 
ATOM     12  C   UNL     1      47.186   4.226  16.319  0.00  0.00    +0.000 C 
ATOM     13  C   UNL     1      47.296   4.070  14.804  0.00  0.00    +0.000 C 
BRANCH  11  14
ATOM     14  O   UNL     1      49.548   4.298  16.882  0.00  0.00    +0.000 OA
ATOM     15  H   UNL     1      49.752   4.040  15.969  0.00  0.00    +0.000 HD
ENDBRANCH  11  14
ENDBRANCH   6   8
ENDBRANCH   1   2
BRANCH   1  16
ATOM     16  N   UNL     1      43.580   4.706   9.888  0.00  0.00    +0.000 N 
ATOM     17  H   UNL     1      42.709   4.725   9.370  0.00  0.00    +0.000 HD
BRANCH  16  21
ATOM     18  C   UNL     1      46.424   2.340   7.846  0.00  0.00    +0.000 A 
ATOM     19  C   UNL     1      46.423   3.724   7.667  0.00  0.00    +0.000 A 
ATOM     20  C   UNL     1      45.508   4.523   8.367  0.00  0.00    +0.000 A 
ATOM     21  C   UNL     1      44.596   3.973   9.277  0.00  0.00    +0.000 A 
ATOM     22  C   UNL     1      44.619   2.581   9.452  0.00  0.00    +0.000 A 
ATOM     23  C   UNL     1      45.518   1.770   8.744  0.00  0.00    +0.000 A 
BRANCH  18  25
ATOM     24  N   UNL     1      48.370   2.016   6.408  0.00  0.00    +0.000 N 
ATOM     25  C   UNL     1      47.308   1.446   7.053  0.00  0.00    +0.000 C 
ATOM     26  O   UNL     1      47.108   0.240   6.985  0.00  0.00    +0.000 OA
ATOM     27  H   UNL     1      48.997   1.382   5.930  0.00  0.00    +0.000 HD
ATOM     28  H   UNL     1      48.708   2.942   6.621  0.00  0.00    +0.000 HD
ENDBRANCH  18  25
ENDBRANCH  16  21
ENDBRANCH   1  16
TORSDOF 6
ENDMDL
MODEL 3
REMARK VINA RESULT:    -7.755      1.500      2.414
REMARK INTER + INTRA:         -11.169
REMARK INTER:                 -10.319
REMARK INTRA:                  -0.850
REMARK UNBOUND:                -0.920
REMARK  Name = 
REMARK  6 active torsions:
REMARK  status: ('A' for Active; 'I' for Inactive)
REMARK    1  A    between atoms: C_2  and  C_4
REMARK    2  A    between atoms: C_7  and  N_8
REMARK    3  A    between atoms: N_8  and  C_9
REMARK    4  A    between atoms: C_9  and  C_10
REMARK    5  A    between atoms: C_14  and  N_15
REMARK    6  A    between atoms: C_18  and  O_19
REMARK                            x       y       z     vdW  Elec       q    Type
REMARK                         _______ _______ _______ _____ _____    ______ ____
ROOT
ATOM      1  C   UNL     1      43.791   5.022  11.317  0.00  0.00    +0.000 C 
ENDROOT
BRANCH   1   2
ATOM      2  C   UNL     1      44.646   6.218  11.627  0.00  0.00    +0.000 A 
ATOM      3  C   UNL     1      44.191   7.504  11.385  0.00  0.00    +0.000 A 
ATOM      4  N   UNL     1      44.934   8.610  11.589  0.00  0.00    +0.000 NA
ATOM      5  C   UNL     1      46.189   8.419  12.074  0.00  0.00    +0.000 A 
ATOM      6  C   UNL     1      46.765   7.185  12.395  0.00  0.00    +0.000 A 
ATOM      7  C   UNL     1      45.943   6.078  12.142  0.00  0.00    +0.000 A 
BRANCH   6   8
ATOM      8  N   UNL     1      48.048   7.037  12.898  0.00  0.00    +0.000 N 
ATOM      9  C   UNL     1      49.240   7.391  12.122  0.00  0.00    +0.000 C 
ATOM     10  C   UNL     1      49.957   8.579  12.758  0.00  0.00    +0.000 C 
ATOM     11  C   UNL     1      50.227   8.350  14.244  0.00  0.00    +0.000 C 
ATOM     12  C   UNL     1      48.966   7.922  14.992  0.00  0.00    +0.000 C 
ATOM     13  C   UNL     1      48.267   6.743  14.318  0.00  0.00    +0.000 C 
BRANCH  11  14
ATOM     14  O   UNL     1      51.269   7.391  14.428  0.00  0.00    +0.000 OA
ATOM     15  H   UNL     1      51.344   6.843  13.630  0.00  0.00    +0.000 HD
ENDBRANCH  11  14
ENDBRANCH   6   8
ENDBRANCH   1   2
BRANCH   1  16
ATOM     16  N   UNL     1      43.733   4.781   9.886  0.00  0.00    +0.000 N 
ATOM     17  H   UNL     1      42.803   4.666   9.502  0.00  0.00    +0.000 HD
BRANCH  16  21
ATOM     18  C   UNL     1      46.466   2.360   7.759  0.00  0.00    +0.000 A 
ATOM     19  C   UNL     1      46.511   3.747   7.607  0.00  0.00    +0.000 A 
ATOM     20  C   UNL     1      45.634   4.562   8.335  0.00  0.00    +0.000 A 
ATOM     21  C   UNL     1      44.716   4.025   9.247  0.00  0.00    +0.000 A 
ATOM     22  C   UNL     1      44.693   2.630   9.394  0.00  0.00    +0.000 A 
ATOM     23  C   UNL     1      45.553   1.804   8.658  0.00  0.00    +0.000 A 
BRANCH  18  25
ATOM     24  N   UNL     1      48.302   2.017   6.186  0.00  0.00    +0.000 N 
ATOM     25  C   UNL     1      47.308   1.453   6.936  0.00  0.00    +0.000 C 
ATOM     26  O   UNL     1      47.135   0.241   6.934  0.00  0.00    +0.000 OA
ATOM     27  H   UNL     1      48.906   1.377   5.686  0.00  0.00    +0.000 HD
ATOM     28  H   UNL     1      48.632   2.960   6.333  0.00  0.00    +0.000 HD
ENDBRANCH  18  25
ENDBRANCH  16  21
ENDBRANCH   1  16
TORSDOF 6
ENDMDL
MODEL 4
REMARK VINA RESULT:    -7.303      2.900      3.951
REMARK INTER + INTRA:         -10.571
REMARK INTER:                  -9.953
REMARK INTRA:                  -0.618
REMARK UNBOUND:                -0.920
REMARK  Name = 
REMARK  6 active torsions:
REMARK  status: ('A' for Active; 'I' for Inactive)
REMARK    1  A    between atoms: C_2  and  C_4
REMARK    2  A    between atoms: C_7  and  N_8
REMARK    3  A    between atoms: N_8  and  C_9
REMARK    4  A    between atoms: C_9  and  C_10
REMARK    5  A    between atoms: C_14  and  N_15
REMARK    6  A    between atoms: C_18  and  O_19
REMARK                            x       y       z     vdW  Elec       q    Type
REMARK                         _______ _______ _______ _____ _____    ______ ____
ROOT
ATOM      1  C   UNL     1      44.771   3.906  12.177  0.00  0.00    +0.000 C 
ENDROOT
BRANCH   1   2
ATOM      2  C   UNL     1      45.822   4.704  12.894  0.00  0.00    +0.000 A 
ATOM      3  C   UNL     1      46.436   5.787  12.287  0.00  0.00    +0.000 A 
ATOM      4  N   UNL     1      47.424   6.503  12.858  0.00  0.00    +0.000 NA
ATOM      5  C   UNL     1      47.805   6.126  14.107  0.00  0.00    +0.000 A 
ATOM      6  C   UNL     1      47.252   5.079  14.853  0.00  0.00    +0.000 A 
ATOM      7  C   UNL     1      46.242   4.367  14.190  0.00  0.00    +0.000 A 
BRANCH   6   8
ATOM      8  N   UNL     1      47.665   4.735  16.130  0.00  0.00    +0.000 N 
ATOM      9  C   UNL     1      47.463   3.393  16.683  0.00  0.00    +0.000 C 
ATOM     10  C   UNL     1      48.805   2.697  16.895  0.00  0.00    +0.000 C 
ATOM     11  C   UNL     1      49.774   3.563  17.699  0.00  0.00    +0.000 C 
ATOM     12  C   UNL     1      49.897   4.969  17.115  0.00  0.00    +0.000 C 
ATOM     13  C   UNL     1      48.535   5.627  16.902  0.00  0.00    +0.000 C 
BRANCH  11  14
ATOM     14  O   UNL     1      49.383   3.621  19.070  0.00  0.00    +0.000 OA
ATOM     15  H   UNL     1      48.452   3.890  19.127  0.00  0.00    +0.000 HD
ENDBRANCH  11  14
ENDBRANCH   6   8
ENDBRANCH   1   2
BRANCH   1  16
ATOM     16  N   UNL     1      44.494   4.469  10.867  0.00  0.00    +0.000 N 
ATOM     17  H   UNL     1      43.558   4.836  10.742  0.00  0.00    +0.000 HD
BRANCH  16  21
ATOM     18  C   UNL     1      46.487   2.876   7.499  0.00  0.00    +0.000 A 
ATOM     19  C   UNL     1      45.854   2.015   8.396  0.00  0.00    +0.000 A 
ATOM     20  C   UNL     1      45.159   2.534   9.497  0.00  0.00    +0.000 A 
ATOM     21  C   UNL     1      45.052   3.913   9.717  0.00  0.00    +0.000 A 
ATOM     22  C   UNL     1      45.686   4.763   8.798  0.00  0.00    +0.000 A 
ATOM     23  C   UNL     1      46.398   4.255   7.703  0.00  0.00    +0.000 A 
BRANCH  18  25
ATOM     24  N   UNL     1      48.674   2.481   6.488  0.00  0.00    +0.000 N 
ATOM     25  C   UNL     1      47.316   2.368   6.375  0.00  0.00    +0.000 C 
ATOM     26  O   UNL     1      46.812   1.851   5.386  0.00  0.00    +0.000 OA
ATOM     27  H   UNL     1      49.222   2.069   5.744  0.00  0.00    +0.000 HD
ATOM     28  H   UNL     1      49.137   2.675   7.363  0.00  0.00    +0.000 HD
ENDBRANCH  18  25
ENDBRANCH  16  21
ENDBRANCH   1  16
TORSDOF 6
ENDMDL
MODEL 5
REMARK VINA RESULT:    -6.855      4.421      8.052
REMARK INTER + INTRA:          -9.980
REMARK INTER:                  -9.194
REMARK INTRA:                  -0.786
REMARK UNBOUND:                -0.920
REMARK  Name = 
REMARK  6 active torsions:
REMARK  status: ('A' for Active; 'I' for Inactive)
REMARK    1  A    between atoms: C_2  and  C_4
REMARK    2  A    between atoms: C_7  and  N_8
REMARK    3  A    between atoms: N_8  and  C_9
REMARK    4  A    between atoms: C_9  and  C_10
REMARK    5  A    between atoms: C_14  and  N_15
REMARK    6  A    between atoms: C_18  and  O_19
REMARK                            x       y       z     vdW  Elec       q    Type
REMARK                         _______ _______ _______ _____ _____    ______ ____
ROOT
ATOM      1  C   UNL     1      48.804   6.714  15.781  0.00  0.00    +0.000 C 
ENDROOT
BRANCH   1   2
ATOM      2  C   UNL     1      48.155   6.562  14.434  0.00  0.00    +0.000 A 
ATOM      3  C   UNL     1      48.570   7.318  13.351  0.00  0.00    +0.000 A 
ATOM      4  N   UNL     1      47.988   7.265  12.136  0.00  0.00    +0.000 NA
ATOM      5  C   UNL     1      46.950   6.400  11.996  0.00  0.00    +0.000 A 
ATOM      6  C   UNL     1      46.448   5.552  12.990  0.00  0.00    +0.000 A 
ATOM      7  C   UNL     1      47.089   5.673  14.231  0.00  0.00    +0.000 A 
BRANCH   6   8
ATOM      8  N   UNL     1      45.391   4.677  12.800  0.00  0.00    +0.000 N 
ATOM      9  C   UNL     1      43.993   5.103  12.896  0.00  0.00    +0.000 C 
ATOM     10  C   UNL     1      43.311   5.006  11.533  0.00  0.00    +0.000 C 
ATOM     11  C   UNL     1      43.500   3.628  10.901  0.00  0.00    +0.000 C 
ATOM     12  C   UNL     1      44.967   3.206  10.885  0.00  0.00    +0.000 C 
ATOM     13  C   UNL     1      45.620   3.332  12.260  0.00  0.00    +0.000 C 
BRANCH  11  14
ATOM     14  O   UNL     1      42.704   2.651  11.571  0.00  0.00    +0.000 OA
ATOM     15  H   UNL     1      43.225   2.244  12.282  0.00  0.00    +0.000 HD
ENDBRANCH  11  14
ENDBRANCH   6   8
ENDBRANCH   1   2
BRANCH   1  16
ATOM     16  N   UNL     1      48.390   5.652  16.680  0.00  0.00    +0.000 N 
ATOM     17  H   UNL     1      47.733   5.925  17.401  0.00  0.00    +0.000 HD
BRANCH  16  21
ATOM     18  C   UNL     1      51.111   2.531  17.524  0.00  0.00    +0.000 A 
ATOM     19  C   UNL     1      51.514   3.858  17.681  0.00  0.00    +0.000 A 
ATOM     20  C   UNL     1      50.609   4.901  17.439  0.00  0.00    +0.000 A 
ATOM     21  C   UNL     1      49.282   4.652  17.065  0.00  0.00    +0.000 A 
ATOM     22  C   UNL     1      48.893   3.311  16.922  0.00  0.00    +0.000 A 
ATOM     23  C   UNL     1      49.794   2.261  17.144  0.00  0.00    +0.000 A 
BRANCH  18  25
ATOM     24  N   UNL     1      51.567   0.213  18.140  0.00  0.00    +0.000 N 
ATOM     25  C   UNL     1      52.063   1.399  17.673  0.00  0.00    +0.000 C 
ATOM     26  O   UNL     1      53.245   1.510  17.378  0.00  0.00    +0.000 OA
ATOM     27  H   UNL     1      52.216  -0.563  18.171  0.00  0.00    +0.000 HD
ATOM     28  H   UNL     1      50.581   0.005  18.171  0.00  0.00    +0.000 HD
ENDBRANCH  18  25
ENDBRANCH  16  21
ENDBRANCH   1  16
TORSDOF 6
ENDMDL
MODEL 6
REMARK VINA RESULT:    -6.746      2.968      7.604
REMARK INTER + INTRA:          -9.835
REMARK INTER:                  -9.153
REMARK INTRA:                  -0.683
REMARK UNBOUND:                -0.920
REMARK  Name = 
REMARK  6 active torsions:
REMARK  status: ('A' for Active; 'I' for Inactive)
REMARK    1  A    between atoms: C_2  and  C_4
REMARK    2  A    between atoms: C_7  and  N_8
REMARK    3  A    between atoms: N_8  and  C_9
REMARK    4  A    between atoms: C_9  and  C_10
REMARK    5  A    between atoms: C_14  and  N_15
REMARK    6  A    between atoms: C_18  and  O_19
REMARK                            x       y       z     vdW  Elec       q    Type
REMARK                         _______ _______ _______ _____ _____    ______ ____
ROOT
ATOM      1  C   UNL     1      45.498   6.149  13.006  0.00  0.00    +0.000 C 
ENDROOT
BRANCH   1   2
ATOM      2  C   UNL     1      44.857   4.960  12.348  0.00  0.00    +0.000 A 
ATOM      3  C   UNL     1      44.015   4.119  13.056  0.00  0.00    +0.000 A 
ATOM      4  N   UNL     1      43.458   3.008  12.534  0.00  0.00    +0.000 NA
ATOM      5  C   UNL     1      43.746   2.736  11.234  0.00  0.00    +0.000 A 
ATOM      6  C   UNL     1      44.548   3.513  10.391  0.00  0.00    +0.000 A 
ATOM      7  C   UNL     1      45.108   4.642  11.005  0.00  0.00    +0.000 A 
BRANCH   6   8
ATOM      8  N   UNL     1      44.807   3.202   9.066  0.00  0.00    +0.000 N 
ATOM      9  C   UNL     1      45.166   4.223   8.078  0.00  0.00    +0.000 C 
ATOM     10  C   UNL     1      46.602   4.023   7.602  0.00  0.00    +0.000 C 
ATOM     11  C   UNL     1      46.852   2.590   7.136  0.00  0.00    +0.000 C 
ATOM     12  C   UNL     1      46.401   1.567   8.176  0.00  0.00    +0.000 C 
ATOM     13  C   UNL     1      44.966   1.809   8.640  0.00  0.00    +0.000 C 
BRANCH  11  14
ATOM     14  O   UNL     1      46.212   2.347   5.883  0.00  0.00    +0.000 OA
ATOM     15  H   UNL     1      45.369   1.891   6.036  0.00  0.00    +0.000 HD
ENDBRANCH  11  14
ENDBRANCH   6   8
ENDBRANCH   1   2
BRANCH   1  16
ATOM     16  N   UNL     1      46.929   5.949  13.157  0.00  0.00    +0.000 N 
ATOM     17  H   UNL     1      47.407   5.597  12.336  0.00  0.00    +0.000 HD
BRANCH  16  21
ATOM     18  C   UNL     1      48.394   4.872  16.972  0.00  0.00    +0.000 A 
ATOM     19  C   UNL     1      47.500   4.027  16.313  0.00  0.00    +0.000 A 
ATOM     20  C   UNL     1      47.036   4.356  15.032  0.00  0.00    +0.000 A 
ATOM     21  C   UNL     1      47.467   5.511  14.367  0.00  0.00    +0.000 A 
ATOM     22  C   UNL     1      48.373   6.343  15.041  0.00  0.00    +0.000 A 
ATOM     23  C   UNL     1      48.831   6.033  16.329  0.00  0.00    +0.000 A 
BRANCH  18  25
ATOM     24  N   UNL     1      49.943   3.834  18.548  0.00  0.00    +0.000 N 
ATOM     25  C   UNL     1      48.835   4.614  18.368  0.00  0.00    +0.000 C 
ATOM     26  O   UNL     1      48.242   5.091  19.327  0.00  0.00    +0.000 OA
ATOM     27  H   UNL     1      50.265   3.726  19.501  0.00  0.00    +0.000 HD
ATOM     28  H   UNL     1      50.589   3.620  17.804  0.00  0.00    +0.000 HD
ENDBRANCH  18  25
ENDBRANCH  16  21
ENDBRANCH   1  16
TORSDOF 6
ENDMDL
MODEL 7
REMARK VINA RESULT:    -6.722      3.800      6.009
REMARK INTER + INTRA:          -9.804
REMARK INTER:                  -8.945
REMARK INTRA:                  -0.859
REMARK UNBOUND:                -0.920
REMARK  Name = 
REMARK  6 active torsions:
REMARK  status: ('A' for Active; 'I' for Inactive)
REMARK    1  A    between atoms: C_2  and  C_4
REMARK    2  A    between atoms: C_7  and  N_8
REMARK    3  A    between atoms: N_8  and  C_9
REMARK    4  A    between atoms: C_9  and  C_10
REMARK    5  A    between atoms: C_14  and  N_15
REMARK    6  A    between atoms: C_18  and  O_19
REMARK                            x       y       z     vdW  Elec       q    Type
REMARK                         _______ _______ _______ _____ _____    ______ ____
ROOT
ATOM      1  C   UNL     1      47.934   7.955  13.176  0.00  0.00    +0.000 C 
ENDROOT
BRANCH   1   2
ATOM      2  C   UNL     1      48.963   7.605  14.214  0.00  0.00    +0.000 A 
ATOM      3  C   UNL     1      50.259   8.085  14.126  0.00  0.00    +0.000 A 
ATOM      4  N   UNL     1      51.237   7.759  14.994  0.00  0.00    +0.000 NA
ATOM      5  C   UNL     1      50.894   6.924  16.010  0.00  0.00    +0.000 A 
ATOM      6  C   UNL     1      49.621   6.392  16.242  0.00  0.00    +0.000 A 
ATOM      7  C   UNL     1      48.659   6.760  15.291  0.00  0.00    +0.000 A 
BRANCH   6   8
ATOM      8  N   UNL     1      49.313   5.551  17.299  0.00  0.00    +0.000 N 
ATOM      9  C   UNL     1      47.971   5.486  17.884  0.00  0.00    +0.000 C 
ATOM     10  C   UNL     1      47.341   4.120  17.621  0.00  0.00    +0.000 C 
ATOM     11  C   UNL     1      48.262   2.978  18.046  0.00  0.00    +0.000 C 
ATOM     12  C   UNL     1      49.664   3.130  17.461  0.00  0.00    +0.000 C 
ATOM     13  C   UNL     1      50.255   4.513  17.729  0.00  0.00    +0.000 C 
BRANCH  11  14
ATOM     14  O   UNL     1      48.320   2.878  19.469  0.00  0.00    +0.000 OA
ATOM     15  H   UNL     1      49.248   2.827  19.749  0.00  0.00    +0.000 HD
ENDBRANCH  11  14
ENDBRANCH   6   8
ENDBRANCH   1   2
BRANCH   1  16
ATOM     16  N   UNL     1      46.648   7.363  13.499  0.00  0.00    +0.000 N 
ATOM     17  H   UNL     1      46.408   7.356  14.483  0.00  0.00    +0.000 HD
BRANCH  16  21
ATOM     18  C   UNL     1      44.897   4.074  11.507  0.00  0.00    +0.000 A 
ATOM     19  C   UNL     1      45.137   5.256  10.805  0.00  0.00    +0.000 A 
ATOM     20  C   UNL     1      45.750   6.341  11.446  0.00  0.00    +0.000 A 
ATOM     21  C   UNL     1      46.164   6.269  12.782  0.00  0.00    +0.000 A 
ATOM     22  C   UNL     1      45.923   5.069  13.468  0.00  0.00    +0.000 A 
ATOM     23  C   UNL     1      45.294   3.983  12.842  0.00  0.00    +0.000 A 
BRANCH  18  25
ATOM     24  N   UNL     1      44.750   2.291   9.844  0.00  0.00    +0.000 N 
ATOM     25  C   UNL     1      44.161   2.935  10.897  0.00  0.00    +0.000 C 
ATOM     26  O   UNL     1      43.073   2.570  11.325  0.00  0.00    +0.000 OA
ATOM     27  H   UNL     1      44.264   1.478   9.488  0.00  0.00    +0.000 HD
ATOM     28  H   UNL     1      45.726   2.397   9.613  0.00  0.00    +0.000 HD
ENDBRANCH  18  25
ENDBRANCH  16  21
ENDBRANCH   1  16
TORSDOF 6
ENDMDL
MODEL 8
REMARK VINA RESULT:    -6.291      5.048      8.164
REMARK INTER + INTRA:          -9.234
REMARK INTER:                  -8.634
REMARK INTRA:                  -0.600
REMARK UNBOUND:                -0.920
REMARK  Name = 
REMARK  6 active torsions:
REMARK  status: ('A' for Active; 'I' for Inactive)
REMARK    1  A    between atoms: C_2  and  C_4
REMARK    2  A    between atoms: C_7  and  N_8
REMARK    3  A    between atoms: N_8  and  C_9
REMARK    4  A    between atoms: C_9  and  C_10
REMARK    5  A    between atoms: C_14  and  N_15
REMARK    6  A    between atoms: C_18  and  O_19
REMARK                            x       y       z     vdW  Elec       q    Type
REMARK                         _______ _______ _______ _____ _____    ______ ____
ROOT
ATOM      1  C   UNL     1      47.471   4.121  17.001  0.00  0.00    +0.000 C 
ENDROOT
BRANCH   1   2
ATOM      2  C   UNL     1      47.629   4.886  15.718  0.00  0.00    +0.000 A 
ATOM      3  C   UNL     1      48.588   5.876  15.589  0.00  0.00    +0.000 A 
ATOM      4  N   UNL     1      48.737   6.632  14.483  0.00  0.00    +0.000 NA
ATOM      5  C   UNL     1      47.894   6.371  13.450  0.00  0.00    +0.000 A 
ATOM      6  C   UNL     1      46.905   5.382  13.427  0.00  0.00    +0.000 A 
ATOM      7  C   UNL     1      46.795   4.647  14.615  0.00  0.00    +0.000 A 
BRANCH   6   8
ATOM      8  N   UNL     1      46.073   5.144  12.345  0.00  0.00    +0.000 N 
ATOM      9  C   UNL     1      45.162   3.997  12.295  0.00  0.00    +0.000 C 
ATOM     10  C   UNL     1      43.710   4.467  12.325  0.00  0.00    +0.000 C 
ATOM     11  C   UNL     1      43.435   5.528  11.260  0.00  0.00    +0.000 C 
ATOM     12  C   UNL     1      44.450   6.667  11.317  0.00  0.00    +0.000 C 
ATOM     13  C   UNL     1      45.890   6.159  11.302  0.00  0.00    +0.000 C 
BRANCH  11  14
ATOM     14  O   UNL     1      43.408   4.944   9.958  0.00  0.00    +0.000 OA
ATOM     15  H   UNL     1      42.971   4.079  10.004  0.00  0.00    +0.000 HD
ENDBRANCH  11  14
ENDBRANCH   6   8
ENDBRANCH   1   2
BRANCH   1  16
ATOM     16  N   UNL     1      48.613   4.329  17.874  0.00  0.00    +0.000 N 
ATOM     17  H   UNL     1      48.770   5.288  18.163  0.00  0.00    +0.000 HD
BRANCH  16  21
ATOM     18  C   UNL     1      52.154   2.027  17.740  0.00  0.00    +0.000 A 
ATOM     19  C   UNL     1      50.963   1.488  17.253  0.00  0.00    +0.000 A 
ATOM     20  C   UNL     1      49.790   2.255  17.259  0.00  0.00    +0.000 A 
ATOM     21  C   UNL     1      49.778   3.578  17.719  0.00  0.00    +0.000 A 
ATOM     22  C   UNL     1      50.987   4.106  18.196  0.00  0.00    +0.000 A 
ATOM     23  C   UNL     1      52.162   3.342  18.211  0.00  0.00    +0.000 A 
BRANCH  18  25
ATOM     24  N   UNL     1      53.264  -0.114  18.119  0.00  0.00    +0.000 N 
ATOM     25  C   UNL     1      53.397   1.219  17.845  0.00  0.00    +0.000 C 
ATOM     26  O   UNL     1      54.503   1.716  17.678  0.00  0.00    +0.000 OA
ATOM     27  H   UNL     1      54.117  -0.659  18.119  0.00  0.00    +0.000 HD
ATOM     28  H   UNL     1      52.389  -0.608  18.031  0.00  0.00    +0.000 HD
ENDBRANCH  18  25
ENDBRANCH  16  21
ENDBRANCH   1  16
TORSDOF 6
ENDMDL
MODEL 9
REMARK VINA RESULT:    -5.808      4.967      6.528
REMARK INTER + INTRA:          -8.595
REMARK INTER:                  -7.896
REMARK INTRA:                  -0.700
REMARK UNBOUND:                -0.920
REMARK  Name = 
REMARK  6 active torsions:
REMARK  status: ('A' for Active; 'I' for Inactive)
REMARK    1  A    between atoms: C_2  and  C_4
REMARK    2  A    between atoms: C_7  and  N_8
REMARK    3  A    between atoms: N_8  and  C_9
REMARK    4  A    between atoms: C_9  and  C_10
REMARK    5  A    between atoms: C_14  and  N_15
REMARK    6  A    between atoms: C_18  and  O_19
REMARK                            x       y       z     vdW  Elec       q    Type
REMARK                         _______ _______ _______ _____ _____    ______ ____
ROOT
ATOM      1  C   UNL     1      47.142   4.168  16.309  0.00  0.00    +0.000 C 
ENDROOT
BRANCH   1   2
ATOM      2  C   UNL     1      48.471   3.567  16.669  0.00  0.00    +0.000 A 
ATOM      3  C   UNL     1      48.814   2.292  16.252  0.00  0.00    +0.000 A 
ATOM      4  N   UNL     1      49.966   1.680  16.593  0.00  0.00    +0.000 NA
ATOM      5  C   UNL     1      50.823   2.387  17.375  0.00  0.00    +0.000 A 
ATOM      6  C   UNL     1      50.623   3.692  17.839  0.00  0.00    +0.000 A 
ATOM      7  C   UNL     1      49.398   4.259  17.462  0.00  0.00    +0.000 A 
BRANCH   6   8
ATOM      8  N   UNL     1      51.530   4.381  18.628  0.00  0.00    +0.000 N 
ATOM      9  C   UNL     1      52.949   4.019  18.689  0.00  0.00    +0.000 C 
ATOM     10  C   UNL     1      53.808   5.126  18.084  0.00  0.00    +0.000 C 
ATOM     11  C   UNL     1      53.487   6.490  18.692  0.00  0.00    +0.000 C 
ATOM     12  C   UNL     1      51.990   6.788  18.659  0.00  0.00    +0.000 C 
ATOM     13  C   UNL     1      51.162   5.653  19.257  0.00  0.00    +0.000 C 
BRANCH  11  14
ATOM     14  O   UNL     1      53.989   6.582  20.025  0.00  0.00    +0.000 OA
ATOM     15  H   UNL     1      54.919   6.305  20.037  0.00  0.00    +0.000 HD
ENDBRANCH  11  14
ENDBRANCH   6   8
ENDBRANCH   1   2
BRANCH   1  16
ATOM     16  N   UNL     1      47.278   5.112  15.214  0.00  0.00    +0.000 N 
ATOM     17  H   UNL     1      47.339   6.086  15.485  0.00  0.00    +0.000 HD
BRANCH  16  21
ATOM     18  C   UNL     1      45.073   4.313  11.699  0.00  0.00    +0.000 A 
ATOM     19  C   UNL     1      45.271   5.634  12.103  0.00  0.00    +0.000 A 
ATOM     20  C   UNL     1      46.031   5.913  13.247  0.00  0.00    +0.000 A 
ATOM     21  C   UNL     1      46.634   4.894  13.996  0.00  0.00    +0.000 A 
ATOM     22  C   UNL     1      46.433   3.574  13.568  0.00  0.00    +0.000 A 
ATOM     23  C   UNL     1      45.660   3.282  12.436  0.00  0.00    +0.000 A 
BRANCH  18  25
ATOM     24  N   UNL     1      44.217   4.794   9.463  0.00  0.00    +0.000 N 
ATOM     25  C   UNL     1      44.194   3.966  10.551  0.00  0.00    +0.000 C 
ATOM     26  O   UNL     1      43.483   2.969  10.565  0.00  0.00    +0.000 OA
ATOM     27  H   UNL     1      43.663   4.504   8.668  0.00  0.00    +0.000 HD
ATOM     28  H   UNL     1      44.943   5.477   9.309  0.00  0.00    +0.000 HD
ENDBRANCH  18  25
ENDBRANCH  16  21
ENDBRANCH   1  16
TORSDOF 6
ENDMDL
