MODEL 1
REMARK VINA RESULT:    -7.212      0.000      0.000
REMARK INTER + INTRA:         -10.531
REMARK INTER:                  -9.742
REMARK INTRA:                  -0.789
REMARK UNBOUND:                -0.789
REMARK  Name = 
REMARK  7 active torsions:
REMARK  status: ('A' for Active; 'I' for Inactive)
REMARK    1  A    between atoms: C_1  and  N_2
REMARK    2  A    between atoms: N_2  and  C_3
REMARK    3  A    between atoms: C_5  and  C_6
REMARK    4  A    between atoms: C_11  and  O_12
REMARK    5  A    between atoms: O_12  and  C_13
REMARK    6  A    between atoms: C_13  and  C_14
REMARK    7  A    between atoms: C_14  and  C_15
REMARK                            x       y       z     vdW  Elec       q    Type
REMARK                         _______ _______ _______ _____ _____    ______ ____
ROOT
ATOM      1  C   UNL     1      46.541   5.068  13.534  0.00  0.00    +0.000 A 
ATOM      2  C   UNL     1      47.645   5.938  13.559  0.00  0.00    +0.000 A 
ATOM      3  C   UNL     1      47.914   6.839  12.516  0.00  0.00    +0.000 A 
ATOM      4  C   UNL     1      47.061   6.869  11.412  0.00  0.00    +0.000 A 
ATOM      5  C   UNL     1      45.959   6.008  11.361  0.00  0.00    +0.000 A 
ATOM      6  C   UNL     1      45.687   5.118  12.411  0.00  0.00    +0.000 A 
ENDROOT
BRANCH   3   7
ATOM      7  C   UNL     1      49.135   7.689  12.651  0.00  0.00    +0.000 C 
ATOM      8  N   UNL     1      50.066   7.361  13.593  0.00  0.00    +0.000 N 
ATOM      9  O   UNL     1      49.317   8.672  11.940  0.00  0.00    +0.000 OA
ATOM     10  H   UNL     1      50.014   6.576  14.221  0.00  0.00    +0.000 HD
ATOM     11  H   UNL     1      50.878   7.966  13.654  0.00  0.00    +0.000 HD
ENDBRANCH   3   7
BRANCH   1  13
ATOM     12  C   UNL     1      47.225   4.065  15.690  0.00  0.00    +0.000 C 
ATOM     13  N   UNL     1      46.385   4.068  14.506  0.00  0.00    +0.000 N 
ATOM     14  H   UNL     1      46.378   3.158  14.041  0.00  0.00    +0.000 HD
ENDBRANCH   1  13
BRANCH   6  15
ATOM     15  O   UNL     1      44.588   4.313  12.194  0.00  0.00    +0.000 OA
BRANCH  15  16
ATOM     16  C   UNL     1      44.078   4.311  10.854  0.00  0.00    +0.000 C 
BRANCH  16  17
ATOM     17  C   UNL     1      44.099   2.887  10.295  0.00  0.00    +0.000 C 
BRANCH  17  18
ATOM     18  C   UNL     1      45.036   2.781   9.111  0.00  0.00    +0.000 A 
ATOM     19  C   UNL     1      45.603   1.548   8.766  0.00  0.00    +0.000 A 
ATOM     20  C   UNL     1      46.497   1.454   7.696  0.00  0.00    +0.000 A 
ATOM     21  C   UNL     1      46.834   2.596   6.972  0.00  0.00    +0.000 A 
ATOM     22 CL   UNL     1      47.933   2.478   5.652  0.00  0.00    +0.000 Cl
ATOM     23  C   UNL     1      46.289   3.832   7.311  0.00  0.00    +0.000 A 
ATOM     24  C   UNL     1      45.394   3.925   8.380  0.00  0.00    +0.000 A 
ENDBRANCH  17  18
ENDBRANCH  16  17
ENDBRANCH  15  16
ENDBRANCH   6  15
TORSDOF 6
ENDMDL
MODEL 2
REMARK VINA RESULT:    -7.054      1.830      2.528
REMARK INTER + INTRA:         -10.317
REMARK INTER:                  -9.593
REMARK INTRA:                  -0.724
REMARK UNBOUND:                -0.789
REMARK  Name = 
REMARK  7 active torsions:
REMARK  status: ('A' for Active; 'I' for Inactive)
REMARK    1  A    between atoms: C_1  and  N_2
REMARK    2  A    between atoms: N_2  and  C_3
REMARK    3  A    between atoms: C_5  and  C_6
REMARK    4  A    between atoms: C_11  and  O_12
REMARK    5  A    between atoms: O_12  and  C_13
REMARK    6  A    between atoms: C_13  and  C_14
REMARK    7  A    between atoms: C_14  and  C_15
REMARK                            x       y       z     vdW  Elec       q    Type
REMARK                         _______ _______ _______ _____ _____    ______ ____
ROOT
ATOM      1  C   UNL     1      45.270   7.019  12.475  0.00  0.00    +0.000 A 
ATOM      2  C   UNL     1      46.634   7.267  12.706  0.00  0.00    +0.000 A 
ATOM      3  C   UNL     1      47.477   6.320  13.311  0.00  0.00    +0.000 A 
ATOM      4  C   UNL     1      46.942   5.092  13.703  0.00  0.00    +0.000 A 
ATOM      5  C   UNL     1      45.585   4.824  13.490  0.00  0.00    +0.000 A 
ATOM      6  C   UNL     1      44.750   5.768  12.874  0.00  0.00    +0.000 A 
ENDROOT
BRANCH   3   7
ATOM      7  C   UNL     1      48.901   6.718  13.526  0.00  0.00    +0.000 C 
ATOM      8  N   UNL     1      49.652   7.088  12.448  0.00  0.00    +0.000 N 
ATOM      9  O   UNL     1      49.408   6.716  14.642  0.00  0.00    +0.000 OA
ATOM     10  H   UNL     1      49.331   7.128  11.494  0.00  0.00    +0.000 HD
ATOM     11  H   UNL     1      50.614   7.348  12.637  0.00  0.00    +0.000 HD
ENDBRANCH   3   7
BRANCH   1  13
ATOM     12  C   UNL     1      44.940   9.362  11.753  0.00  0.00    +0.000 C 
ATOM     13  N   UNL     1      44.416   8.036  12.022  0.00  0.00    +0.000 N 
ATOM     14  H   UNL     1      43.593   8.066  12.626  0.00  0.00    +0.000 HD
ENDBRANCH   1  13
BRANCH   6  15
ATOM     15  O   UNL     1      43.433   5.369  12.769  0.00  0.00    +0.000 OA
BRANCH  15  16
ATOM     16  C   UNL     1      43.018   4.945  11.464  0.00  0.00    +0.000 C 
BRANCH  16  17
ATOM     17  C   UNL     1      43.430   3.489  11.238  0.00  0.00    +0.000 C 
BRANCH  17  18
ATOM     18  C   UNL     1      44.325   3.359  10.025  0.00  0.00    +0.000 A 
ATOM     19  C   UNL     1      44.683   2.094   9.541  0.00  0.00    +0.000 A 
ATOM     20  C   UNL     1      45.539   1.971   8.444  0.00  0.00    +0.000 A 
ATOM     21  C   UNL     1      46.048   3.114   7.830  0.00  0.00    +0.000 A 
ATOM     22 CL   UNL     1      47.099   2.960   6.475  0.00  0.00    +0.000 Cl
ATOM     23  C   UNL     1      45.713   4.378   8.307  0.00  0.00    +0.000 A 
ATOM     24  C   UNL     1      44.855   4.501   9.404  0.00  0.00    +0.000 A 
ENDBRANCH  17  18
ENDBRANCH  16  17
ENDBRANCH  15  16
ENDBRANCH   6  15
TORSDOF 6
ENDMDL
MODEL 3
REMARK VINA RESULT:    -6.949      3.601      6.340
REMARK INTER + INTRA:         -10.175
REMARK INTER:                  -9.820
REMARK INTRA:                  -0.355
REMARK UNBOUND:                -0.789
REMARK  Name = 
REMARK  7 active torsions:
REMARK  status: ('A' for Active; 'I' for Inactive)
REMARK    1  A    between atoms: C_1  and  N_2
REMARK    2  A    between atoms: N_2  and  C_3
REMARK    3  A    between atoms: C_5  and  C_6
REMARK    4  A    between atoms: C_11  and  O_12
REMARK    5  A    between atoms: O_12  and  C_13
REMARK    6  A    between atoms: C_13  and  C_14
REMARK    7  A    between atoms: C_14  and  C_15
REMARK                            x       y       z     vdW  Elec       q    Type
REMARK                         _______ _______ _______ _____ _____    ______ ____
ROOT
ATOM      1  C   UNL     1      44.788   2.664   9.612  0.00  0.00    +0.000 A 
ATOM      2  C   UNL     1      45.644   1.956   8.752  0.00  0.00    +0.000 A 
ATOM      3  C   UNL     1      46.485   2.603   7.831  0.00  0.00    +0.000 A 
ATOM      4  C   UNL     1      46.466   3.996   7.760  0.00  0.00    +0.000 A 
ATOM      5  C   UNL     1      45.617   4.723   8.602  0.00  0.00    +0.000 A 
ATOM      6  C   UNL     1      44.788   4.074   9.529  0.00  0.00    +0.000 A 
ENDROOT
BRANCH   3   7
ATOM      7  C   UNL     1      47.326   1.733   6.954  0.00  0.00    +0.000 C 
ATOM      8  N   UNL     1      48.292   2.311   6.181  0.00  0.00    +0.000 N 
ATOM      9  O   UNL     1      47.168   0.518   6.910  0.00  0.00    +0.000 OA
ATOM     10  H   UNL     1      48.505   3.295   6.148  0.00  0.00    +0.000 HD
ATOM     11  H   UNL     1      48.838   1.686   5.599  0.00  0.00    +0.000 HD
ENDBRANCH   3   7
BRANCH   1  13
ATOM     12  C   UNL     1      43.538   2.482  11.739  0.00  0.00    +0.000 C 
ATOM     13  N   UNL     1      43.844   1.996  10.406  0.00  0.00    +0.000 N 
ATOM     14  H   UNL     1      44.062   0.998  10.404  0.00  0.00    +0.000 HD
ENDBRANCH   1  13
BRANCH   6  15
ATOM     15  O   UNL     1      43.986   4.928  10.258  0.00  0.00    +0.000 OA
BRANCH  15  16
ATOM     16  C   UNL     1      44.671   5.978  10.953  0.00  0.00    +0.000 C 
BRANCH  16  17
ATOM     17  C   UNL     1      45.347   5.414  12.205  0.00  0.00    +0.000 C 
BRANCH  17  18
ATOM     18  C   UNL     1      46.676   6.092  12.458  0.00  0.00    +0.000 A 
ATOM     19  C   UNL     1      47.316   5.955  13.697  0.00  0.00    +0.000 A 
ATOM     20  C   UNL     1      48.524   6.611  13.947  0.00  0.00    +0.000 A 
ATOM     21  C   UNL     1      49.094   7.413  12.960  0.00  0.00    +0.000 A 
ATOM     22 CL   UNL     1      50.585   8.216  13.267  0.00  0.00    +0.000 Cl
ATOM     23  C   UNL     1      48.464   7.570  11.728  0.00  0.00    +0.000 A 
ATOM     24  C   UNL     1      47.256   6.914  11.478  0.00  0.00    +0.000 A 
ENDBRANCH  17  18
ENDBRANCH  16  17
ENDBRANCH  15  16
ENDBRANCH   6  15
TORSDOF 6
ENDMDL
MODEL 4
REMARK VINA RESULT:    -6.434      1.959      3.213
REMARK INTER + INTRA:          -9.480
REMARK INTER:                  -8.873
REMARK INTRA:                  -0.607
REMARK UNBOUND:                -0.789
REMARK  Name = 
REMARK  7 active torsions:
REMARK  status: ('A' for Active; 'I' for Inactive)
REMARK    1  A    between atoms: C_1  and  N_2
REMARK    2  A    between atoms: N_2  and  C_3
REMARK    3  A    between atoms: C_5  and  C_6
REMARK    4  A    between atoms: C_11  and  O_12
REMARK    5  A    between atoms: O_12  and  C_13
REMARK    6  A    between atoms: C_13  and  C_14
REMARK    7  A    between atoms: C_14  and  C_15
REMARK                            x       y       z     vdW  Elec       q    Type
REMARK                         _______ _______ _______ _____ _____    ______ ____
ROOT
ATOM      1  C   UNL     1      47.282   6.588  13.269  0.00  0.00    +0.000 A 
ATOM      2  C   UNL     1      47.913   6.386  14.509  0.00  0.00    +0.000 A 
ATOM      3  C   UNL     1      47.678   5.244  15.292  0.00  0.00    +0.000 A 
ATOM      4  C   UNL     1      46.783   4.278  14.830  0.00  0.00    +0.000 A 
ATOM      5  C   UNL     1      46.138   4.460  13.601  0.00  0.00    +0.000 A 
ATOM      6  C   UNL     1      46.385   5.596  12.816  0.00  0.00    +0.000 A 
ENDROOT
BRANCH   3   7
ATOM      7  C   UNL     1      48.390   5.163  16.604  0.00  0.00    +0.000 C 
ATOM      8  N   UNL     1      47.690   5.405  17.750  0.00  0.00    +0.000 N 
ATOM      9  O   UNL     1      49.583   4.889  16.672  0.00  0.00    +0.000 OA
ATOM     10  H   UNL     1      46.711   5.633  17.803  0.00  0.00    +0.000 HD
ATOM     11  H   UNL     1      48.212   5.343  18.618  0.00  0.00    +0.000 HD
ENDBRANCH   3   7
BRANCH   1  13
ATOM     12  C   UNL     1      48.475   7.994  11.619  0.00  0.00    +0.000 C 
ATOM     13  N   UNL     1      47.406   7.806  12.583  0.00  0.00    +0.000 N 
ATOM     14  H   UNL     1      47.365   8.569  13.261  0.00  0.00    +0.000 HD
ENDBRANCH   1  13
BRANCH   6  15
ATOM     15  O   UNL     1      45.645   5.645  11.652  0.00  0.00    +0.000 OA
BRANCH  15  16
ATOM     16  C   UNL     1      44.442   4.865  11.651  0.00  0.00    +0.000 C 
BRANCH  16  17
ATOM     17  C   UNL     1      43.900   4.753  10.225  0.00  0.00    +0.000 C 
BRANCH  17  18
ATOM     18  C   UNL     1      44.791   3.879   9.370  0.00  0.00    +0.000 A 
ATOM     19  C   UNL     1      45.594   4.447   8.372  0.00  0.00    +0.000 A 
ATOM     20  C   UNL     1      46.389   3.637   7.557  0.00  0.00    +0.000 A 
ATOM     21  C   UNL     1      46.380   2.255   7.732  0.00  0.00    +0.000 A 
ATOM     22 CL   UNL     1      47.364   1.260   6.729  0.00  0.00    +0.000 Cl
ATOM     23  C   UNL     1      45.577   1.674   8.710  0.00  0.00    +0.000 A 
ATOM     24  C   UNL     1      44.782   2.483   9.526  0.00  0.00    +0.000 A 
ENDBRANCH  17  18
ENDBRANCH  16  17
ENDBRANCH  15  16
ENDBRANCH   6  15
TORSDOF 6
ENDMDL
MODEL 5
REMARK VINA RESULT:    -6.127      4.644      7.503
REMARK INTER + INTRA:          -9.065
REMARK INTER:                  -8.583
REMARK INTRA:                  -0.482
REMARK UNBOUND:                -0.789
REMARK  Name = 
REMARK  7 active torsions:
REMARK  status: ('A' for Active; 'I' for Inactive)
REMARK    1  A    between atoms: C_1  and  N_2
REMARK    2  A    between atoms: N_2  and  C_3
REMARK    3  A    between atoms: C_5  and  C_6
REMARK    4  A    between atoms: C_11  and  O_12
REMARK    5  A    between atoms: O_12  and  C_13
REMARK    6  A    between atoms: C_13  and  C_14
REMARK    7  A    between atoms: C_14  and  C_15
REMARK                            x       y       z     vdW  Elec       q    Type
REMARK                         _______ _______ _______ _____ _____    ______ ____
ROOT
ATOM      1  C   UNL     1      45.679   4.077  12.799  0.00  0.00    +0.000 A 
ATOM      2  C   UNL     1      45.149   5.230  12.196  0.00  0.00    +0.000 A 
ATOM      3  C   UNL     1      45.650   6.515  12.465  0.00  0.00    +0.000 A 
ATOM      4  C   UNL     1      46.705   6.654  13.367  0.00  0.00    +0.000 A 
ATOM      5  C   UNL     1      47.246   5.521  13.985  0.00  0.00    +0.000 A 
ATOM      6  C   UNL     1      46.751   4.239  13.704  0.00  0.00    +0.000 A 
ENDROOT
BRANCH   3   7
ATOM      7  C   UNL     1      44.980   7.662  11.780  0.00  0.00    +0.000 C 
ATOM      8  N   UNL     1      43.756   7.465  11.208  0.00  0.00    +0.000 N 
ATOM      9  O   UNL     1      45.502   8.769  11.718  0.00  0.00    +0.000 OA
ATOM     10  H   UNL     1      43.241   6.599  11.207  0.00  0.00    +0.000 HD
ATOM     11  H   UNL     1      43.338   8.268  10.752  0.00  0.00    +0.000 HD
ENDBRANCH   3   7
BRANCH   1  13
ATOM     12  C   UNL     1      43.655   2.751  12.285  0.00  0.00    +0.000 C 
ATOM     13  N   UNL     1      45.060   2.828  12.641  0.00  0.00    +0.000 N 
ATOM     14  H   UNL     1      45.280   2.248  13.453  0.00  0.00    +0.000 HD
ENDBRANCH   1  13
BRANCH   6  15
ATOM     15  O   UNL     1      47.364   3.231  14.420  0.00  0.00    +0.000 OA
BRANCH  15  16
ATOM     16  C   UNL     1      47.566   3.499  15.814  0.00  0.00    +0.000 C 
BRANCH  16  17
ATOM     17  C   UNL     1      48.288   2.318  16.468  0.00  0.00    +0.000 C 
BRANCH  17  18
ATOM     18  C   UNL     1      49.603   2.753  17.076  0.00  0.00    +0.000 A 
ATOM     19  C   UNL     1      49.777   4.071  17.518  0.00  0.00    +0.000 A 
ATOM     20  C   UNL     1      51.003   4.486  18.045  0.00  0.00    +0.000 A 
ATOM     21  C   UNL     1      52.063   3.584  18.127  0.00  0.00    +0.000 A 
ATOM     22 CL   UNL     1      53.570   4.095  18.782  0.00  0.00    +0.000 Cl
ATOM     23  C   UNL     1      51.910   2.275  17.680  0.00  0.00    +0.000 A 
ATOM     24  C   UNL     1      50.683   1.860  17.153  0.00  0.00    +0.000 A 
ENDBRANCH  17  18
ENDBRANCH  16  17
ENDBRANCH  15  16
ENDBRANCH   6  15
TORSDOF 6
ENDMDL
MODEL 6
REMARK VINA RESULT:    -6.043      4.237      7.655
REMARK INTER + INTRA:          -8.952
REMARK INTER:                  -8.447
REMARK INTRA:                  -0.505
REMARK UNBOUND:                -0.789
REMARK  Name = 
REMARK  7 active torsions:
REMARK  status: ('A' for Active; 'I' for Inactive)
REMARK    1  A    between atoms: C_1  and  N_2
REMARK    2  A    between atoms: N_2  and  C_3
REMARK    3  A    between atoms: C_5  and  C_6
REMARK    4  A    between atoms: C_11  and  O_12
REMARK    5  A    between atoms: O_12  and  C_13
REMARK    6  A    between atoms: C_13  and  C_14
REMARK    7  A    between atoms: C_14  and  C_15
REMARK                            x       y       z     vdW  Elec       q    Type
REMARK                         _______ _______ _______ _____ _____    ______ ____
ROOT
ATOM      1  C   UNL     1      46.350   6.039  13.224  0.00  0.00    +0.000 A 
ATOM      2  C   UNL     1      45.345   5.997  12.242  0.00  0.00    +0.000 A 
ATOM      3  C   UNL     1      44.818   4.787  11.759  0.00  0.00    +0.000 A 
ATOM      4  C   UNL     1      45.314   3.584  12.264  0.00  0.00    +0.000 A 
ATOM      5  C   UNL     1      46.319   3.600  13.238  0.00  0.00    +0.000 A 
ATOM      6  C   UNL     1      46.833   4.810  13.727  0.00  0.00    +0.000 A 
ENDROOT
BRANCH   3   7
ATOM      7  C   UNL     1      43.774   4.879  10.695  0.00  0.00    +0.000 C 
ATOM      8  N   UNL     1      44.106   4.549   9.413  0.00  0.00    +0.000 N 
ATOM      9  O   UNL     1      42.631   5.245  10.945  0.00  0.00    +0.000 OA
ATOM     10  H   UNL     1      45.012   4.233   9.104  0.00  0.00    +0.000 HD
ATOM     11  H   UNL     1      43.369   4.628   8.721  0.00  0.00    +0.000 HD
ENDBRANCH   3   7
BRANCH   1  13
ATOM     12  C   UNL     1      46.329   8.512  13.266  0.00  0.00    +0.000 C 
ATOM     13  N   UNL     1      46.972   7.247  13.572  0.00  0.00    +0.000 N 
ATOM     14  H   UNL     1      47.940   7.223  13.246  0.00  0.00    +0.000 HD
ENDBRANCH   1  13
BRANCH   6  15
ATOM     15  O   UNL     1      47.843   4.657  14.654  0.00  0.00    +0.000 OA
BRANCH  15  16
ATOM     16  C   UNL     1      47.432   4.699  16.027  0.00  0.00    +0.000 C 
BRANCH  16  17
ATOM     17  C   UNL     1      47.678   3.339  16.682  0.00  0.00    +0.000 C 
BRANCH  17  18
ATOM     18  C   UNL     1      49.123   3.192  17.107  0.00  0.00    +0.000 A 
ATOM     19  C   UNL     1      49.815   4.283  17.651  0.00  0.00    +0.000 A 
ATOM     20  C   UNL     1      51.160   4.161  18.008  0.00  0.00    +0.000 A 
ATOM     21  C   UNL     1      51.821   2.949  17.818  0.00  0.00    +0.000 A 
ATOM     22 CL   UNL     1      53.477   2.799  18.264  0.00  0.00    +0.000 Cl
ATOM     23  C   UNL     1      51.152   1.860  17.266  0.00  0.00    +0.000 A 
ATOM     24  C   UNL     1      49.806   1.982  16.909  0.00  0.00    +0.000 A 
ENDBRANCH  17  18
ENDBRANCH  16  17
ENDBRANCH  15  16
ENDBRANCH   6  15
TORSDOF 6
ENDMDL
MODEL 7
REMARK VINA RESULT:    -5.565      4.870      7.824
REMARK INTER + INTRA:          -8.306
REMARK INTER:                  -7.750
REMARK INTRA:                  -0.556
REMARK UNBOUND:                -0.789
REMARK  Name = 
REMARK  7 active torsions:
REMARK  status: ('A' for Active; 'I' for Inactive)
REMARK    1  A    between atoms: C_1  and  N_2
REMARK    2  A    between atoms: N_2  and  C_3
REMARK    3  A    between atoms: C_5  and  C_6
REMARK    4  A    between atoms: C_11  and  O_12
REMARK    5  A    between atoms: O_12  and  C_13
REMARK    6  A    between atoms: C_13  and  C_14
REMARK    7  A    between atoms: C_14  and  C_15
REMARK                            x       y       z     vdW  Elec       q    Type
REMARK                         _______ _______ _______ _____ _____    ______ ____
ROOT
ATOM      1  C   UNL     1      45.633   4.186  12.786  0.00  0.00    +0.000 A 
ATOM      2  C   UNL     1      45.070   5.316  12.169  0.00  0.00    +0.000 A 
ATOM      3  C   UNL     1      45.571   6.612  12.378  0.00  0.00    +0.000 A 
ATOM      4  C   UNL     1      46.660   6.787  13.232  0.00  0.00    +0.000 A 
ATOM      5  C   UNL     1      47.234   5.677  13.863  0.00  0.00    +0.000 A 
ATOM      6  C   UNL     1      46.739   4.383  13.642  0.00  0.00    +0.000 A 
ENDROOT
BRANCH   3   7
ATOM      7  C   UNL     1      44.865   7.732  11.685  0.00  0.00    +0.000 C 
ATOM      8  N   UNL     1      43.668   7.483  11.078  0.00  0.00    +0.000 N 
ATOM      9  O   UNL     1      45.335   8.864  11.647  0.00  0.00    +0.000 OA
ATOM     10  H   UNL     1      43.195   6.593  11.056  0.00  0.00    +0.000 HD
ATOM     11  H   UNL     1      43.224   8.269  10.617  0.00  0.00    +0.000 HD
ENDBRANCH   3   7
BRANCH   1  13
ATOM     12  C   UNL     1      43.649   2.820  12.221  0.00  0.00    +0.000 C 
ATOM     13  N   UNL     1      45.018   2.928  12.692  0.00  0.00    +0.000 N 
ATOM     14  H   UNL     1      45.160   2.428  13.571  0.00  0.00    +0.000 HD
ENDBRANCH   1  13
BRANCH   6  15
ATOM     15  O   UNL     1      47.388   3.403  14.365  0.00  0.00    +0.000 OA
BRANCH  15  16
ATOM     16  C   UNL     1      47.231   3.478  15.788  0.00  0.00    +0.000 C 
BRANCH  16  17
ATOM     17  C   UNL     1      48.480   2.923  16.475  0.00  0.00    +0.000 C 
BRANCH  17  18
ATOM     18  C   UNL     1      48.972   3.864  17.552  0.00  0.00    +0.000 A 
ATOM     19  C   UNL     1      48.611   3.660  18.890  0.00  0.00    +0.000 A 
ATOM     20  C   UNL     1      49.033   4.550  19.882  0.00  0.00    +0.000 A 
ATOM     21  C   UNL     1      49.814   5.652  19.537  0.00  0.00    +0.000 A 
ATOM     22 CL   UNL     1      50.337   6.745  20.761  0.00  0.00    +0.000 Cl
ATOM     23  C   UNL     1      50.170   5.877  18.210  0.00  0.00    +0.000 A 
ATOM     24  C   UNL     1      49.748   4.986  17.219  0.00  0.00    +0.000 A 
ENDBRANCH  17  18
ENDBRANCH  16  17
ENDBRANCH  15  16
ENDBRANCH   6  15
TORSDOF 6
ENDMDL
MODEL 8
REMARK VINA RESULT:    -5.430      4.620      8.091
REMARK INTER + INTRA:          -8.124
REMARK INTER:                  -7.312
REMARK INTRA:                  -0.812
REMARK UNBOUND:                -0.789
REMARK  Name = 
REMARK  7 active torsions:
REMARK  status: ('A' for Active; 'I' for Inactive)
REMARK    1  A    between atoms: C_1  and  N_2
REMARK    2  A    between atoms: N_2  and  C_3
REMARK    3  A    between atoms: C_5  and  C_6
REMARK    4  A    between atoms: C_11  and  O_12
REMARK    5  A    between atoms: O_12  and  C_13
REMARK    6  A    between atoms: C_13  and  C_14
REMARK    7  A    between atoms: C_14  and  C_15
REMARK                            x       y       z     vdW  Elec       q    Type
REMARK                         _______ _______ _______ _____ _____    ______ ____
ROOT
ATOM      1  C   UNL     1      45.236   6.985  12.819  0.00  0.00    +0.000 A 
ATOM      2  C   UNL     1      44.349   5.954  12.463  0.00  0.00    +0.000 A 
ATOM      3  C   UNL     1      44.723   4.599  12.494  0.00  0.00    +0.000 A 
ATOM      4  C   UNL     1      46.020   4.264  12.884  0.00  0.00    +0.000 A 
ATOM      5  C   UNL     1      46.923   5.274  13.237  0.00  0.00    +0.000 A 
ATOM      6  C   UNL     1      46.542   6.624  13.217  0.00  0.00    +0.000 A 
ENDROOT
BRANCH   3   7
ATOM      7  C   UNL     1      43.696   3.603  12.065  0.00  0.00    +0.000 C 
ATOM      8  N   UNL     1      43.781   2.324  12.533  0.00  0.00    +0.000 N 
ATOM      9  O   UNL     1      42.785   3.905  11.302  0.00  0.00    +0.000 OA
ATOM     10  H   UNL     1      44.484   1.976  13.164  0.00  0.00    +0.000 HD
ATOM     11  H   UNL     1      43.066   1.679  12.215  0.00  0.00    +0.000 HD
ENDBRANCH   3   7
BRANCH   1  13
ATOM     12  C   UNL     1      44.605   8.825  11.291  0.00  0.00    +0.000 C 
ATOM     13  N   UNL     1      44.895   8.332  12.626  0.00  0.00    +0.000 N 
ATOM     14  H   UNL     1      45.580   8.916  13.108  0.00  0.00    +0.000 HD
ENDBRANCH   1  13
BRANCH   6  15
ATOM     15  O   UNL     1      47.555   7.498  13.555  0.00  0.00    +0.000 OA
BRANCH  15  16
ATOM     16  C   UNL     1      48.854   6.910  13.703  0.00  0.00    +0.000 C 
BRANCH  16  17
ATOM     17  C   UNL     1      49.593   7.575  14.867  0.00  0.00    +0.000 C 
BRANCH  17  18
ATOM     18  C   UNL     1      48.982   7.182  16.194  0.00  0.00    +0.000 A 
ATOM     19  C   UNL     1      48.723   8.153  17.170  0.00  0.00    +0.000 A 
ATOM     20  C   UNL     1      48.195   7.787  18.410  0.00  0.00    +0.000 A 
ATOM     21  C   UNL     1      47.930   6.446  18.684  0.00  0.00    +0.000 A 
ATOM     22 CL   UNL     1      47.274   5.998  20.211  0.00  0.00    +0.000 Cl
ATOM     23  C   UNL     1      48.195   5.467  17.730  0.00  0.00    +0.000 A 
ATOM     24  C   UNL     1      48.723   5.833  16.488  0.00  0.00    +0.000 A 
ENDBRANCH  17  18
ENDBRANCH  16  17
ENDBRANCH  15  16
ENDBRANCH   6  15
TORSDOF 6
ENDMDL
MODEL 9
REMARK VINA RESULT:    -5.116      4.451      8.157
REMARK INTER + INTRA:          -7.699
REMARK INTER:                  -7.140
REMARK INTRA:                  -0.559
REMARK UNBOUND:                -0.789
REMARK  Name = 
REMARK  7 active torsions:
REMARK  status: ('A' for Active; 'I' for Inactive)
REMARK    1  A    between atoms: C_1  and  N_2
REMARK    2  A    between atoms: N_2  and  C_3
REMARK    3  A    between atoms: C_5  and  C_6
REMARK    4  A    between atoms: C_11  and  O_12
REMARK    5  A    between atoms: O_12  and  C_13
REMARK    6  A    between atoms: C_13  and  C_14
REMARK    7  A    between atoms: C_14  and  C_15
REMARK                            x       y       z     vdW  Elec       q    Type
REMARK                         _______ _______ _______ _____ _____    ______ ____
ROOT
ATOM      1  C   UNL     1      46.356   5.921  13.268  0.00  0.00    +0.000 A 
ATOM      2  C   UNL     1      45.607   5.775  12.087  0.00  0.00    +0.000 A 
ATOM      3  C   UNL     1      45.226   4.516  11.593  0.00  0.00    +0.000 A 
ATOM      4  C   UNL     1      45.609   3.370  12.291  0.00  0.00    +0.000 A 
ATOM      5  C   UNL     1      46.360   3.491  13.465  0.00  0.00    +0.000 A 
ATOM      6  C   UNL     1      46.728   4.750  13.963  0.00  0.00    +0.000 A 
ENDROOT
BRANCH   3   7
ATOM      7  C   UNL     1      44.455   4.495  10.312  0.00  0.00    +0.000 C 
ATOM      8  N   UNL     1      45.073   4.056   9.178  0.00  0.00    +0.000 N 
ATOM      9  O   UNL     1      43.288   4.866  10.258  0.00  0.00    +0.000 OA
ATOM     10  H   UNL     1      46.023   3.727   9.116  0.00  0.00    +0.000 HD
ATOM     11  H   UNL     1      44.515   4.061   8.330  0.00  0.00    +0.000 HD
ENDBRANCH   3   7
BRANCH   1  13
ATOM     12  C   UNL     1      47.037   8.223  12.667  0.00  0.00    +0.000 C 
ATOM     13  N   UNL     1      46.862   7.172  13.653  0.00  0.00    +0.000 N 
ATOM     14  H   UNL     1      47.705   7.026  14.210  0.00  0.00    +0.000 HD
ENDBRANCH   1  13
BRANCH   6  15
ATOM     15  O   UNL     1      47.497   4.698  15.107  0.00  0.00    +0.000 OA
BRANCH  15  16
ATOM     16  C   UNL     1      47.696   3.390  15.660  0.00  0.00    +0.000 C 
BRANCH  16  17
ATOM     17  C   UNL     1      47.135   3.340  17.083  0.00  0.00    +0.000 C 
BRANCH  17  18
ATOM     18  C   UNL     1      47.835   4.338  17.979  0.00  0.00    +0.000 A 
ATOM     19  C   UNL     1      47.127   5.417  18.525  0.00  0.00    +0.000 A 
ATOM     20  C   UNL     1      47.779   6.361  19.322  0.00  0.00    +0.000 A 
ATOM     21  C   UNL     1      49.145   6.234  19.571  0.00  0.00    +0.000 A 
ATOM     22 CL   UNL     1      49.945   7.396  20.558  0.00  0.00    +0.000 Cl
ATOM     23  C   UNL     1      49.865   5.176  19.025  0.00  0.00    +0.000 A 
ATOM     24  C   UNL     1      49.213   4.231  18.228  0.00  0.00    +0.000 A 
ENDBRANCH  17  18
ENDBRANCH  16  17
ENDBRANCH  15  16
ENDBRANCH   6  15
TORSDOF 6
ENDMDL
