MODEL 1
REMARK VINA RESULT:    -7.910      0.000      0.000
REMARK INTER + INTRA:         -13.088
REMARK INTER:                 -11.841
REMARK INTRA:                  -1.247
REMARK UNBOUND:                -1.247
REMARK  Name = 
REMARK  9 active torsions:
REMARK  status: ('A' for Active; 'I' for Inactive)
REMARK    1  A    between atoms: C_2  and  C_3
REMARK    2  A    between atoms: C_6  and  N_7
REMARK    3  A    between atoms: N_7  and  C_8
REMARK    4  A    between atoms: C_8  and  C_9
REMARK    5  A    between atoms: C_9  and  C_10
REMARK    6  A    between atoms: C_9  and  C_12
REMARK    7  A    between atoms: C_10  and  O_11
REMARK    8  A    between atoms: C_16  and  C_17
REMARK    9  A    between atoms: C_17  and  C_18
REMARK                            x       y       z     vdW  Elec       q    Type
REMARK                         _______ _______ _______ _____ _____    ______ ____
ROOT
ATOM      1  C   UNL     1      44.107   5.222  12.425  0.00  0.00    +0.000 C 
ENDROOT
BRANCH   1   2
ATOM      2  C   UNL     1      45.582   5.531  12.676  0.00  0.00    +0.000 A 
ATOM      3  C   UNL     1      46.281   6.354  11.782  0.00  0.00    +0.000 A 
ATOM      4  C   UNL     1      47.558   6.817  12.098  0.00  0.00    +0.000 A 
ATOM      5  C   UNL     1      48.151   6.469  13.312  0.00  0.00    +0.000 A 
ATOM      6  C   UNL     1      47.493   5.612  14.201  0.00  0.00    +0.000 A 
ATOM      7  C   UNL     1      46.221   5.129  13.862  0.00  0.00    +0.000 A 
BRANCH   6   8
ATOM      8  C   UNL     1      48.124   5.244  15.524  0.00  0.00    +0.000 C 
BRANCH   8   9
ATOM      9  C   UNL     1      47.230   4.294  16.314  0.00  0.00    +0.000 C 
ATOM     10  C   UNL     1      47.080   4.661  17.805  0.00  0.00    +0.000 C 
ATOM     11  N   UNL     1      47.297   3.253  18.170  0.00  0.00    +0.000 NA
ATOM     12  C   UNL     1      47.835   2.972  16.829  0.00  0.00    +0.000 C 
ATOM     13  H   UNL     1      46.436   2.749  18.381  0.00  0.00    +0.000 HD
ENDBRANCH   8   9
ENDBRANCH   6   8
ENDBRANCH   1   2
BRANCH   1  14
ATOM     14  C   UNL     1      44.020   3.797  11.826  0.00  0.00    +0.000 C 
BRANCH  14  15
ATOM     15  N   UNL     1      43.628   3.777  10.421  0.00  0.00    +0.000 N 
ATOM     16  H   UNL     1      43.116   4.616  10.149  0.00  0.00    +0.000 HD
BRANCH  15  20
ATOM     17  C   UNL     1      46.495   2.467   7.623  0.00  0.00    +0.000 A 
ATOM     18  C   UNL     1      46.219   3.830   7.731  0.00  0.00    +0.000 A 
ATOM     19  C   UNL     1      45.240   4.279   8.626  0.00  0.00    +0.000 A 
ATOM     20  C   UNL     1      44.524   3.383   9.426  0.00  0.00    +0.000 A 
ATOM     21  C   UNL     1      44.831   2.020   9.317  0.00  0.00    +0.000 A 
ATOM     22  C   UNL     1      45.796   1.559   8.415  0.00  0.00    +0.000 A 
BRANCH  17  24
ATOM     23  N   UNL     1      48.318   1.626   5.982  0.00  0.00    +0.000 NA
ATOM     24  C   UNL     1      47.504   2.010   6.714  0.00  0.00    +0.000 C 
ENDBRANCH  17  24
ENDBRANCH  15  20
ENDBRANCH  14  15
ENDBRANCH   1  14
BRANCH   1  25
ATOM     25  C   UNL     1      43.377   6.253  11.550  0.00  0.00    +0.000 C 
BRANCH  25  26
ATOM     26  O   UNL     1      41.962   6.189  11.729  0.00  0.00    +0.000 OA
ATOM     27  H   UNL     1      41.755   6.658  12.555  0.00  0.00    +0.000 HD
ENDBRANCH  25  26
ENDBRANCH   1  25
TORSDOF 9
ENDMDL
MODEL 2
REMARK VINA RESULT:    -7.559      2.814      5.007
REMARK INTER + INTRA:         -12.562
REMARK INTER:                 -11.430
REMARK INTRA:                  -1.133
REMARK UNBOUND:                -1.247
REMARK  Name = 
REMARK  9 active torsions:
REMARK  status: ('A' for Active; 'I' for Inactive)
REMARK    1  A    between atoms: C_2  and  C_3
REMARK    2  A    between atoms: C_6  and  N_7
REMARK    3  A    between atoms: N_7  and  C_8
REMARK    4  A    between atoms: C_8  and  C_9
REMARK    5  A    between atoms: C_9  and  C_10
REMARK    6  A    between atoms: C_9  and  C_12
REMARK    7  A    between atoms: C_10  and  O_11
REMARK    8  A    between atoms: C_16  and  C_17
REMARK    9  A    between atoms: C_17  and  C_18
REMARK                            x       y       z     vdW  Elec       q    Type
REMARK                         _______ _______ _______ _____ _____    ______ ____
ROOT
ATOM      1  C   UNL     1      45.553   4.949  11.756  0.00  0.00    +0.000 C 
ENDROOT
BRANCH   1   2
ATOM      2  C   UNL     1      46.018   6.376  12.039  0.00  0.00    +0.000 A 
ATOM      3  C   UNL     1      47.381   6.636  12.239  0.00  0.00    +0.000 A 
ATOM      4  C   UNL     1      47.852   7.947  12.289  0.00  0.00    +0.000 A 
ATOM      5  C   UNL     1      46.969   9.016  12.135  0.00  0.00    +0.000 A 
ATOM      6  C   UNL     1      45.598   8.786  11.980  0.00  0.00    +0.000 A 
ATOM      7  C   UNL     1      45.130   7.463  11.959  0.00  0.00    +0.000 A 
BRANCH   6   8
ATOM      8  C   UNL     1      44.638   9.939  11.797  0.00  0.00    +0.000 C 
BRANCH   8   9
ATOM      9  C   UNL     1      43.745   9.724  10.581  0.00  0.00    +0.000 C 
ATOM     10  C   UNL     1      43.822  10.854   9.533  0.00  0.00    +0.000 C 
ATOM     11  N   UNL     1      42.355  10.857   9.433  0.00  0.00    +0.000 NA
ATOM     12  C   UNL     1      42.251  10.097  10.689  0.00  0.00    +0.000 C 
ATOM     13  H   UNL     1      42.000  10.356   8.619  0.00  0.00    +0.000 HD
ENDBRANCH   8   9
ENDBRANCH   6   8
ENDBRANCH   1   2
BRANCH   1  14
ATOM     14  C   UNL     1      44.137   5.030  11.135  0.00  0.00    +0.000 C 
BRANCH  14  15
ATOM     15  N   UNL     1      43.804   3.890  10.288  0.00  0.00    +0.000 N 
ATOM     16  H   UNL     1      42.840   3.923   9.954  0.00  0.00    +0.000 HD
BRANCH  15  20
ATOM     17  C   UNL     1      46.602   2.470   7.474  0.00  0.00    +0.000 A 
ATOM     18  C   UNL     1      46.296   3.830   7.506  0.00  0.00    +0.000 A 
ATOM     19  C   UNL     1      45.338   4.313   8.407  0.00  0.00    +0.000 A 
ATOM     20  C   UNL     1      44.674   3.454   9.288  0.00  0.00    +0.000 A 
ATOM     21  C   UNL     1      45.012   2.094   9.254  0.00  0.00    +0.000 A 
ATOM     22  C   UNL     1      45.956   1.599   8.349  0.00  0.00    +0.000 A 
BRANCH  17  24
ATOM     23  N   UNL     1      48.400   1.589   5.826  0.00  0.00    +0.000 NA
ATOM     24  C   UNL     1      47.590   1.979   6.559  0.00  0.00    +0.000 C 
ENDBRANCH  17  24
ENDBRANCH  15  20
ENDBRANCH  14  15
ENDBRANCH   1  14
BRANCH   1  25
ATOM     25  C   UNL     1      45.587   4.011  12.973  0.00  0.00    +0.000 C 
BRANCH  25  26
ATOM     26  O   UNL     1      45.288   2.664  12.610  0.00  0.00    +0.000 OA
ATOM     27  H   UNL     1      44.325   2.606  12.485  0.00  0.00    +0.000 HD
ENDBRANCH  25  26
ENDBRANCH   1  25
TORSDOF 9
ENDMDL
MODEL 3
REMARK VINA RESULT:    -7.492      2.878      7.446
REMARK INTER + INTRA:         -12.462
REMARK INTER:                 -11.478
REMARK INTRA:                  -0.984
REMARK UNBOUND:                -1.247
REMARK  Name = 
REMARK  9 active torsions:
REMARK  status: ('A' for Active; 'I' for Inactive)
REMARK    1  A    between atoms: C_2  and  C_3
REMARK    2  A    between atoms: C_6  and  N_7
REMARK    3  A    between atoms: N_7  and  C_8
REMARK    4  A    between atoms: C_8  and  C_9
REMARK    5  A    between atoms: C_9  and  C_10
REMARK    6  A    between atoms: C_9  and  C_12
REMARK    7  A    between atoms: C_10  and  O_11
REMARK    8  A    between atoms: C_16  and  C_17
REMARK    9  A    between atoms: C_17  and  C_18
REMARK                            x       y       z     vdW  Elec       q    Type
REMARK                         _______ _______ _______ _____ _____    ______ ____
ROOT
ATOM      1  C   UNL     1      43.969   5.610  11.446  0.00  0.00    +0.000 C 
ENDROOT
BRANCH   1   2
ATOM      2  C   UNL     1      44.448   4.462  10.560  0.00  0.00    +0.000 A 
ATOM      3  C   UNL     1      43.934   3.173  10.755  0.00  0.00    +0.000 A 
ATOM      4  C   UNL     1      44.195   2.159   9.833  0.00  0.00    +0.000 A 
ATOM      5  C   UNL     1      44.968   2.422   8.702  0.00  0.00    +0.000 A 
ATOM      6  C   UNL     1      45.531   3.688   8.506  0.00  0.00    +0.000 A 
ATOM      7  C   UNL     1      45.286   4.692   9.454  0.00  0.00    +0.000 A 
BRANCH   6   8
ATOM      8  C   UNL     1      46.356   3.982   7.275  0.00  0.00    +0.000 C 
BRANCH   8   9
ATOM      9  C   UNL     1      46.698   2.701   6.523  0.00  0.00    +0.000 C 
ATOM     10  C   UNL     1      48.068   2.096   6.896  0.00  0.00    +0.000 C 
ATOM     11  N   UNL     1      48.364   1.895   5.471  0.00  0.00    +0.000 NA
ATOM     12  C   UNL     1      47.279   2.817   5.098  0.00  0.00    +0.000 C 
ATOM     13  H   UNL     1      48.217   0.937   5.154  0.00  0.00    +0.000 HD
ENDBRANCH   8   9
ENDBRANCH   6   8
ENDBRANCH   1   2
BRANCH   1  14
ATOM     14  C   UNL     1      44.986   5.767  12.603  0.00  0.00    +0.000 C 
BRANCH  14  15
ATOM     15  N   UNL     1      45.184   7.150  13.024  0.00  0.00    +0.000 N 
ATOM     16  H   UNL     1      44.951   7.293  14.006  0.00  0.00    +0.000 HD
BRANCH  15  20
ATOM     17  C   UNL     1      48.497   9.413  11.734  0.00  0.00    +0.000 A 
ATOM     18  C   UNL     1      48.575   8.021  11.723  0.00  0.00    +0.000 A 
ATOM     19  C   UNL     1      47.499   7.253  12.187  0.00  0.00    +0.000 A 
ATOM     20  C   UNL     1      46.332   7.857  12.665  0.00  0.00    +0.000 A 
ATOM     21  C   UNL     1      46.266   9.257  12.647  0.00  0.00    +0.000 A 
ATOM     22  C   UNL     1      47.341  10.033  12.201  0.00  0.00    +0.000 A 
BRANCH  17  24
ATOM     23  N   UNL     1      50.477  10.842  10.861  0.00  0.00    +0.000 NA
ATOM     24  C   UNL     1      49.595  10.196  11.249  0.00  0.00    +0.000 C 
ENDBRANCH  17  24
ENDBRANCH  15  20
ENDBRANCH  14  15
ENDBRANCH   1  14
BRANCH   1  25
ATOM     25  C   UNL     1      42.532   5.459  11.968  0.00  0.00    +0.000 C 
BRANCH  25  26
ATOM     26  O   UNL     1      42.490   5.422  13.394  0.00  0.00    +0.000 OA
ATOM     27  H   UNL     1      41.790   6.035  13.678  0.00  0.00    +0.000 HD
ENDBRANCH  25  26
ENDBRANCH   1  25
TORSDOF 9
ENDMDL
MODEL 4
REMARK VINA RESULT:    -7.323      2.660      3.629
REMARK INTER + INTRA:         -12.209
REMARK INTER:                 -11.195
REMARK INTRA:                  -1.014
REMARK UNBOUND:                -1.247
REMARK  Name = 
REMARK  9 active torsions:
REMARK  status: ('A' for Active; 'I' for Inactive)
REMARK    1  A    between atoms: C_2  and  C_3
REMARK    2  A    between atoms: C_6  and  N_7
REMARK    3  A    between atoms: N_7  and  C_8
REMARK    4  A    between atoms: C_8  and  C_9
REMARK    5  A    between atoms: C_9  and  C_10
REMARK    6  A    between atoms: C_9  and  C_12
REMARK    7  A    between atoms: C_10  and  O_11
REMARK    8  A    between atoms: C_16  and  C_17
REMARK    9  A    between atoms: C_17  and  C_18
REMARK                            x       y       z     vdW  Elec       q    Type
REMARK                         _______ _______ _______ _____ _____    ______ ____
ROOT
ATOM      1  C   UNL     1      45.483   5.071  11.776  0.00  0.00    +0.000 C 
ENDROOT
BRANCH   1   2
ATOM      2  C   UNL     1      45.969   6.511  11.923  0.00  0.00    +0.000 A 
ATOM      3  C   UNL     1      45.123   7.476  12.486  0.00  0.00    +0.000 A 
ATOM      4  C   UNL     1      45.613   8.738  12.821  0.00  0.00    +0.000 A 
ATOM      5  C   UNL     1      46.955   9.051  12.603  0.00  0.00    +0.000 A 
ATOM      6  C   UNL     1      47.810   8.122  12.000  0.00  0.00    +0.000 A 
ATOM      7  C   UNL     1      47.301   6.865  11.641  0.00  0.00    +0.000 A 
BRANCH   6   8
ATOM      8  C   UNL     1      49.267   8.450  11.775  0.00  0.00    +0.000 C 
BRANCH   8   9
ATOM      9  C   UNL     1      49.982   8.716  13.096  0.00  0.00    +0.000 C 
ATOM     10  C   UNL     1      51.515   8.561  13.027  0.00  0.00    +0.000 C 
ATOM     11  N   UNL     1      51.491   7.792  14.280  0.00  0.00    +0.000 NA
ATOM     12  C   UNL     1      50.040   7.584  14.142  0.00  0.00    +0.000 C 
ATOM     13  H   UNL     1      51.752   8.339  15.100  0.00  0.00    +0.000 HD
ENDBRANCH   8   9
ENDBRANCH   6   8
ENDBRANCH   1   2
BRANCH   1  14
ATOM     14  C   UNL     1      43.997   5.117  11.342  0.00  0.00    +0.000 C 
BRANCH  14  15
ATOM     15  N   UNL     1      43.776   4.684   9.968  0.00  0.00    +0.000 N 
ATOM     16  H   UNL     1      43.350   5.413   9.395  0.00  0.00    +0.000 HD
BRANCH  15  20
ATOM     17  C   UNL     1      46.638   2.703   7.591  0.00  0.00    +0.000 A 
ATOM     18  C   UNL     1      45.797   1.954   8.413  0.00  0.00    +0.000 A 
ATOM     19  C   UNL     1      44.869   2.598   9.241  0.00  0.00    +0.000 A 
ATOM     20  C   UNL     1      44.761   3.992   9.261  0.00  0.00    +0.000 A 
ATOM     21  C   UNL     1      45.600   4.725   8.410  0.00  0.00    +0.000 A 
ATOM     22  C   UNL     1      46.542   4.093   7.592  0.00  0.00    +0.000 A 
BRANCH  17  24
ATOM     23  N   UNL     1      48.342   1.494   6.054  0.00  0.00    +0.000 NA
ATOM     24  C   UNL     1      47.581   2.042   6.737  0.00  0.00    +0.000 C 
ENDBRANCH  17  24
ENDBRANCH  15  20
ENDBRANCH  14  15
ENDBRANCH   1  14
BRANCH   1  25
ATOM     25  C   UNL     1      45.684   4.197  13.024  0.00  0.00    +0.000 C 
BRANCH  25  26
ATOM     26  O   UNL     1      45.557   2.808  12.722  0.00  0.00    +0.000 OA
ATOM     27  H   UNL     1      46.036   2.649  11.890  0.00  0.00    +0.000 HD
ENDBRANCH  25  26
ENDBRANCH   1  25
TORSDOF 9
ENDMDL
MODEL 5
REMARK VINA RESULT:    -7.149      2.279      3.783
REMARK INTER + INTRA:         -11.949
REMARK INTER:                 -10.786
REMARK INTRA:                  -1.163
REMARK UNBOUND:                -1.247
REMARK  Name = 
REMARK  9 active torsions:
REMARK  status: ('A' for Active; 'I' for Inactive)
REMARK    1  A    between atoms: C_2  and  C_3
REMARK    2  A    between atoms: C_6  and  N_7
REMARK    3  A    between atoms: N_7  and  C_8
REMARK    4  A    between atoms: C_8  and  C_9
REMARK    5  A    between atoms: C_9  and  C_10
REMARK    6  A    between atoms: C_9  and  C_12
REMARK    7  A    between atoms: C_10  and  O_11
REMARK    8  A    between atoms: C_16  and  C_17
REMARK    9  A    between atoms: C_17  and  C_18
REMARK                            x       y       z     vdW  Elec       q    Type
REMARK                         _______ _______ _______ _____ _____    ______ ____
ROOT
ATOM      1  C   UNL     1      44.036   5.343  12.371  0.00  0.00    +0.000 C 
ENDROOT
BRANCH   1   2
ATOM      2  C   UNL     1      45.456   5.740  12.770  0.00  0.00    +0.000 A 
ATOM      3  C   UNL     1      46.074   5.108  13.858  0.00  0.00    +0.000 A 
ATOM      4  C   UNL     1      47.432   5.300  14.110  0.00  0.00    +0.000 A 
ATOM      5  C   UNL     1      48.191   6.121  13.275  0.00  0.00    +0.000 A 
ATOM      6  C   UNL     1      47.590   6.798  12.210  0.00  0.00    +0.000 A 
ATOM      7  C   UNL     1      46.217   6.621  11.982  0.00  0.00    +0.000 A 
BRANCH   6   8
ATOM      8  C   UNL     1      48.410   7.676  11.294  0.00  0.00    +0.000 C 
BRANCH   8   9
ATOM      9  C   UNL     1      48.978   8.876  12.045  0.00  0.00    +0.000 C 
ATOM     10  C   UNL     1      48.391  10.233  11.603  0.00  0.00    +0.000 C 
ATOM     11  N   UNL     1      49.745  10.805  11.572  0.00  0.00    +0.000 NA
ATOM     12  C   UNL     1      50.333   9.456  11.588  0.00  0.00    +0.000 C 
ATOM     13  H   UNL     1      49.971  11.362  12.395  0.00  0.00    +0.000 HD
ENDBRANCH   8   9
ENDBRANCH   6   8
ENDBRANCH   1   2
BRANCH   1  14
ATOM     14  C   UNL     1      44.088   3.897  11.820  0.00  0.00    +0.000 C 
BRANCH  14  15
ATOM     15  N   UNL     1      43.663   3.785  10.430  0.00  0.00    +0.000 N 
ATOM     16  H   UNL     1      43.096   4.580  10.132  0.00  0.00    +0.000 HD
BRANCH  15  20
ATOM     17  C   UNL     1      46.517   2.482   7.615  0.00  0.00    +0.000 A 
ATOM     18  C   UNL     1      46.246   3.845   7.732  0.00  0.00    +0.000 A 
ATOM     19  C   UNL     1      45.271   4.293   8.633  0.00  0.00    +0.000 A 
ATOM     20  C   UNL     1      44.555   3.394   9.430  0.00  0.00    +0.000 A 
ATOM     21  C   UNL     1      44.858   2.031   9.313  0.00  0.00    +0.000 A 
ATOM     22  C   UNL     1      45.818   1.572   8.405  0.00  0.00    +0.000 A 
BRANCH  17  24
ATOM     23  N   UNL     1      48.326   1.650   5.954  0.00  0.00    +0.000 NA
ATOM     24  C   UNL     1      47.522   2.028   6.701  0.00  0.00    +0.000 C 
ENDBRANCH  17  24
ENDBRANCH  15  20
ENDBRANCH  14  15
ENDBRANCH   1  14
BRANCH   1  25
ATOM     25  C   UNL     1      43.356   6.304  11.383  0.00  0.00    +0.000 C 
BRANCH  25  26
ATOM     26  O   UNL     1      41.934   6.250  11.487  0.00  0.00    +0.000 OA
ATOM     27  H   UNL     1      41.713   5.462  12.013  0.00  0.00    +0.000 HD
ENDBRANCH  25  26
ENDBRANCH   1  25
TORSDOF 9
ENDMDL
MODEL 6
REMARK VINA RESULT:    -6.909      1.424      7.680
REMARK INTER + INTRA:         -11.589
REMARK INTER:                 -11.061
REMARK INTRA:                  -0.528
REMARK UNBOUND:                -1.247
REMARK  Name = 
REMARK  9 active torsions:
REMARK  status: ('A' for Active; 'I' for Inactive)
REMARK    1  A    between atoms: C_2  and  C_3
REMARK    2  A    between atoms: C_6  and  N_7
REMARK    3  A    between atoms: N_7  and  C_8
REMARK    4  A    between atoms: C_8  and  C_9
REMARK    5  A    between atoms: C_9  and  C_10
REMARK    6  A    between atoms: C_9  and  C_12
REMARK    7  A    between atoms: C_10  and  O_11
REMARK    8  A    between atoms: C_16  and  C_17
REMARK    9  A    between atoms: C_17  and  C_18
REMARK                            x       y       z     vdW  Elec       q    Type
REMARK                         _______ _______ _______ _____ _____    ______ ____
ROOT
ATOM      1  C   UNL     1      44.338   5.848  11.544  0.00  0.00    +0.000 C 
ENDROOT
BRANCH   1   2
ATOM      2  C   UNL     1      44.689   4.666  10.642  0.00  0.00    +0.000 A 
ATOM      3  C   UNL     1      44.122   3.409  10.893  0.00  0.00    +0.000 A 
ATOM      4  C   UNL     1      44.260   2.374   9.969  0.00  0.00    +0.000 A 
ATOM      5  C   UNL     1      44.960   2.582   8.780  0.00  0.00    +0.000 A 
ATOM      6  C   UNL     1      45.574   3.813   8.526  0.00  0.00    +0.000 A 
ATOM      7  C   UNL     1      45.454   4.839   9.475  0.00  0.00    +0.000 A 
BRANCH   6   8
ATOM      8  C   UNL     1      46.321   4.049   7.235  0.00  0.00    +0.000 C 
BRANCH   8   9
ATOM      9  C   UNL     1      46.669   2.731   6.551  0.00  0.00    +0.000 C 
ATOM     10  C   UNL     1      48.045   2.158   6.946  0.00  0.00    +0.000 C 
ATOM     11  N   UNL     1      48.333   1.882   5.531  0.00  0.00    +0.000 NA
ATOM     12  C   UNL     1      47.238   2.774   5.117  0.00  0.00    +0.000 C 
ATOM     13  H   UNL     1      48.191   0.907   5.269  0.00  0.00    +0.000 HD
ENDBRANCH   8   9
ENDBRANCH   6   8
ENDBRANCH   1   2
BRANCH   1  14
ATOM     14  C   UNL     1      45.632   6.671  11.765  0.00  0.00    +0.000 C 
BRANCH  14  15
ATOM     15  N   UNL     1      46.789   5.857  12.120  0.00  0.00    +0.000 N 
ATOM     16  H   UNL     1      47.607   6.077  11.551  0.00  0.00    +0.000 HD
BRANCH  15  20
ATOM     17  C   UNL     1      48.123   5.203  16.064  0.00  0.00    +0.000 A 
ATOM     18  C   UNL     1      47.240   4.293  15.482  0.00  0.00    +0.000 A 
ATOM     19  C   UNL     1      46.754   4.517  14.188  0.00  0.00    +0.000 A 
ATOM     20  C   UNL     1      47.139   5.643  13.454  0.00  0.00    +0.000 A 
ATOM     21  C   UNL     1      48.044   6.534  14.049  0.00  0.00    +0.000 A 
ATOM     22  C   UNL     1      48.523   6.328  15.347  0.00  0.00    +0.000 A 
BRANCH  17  24
ATOM     23  N   UNL     1      49.024   4.786  18.460  0.00  0.00    +0.000 NA
ATOM     24  C   UNL     1      48.626   4.967  17.385  0.00  0.00    +0.000 C 
ENDBRANCH  17  24
ENDBRANCH  15  20
ENDBRANCH  14  15
ENDBRANCH   1  14
BRANCH   1  25
ATOM     25  C   UNL     1      43.675   5.463  12.875  0.00  0.00    +0.000 C 
BRANCH  25  26
ATOM     26  O   UNL     1      42.262   5.661  12.838  0.00  0.00    +0.000 OA
ATOM     27  H   UNL     1      41.977   5.530  11.917  0.00  0.00    +0.000 HD
ENDBRANCH  25  26
ENDBRANCH   1  25
TORSDOF 9
ENDMDL
MODEL 7
REMARK VINA RESULT:    -6.804      2.357      4.055
REMARK INTER + INTRA:         -11.432
REMARK INTER:                 -10.686
REMARK INTRA:                  -0.746
REMARK UNBOUND:                -1.247
REMARK  Name = 
REMARK  9 active torsions:
REMARK  status: ('A' for Active; 'I' for Inactive)
REMARK    1  A    between atoms: C_2  and  C_3
REMARK    2  A    between atoms: C_6  and  N_7
REMARK    3  A    between atoms: N_7  and  C_8
REMARK    4  A    between atoms: C_8  and  C_9
REMARK    5  A    between atoms: C_9  and  C_10
REMARK    6  A    between atoms: C_9  and  C_12
REMARK    7  A    between atoms: C_10  and  O_11
REMARK    8  A    between atoms: C_16  and  C_17
REMARK    9  A    between atoms: C_17  and  C_18
REMARK                            x       y       z     vdW  Elec       q    Type
REMARK                         _______ _______ _______ _____ _____    ______ ____
ROOT
ATOM      1  C   UNL     1      43.969   4.786  12.287  0.00  0.00    +0.000 C 
ENDROOT
BRANCH   1   2
ATOM      2  C   UNL     1      45.166   5.520  12.889  0.00  0.00    +0.000 A 
ATOM      3  C   UNL     1      46.234   4.786  13.423  0.00  0.00    +0.000 A 
ATOM      4  C   UNL     1      47.421   5.424  13.784  0.00  0.00    +0.000 A 
ATOM      5  C   UNL     1      47.558   6.801  13.612  0.00  0.00    +0.000 A 
ATOM      6  C   UNL     1      46.492   7.564  13.123  0.00  0.00    +0.000 A 
ATOM      7  C   UNL     1      45.293   6.917  12.789  0.00  0.00    +0.000 A 
BRANCH   6   8
ATOM      8  C   UNL     1      46.640   9.053  12.919  0.00  0.00    +0.000 C 
BRANCH   8   9
ATOM      9  C   UNL     1      45.758   9.542  11.775  0.00  0.00    +0.000 C 
ATOM     10  C   UNL     1      46.180  10.906  11.191  0.00  0.00    +0.000 C 
ATOM     11  N   UNL     1      44.777  11.345  11.209  0.00  0.00    +0.000 NA
ATOM     12  C   UNL     1      44.427  10.244  12.120  0.00  0.00    +0.000 C 
ATOM     13  H   UNL     1      44.319  11.287  10.299  0.00  0.00    +0.000 HD
ENDBRANCH   8   9
ENDBRANCH   6   8
ENDBRANCH   1   2
BRANCH   1  14
ATOM     14  C   UNL     1      44.088   4.877  10.746  0.00  0.00    +0.000 C 
BRANCH  14  15
ATOM     15  N   UNL     1      43.975   3.588  10.074  0.00  0.00    +0.000 N 
ATOM     16  H   UNL     1      43.010   3.358   9.835  0.00  0.00    +0.000 HD
BRANCH  15  20
ATOM     17  C   UNL     1      46.806   2.405   7.184  0.00  0.00    +0.000 A 
ATOM     18  C   UNL     1      46.405   3.739   7.241  0.00  0.00    +0.000 A 
ATOM     19  C   UNL     1      45.435   4.142   8.167  0.00  0.00    +0.000 A 
ATOM     20  C   UNL     1      44.852   3.227   9.050  0.00  0.00    +0.000 A 
ATOM     21  C   UNL     1      45.285   1.895   8.991  0.00  0.00    +0.000 A 
ATOM     22  C   UNL     1      46.242   1.480   8.059  0.00  0.00    +0.000 A 
BRANCH  17  24
ATOM     23  N   UNL     1      48.622   1.680   5.482  0.00  0.00    +0.000 NA
ATOM     24  C   UNL     1      47.806   1.997   6.242  0.00  0.00    +0.000 C 
ENDBRANCH  17  24
ENDBRANCH  15  20
ENDBRANCH  14  15
ENDBRANCH   1  14
BRANCH   1  25
ATOM     25  C   UNL     1      42.601   5.280  12.782  0.00  0.00    +0.000 C 
BRANCH  25  26
ATOM     26  O   UNL     1      41.952   6.100  11.811  0.00  0.00    +0.000 OA
ATOM     27  H   UNL     1      41.742   6.946  12.243  0.00  0.00    +0.000 HD
ENDBRANCH  25  26
ENDBRANCH   1  25
TORSDOF 9
ENDMDL
MODEL 8
REMARK VINA RESULT:    -5.721      3.243      7.623
REMARK INTER + INTRA:          -9.810
REMARK INTER:                  -8.814
REMARK INTRA:                  -0.997
REMARK UNBOUND:                -1.247
REMARK  Name = 
REMARK  9 active torsions:
REMARK  status: ('A' for Active; 'I' for Inactive)
REMARK    1  A    between atoms: C_2  and  C_3
REMARK    2  A    between atoms: C_6  and  N_7
REMARK    3  A    between atoms: N_7  and  C_8
REMARK    4  A    between atoms: C_8  and  C_9
REMARK    5  A    between atoms: C_9  and  C_10
REMARK    6  A    between atoms: C_9  and  C_12
REMARK    7  A    between atoms: C_10  and  O_11
REMARK    8  A    between atoms: C_16  and  C_17
REMARK    9  A    between atoms: C_17  and  C_18
REMARK                            x       y       z     vdW  Elec       q    Type
REMARK                         _______ _______ _______ _____ _____    ______ ____
ROOT
ATOM      1  C   UNL     1      48.874   7.057  14.455  0.00  0.00    +0.000 C 
ENDROOT
BRANCH   1   2
ATOM      2  C   UNL     1      47.560   7.231  13.697  0.00  0.00    +0.000 A 
ATOM      3  C   UNL     1      46.910   8.473  13.709  0.00  0.00    +0.000 A 
ATOM      4  C   UNL     1      45.830   8.715  12.861  0.00  0.00    +0.000 A 
ATOM      5  C   UNL     1      45.387   7.721  11.987  0.00  0.00    +0.000 A 
ATOM      6  C   UNL     1      45.988   6.458  11.987  0.00  0.00    +0.000 A 
ATOM      7  C   UNL     1      47.056   6.216  12.864  0.00  0.00    +0.000 A 
BRANCH   6   8
ATOM      8  C   UNL     1      45.524   5.383  11.033  0.00  0.00    +0.000 C 
BRANCH   8   9
ATOM      9  C   UNL     1      44.690   4.330  11.755  0.00  0.00    +0.000 C 
ATOM     10  C   UNL     1      44.297   3.124  10.876  0.00  0.00    +0.000 C 
ATOM     11  N   UNL     1      42.921   3.204  11.386  0.00  0.00    +0.000 NA
ATOM     12  C   UNL     1      43.170   4.563  11.894  0.00  0.00    +0.000 C 
ATOM     13  H   UNL     1      42.716   2.523  12.117  0.00  0.00    +0.000 HD
ENDBRANCH   8   9
ENDBRANCH   6   8
ENDBRANCH   1   2
BRANCH   1  14
ATOM     14  C   UNL     1      48.641   7.523  15.914  0.00  0.00    +0.000 C 
BRANCH  14  15
ATOM     15  N   UNL     1      48.253   6.446  16.817  0.00  0.00    +0.000 N 
ATOM     16  H   UNL     1      47.255   6.238  16.767  0.00  0.00    +0.000 HD
BRANCH  15  20
ATOM     17  C   UNL     1      50.371   2.838  17.334  0.00  0.00    +0.000 A 
ATOM     18  C   UNL     1      51.048   4.051  17.458  0.00  0.00    +0.000 A 
ATOM     19  C   UNL     1      50.369   5.259  17.249  0.00  0.00    +0.000 A 
ATOM     20  C   UNL     1      49.011   5.278  16.916  0.00  0.00    +0.000 A 
ATOM     21  C   UNL     1      48.344   4.049  16.818  0.00  0.00    +0.000 A 
ATOM     22  C   UNL     1      49.016   2.837  17.009  0.00  0.00    +0.000 A 
BRANCH  17  24
ATOM     23  N   UNL     1      51.635   0.609  17.729  0.00  0.00    +0.000 NA
ATOM     24  C   UNL     1      51.064   1.604  17.558  0.00  0.00    +0.000 C 
ENDBRANCH  17  24
ENDBRANCH  15  20
ENDBRANCH  14  15
ENDBRANCH   1  14
BRANCH   1  25
ATOM     25  C   UNL     1      50.080   7.764  13.818  0.00  0.00    +0.000 C 
BRANCH  25  26
ATOM     26  O   UNL     1      50.297   7.331  12.475  0.00  0.00    +0.000 OA
ATOM     27  H   UNL     1      49.495   6.860  12.191  0.00  0.00    +0.000 HD
ENDBRANCH  25  26
ENDBRANCH   1  25
TORSDOF 9
ENDMDL
MODEL 9
REMARK VINA RESULT:    -5.516      2.770      4.441
REMARK INTER + INTRA:          -9.503
REMARK INTER:                  -8.565
REMARK INTRA:                  -0.938
REMARK UNBOUND:                -1.247
REMARK  Name = 
REMARK  9 active torsions:
REMARK  status: ('A' for Active; 'I' for Inactive)
REMARK    1  A    between atoms: C_2  and  C_3
REMARK    2  A    between atoms: C_6  and  N_7
REMARK    3  A    between atoms: N_7  and  C_8
REMARK    4  A    between atoms: C_8  and  C_9
REMARK    5  A    between atoms: C_9  and  C_10
REMARK    6  A    between atoms: C_9  and  C_12
REMARK    7  A    between atoms: C_10  and  O_11
REMARK    8  A    between atoms: C_16  and  C_17
REMARK    9  A    between atoms: C_17  and  C_18
REMARK                            x       y       z     vdW  Elec       q    Type
REMARK                         _______ _______ _______ _____ _____    ______ ____
ROOT
ATOM      1  C   UNL     1      48.494   8.059  13.421  0.00  0.00    +0.000 C 
ENDROOT
BRANCH   1   2
ATOM      2  C   UNL     1      48.718   7.891  14.922  0.00  0.00    +0.000 A 
ATOM      3  C   UNL     1      48.363   8.926  15.797  0.00  0.00    +0.000 A 
ATOM      4  C   UNL     1      48.361   8.718  17.176  0.00  0.00    +0.000 A 
ATOM      5  C   UNL     1      48.709   7.472  17.699  0.00  0.00    +0.000 A 
ATOM      6  C   UNL     1      49.110   6.435  16.850  0.00  0.00    +0.000 A 
ATOM      7  C   UNL     1      49.136   6.664  15.466  0.00  0.00    +0.000 A 
BRANCH   6   8
ATOM      8  C   UNL     1      49.473   5.079  17.408  0.00  0.00    +0.000 C 
BRANCH   8   9
ATOM      9  C   UNL     1      48.276   4.427  18.091  0.00  0.00    +0.000 C 
ATOM     10  C   UNL     1      48.310   2.885  18.086  0.00  0.00    +0.000 C 
ATOM     11  N   UNL     1      46.897   2.858  17.680  0.00  0.00    +0.000 NA
ATOM     12  C   UNL     1      46.965   4.275  17.290  0.00  0.00    +0.000 C 
ATOM     13  H   UNL     1      46.254   2.674  18.450  0.00  0.00    +0.000 HD
ENDBRANCH   8   9
ENDBRANCH   6   8
ENDBRANCH   1   2
BRANCH   1  14
ATOM     14  C   UNL     1      46.966   8.070  13.171  0.00  0.00    +0.000 C 
BRANCH  14  15
ATOM     15  N   UNL     1      46.294   6.851  13.608  0.00  0.00    +0.000 N 
ATOM     16  H   UNL     1      45.611   7.028  14.345  0.00  0.00    +0.000 HD
BRANCH  15  20
ATOM     17  C   UNL     1      45.085   3.876  10.878  0.00  0.00    +0.000 A 
ATOM     18  C   UNL     1      45.283   5.180  10.424  0.00  0.00    +0.000 A 
ATOM     19  C   UNL     1      45.645   6.190  11.324  0.00  0.00    +0.000 A 
ATOM     20  C   UNL     1      45.817   5.919  12.686  0.00  0.00    +0.000 A 
ATOM     21  C   UNL     1      45.633   4.598  13.118  0.00  0.00    +0.000 A 
ATOM     22  C   UNL     1      45.257   3.585  12.229  0.00  0.00    +0.000 A 
BRANCH  17  24
ATOM     23  N   UNL     1      44.446   1.999   9.206  0.00  0.00    +0.000 NA
ATOM     24  C   UNL     1      44.724   2.842   9.953  0.00  0.00    +0.000 C 
ENDBRANCH  17  24
ENDBRANCH  15  20
ENDBRANCH  14  15
ENDBRANCH   1  14
BRANCH   1  25
ATOM     25  C   UNL     1      49.207   7.016  12.546  0.00  0.00    +0.000 C 
BRANCH  25  26
ATOM     26  O   UNL     1      50.518   7.441  12.178  0.00  0.00    +0.000 OA
ATOM     27  H   UNL     1      50.550   7.471  11.207  0.00  0.00    +0.000 HD
ENDBRANCH  25  26
ENDBRANCH   1  25
TORSDOF 9
ENDMDL
