MODEL 1
REMARK VINA RESULT:    -8.532      0.000      0.000
REMARK INTER + INTRA:         -12.803
REMARK INTER:                 -11.525
REMARK INTRA:                  -1.278
REMARK UNBOUND:                -1.278
REMARK  Name = 
REMARK  9 active torsions:
REMARK  status: ('A' for Active; 'I' for Inactive)
REMARK    1  A    between atoms: C_1  and  C_2
REMARK    2  A    between atoms: C_4  and  C_5
REMARK    3  A    between atoms: C_9  and  C_10
REMARK    4  A    between atoms: C_10  and  C_11
REMARK    5  A    between atoms: C_10  and  C_12
REMARK    6  A    between atoms: C_10  and  C_13
REMARK    7  A    between atoms: C_13  and  N_14
REMARK    8  A    between atoms: N_14  and  C_15
REMARK    9  A    between atoms: C_18  and  C_19
REMARK                            x       y       z     vdW  Elec       q    Type
REMARK                         _______ _______ _______ _____ _____    ______ ____
ROOT
ATOM      1  C   UNL     1      43.597   4.875  11.831  0.00  0.00    +0.000 C 
ATOM      2  C   UNL     1      43.494   3.632  12.752  0.00  0.00    +0.000 C 
ATOM      3  C   UNL     1      42.456   5.861  12.163  0.00  0.00    +0.000 C 
ENDROOT
BRANCH   1   8
ATOM      4  C   UNL     1      46.920   5.788  13.598  0.00  0.00    +0.000 A 
ATOM      5  C   UNL     1      47.577   6.494  12.580  0.00  0.00    +0.000 A 
ATOM      6  C   UNL     1      46.944   6.772  11.371  0.00  0.00    +0.000 A 
ATOM      7  C   UNL     1      45.653   6.304  11.131  0.00  0.00    +0.000 A 
ATOM      8  C   UNL     1      44.963   5.556  12.096  0.00  0.00    +0.000 A 
ATOM      9  C   UNL     1      45.601   5.366  13.338  0.00  0.00    +0.000 A 
BRANCH   4  13
ATOM     10  C   UNL     1      47.473   2.847  17.635  0.00  0.00    +0.000 C 
ATOM     11  C   UNL     1      47.869   4.042  16.822  0.00  0.00    +0.000 A 
ATOM     12  C   UNL     1      47.227   4.325  15.620  0.00  0.00    +0.000 A 
ATOM     13  C   UNL     1      47.588   5.463  14.875  0.00  0.00    +0.000 A 
ATOM     14  C   UNL     1      48.616   6.256  15.397  0.00  0.00    +0.000 A 
ATOM     15  C   UNL     1      49.213   5.897  16.592  0.00  0.00    +0.000 A 
ATOM     16  N   UNL     1      48.860   4.815  17.315  0.00  0.00    +0.000 NA
ENDBRANCH   4  13
ENDBRANCH   1   8
BRANCH   1  17
ATOM     17  C   UNL     1      43.471   4.393  10.355  0.00  0.00    +0.000 C 
BRANCH  17  18
ATOM     18  N   UNL     1      43.997   3.041  10.119  0.00  0.00    +0.000 N 
ATOM     19  H   UNL     1      43.269   2.332  10.091  0.00  0.00    +0.000 HD
BRANCH  18  20
ATOM     20  C   UNL     1      44.887   2.888   9.046  0.00  0.00    +0.000 A 
ATOM     21  C   UNL     1      45.281   3.949   8.225  0.00  0.00    +0.000 A 
ATOM     22  C   UNL     1      46.231   3.758   7.224  0.00  0.00    +0.000 A 
ATOM     23  C   UNL     1      46.794   2.501   7.086  0.00  0.00    +0.000 A 
ATOM     24  N   UNL     1      46.474   1.436   7.871  0.00  0.00    +0.000 NA
ATOM     25  C   UNL     1      45.547   1.671   8.832  0.00  0.00    +0.000 A 
BRANCH  23  26
ATOM     26  C   UNL     1      47.837   2.281   6.039  0.00  0.00    +0.000 C 
ATOM     27  N   UNL     1      47.778   3.125   4.963  0.00  0.00    +0.000 N 
ATOM     28  O   UNL     1      48.687   1.405   6.125  0.00  0.00    +0.000 OA
ATOM     29  H   UNL     1      47.038   3.819   4.916  0.00  0.00    +0.000 HD
ATOM     30  H   UNL     1      48.428   3.007   4.204  0.00  0.00    +0.000 HD
ENDBRANCH  23  26
ENDBRANCH  18  20
ENDBRANCH  17  18
ENDBRANCH   1  17
TORSDOF 6
ENDMDL
MODEL 2
REMARK VINA RESULT:    -7.986      2.506      3.999
REMARK INTER + INTRA:         -12.065
REMARK INTER:                 -10.833
REMARK INTRA:                  -1.232
REMARK UNBOUND:                -1.278
REMARK  Name = 
REMARK  9 active torsions:
REMARK  status: ('A' for Active; 'I' for Inactive)
REMARK    1  A    between atoms: C_1  and  C_2
REMARK    2  A    between atoms: C_4  and  C_5
REMARK    3  A    between atoms: C_9  and  C_10
REMARK    4  A    between atoms: C_10  and  C_11
REMARK    5  A    between atoms: C_10  and  C_12
REMARK    6  A    between atoms: C_10  and  C_13
REMARK    7  A    between atoms: C_13  and  N_14
REMARK    8  A    between atoms: N_14  and  C_15
REMARK    9  A    between atoms: C_18  and  C_19
REMARK                            x       y       z     vdW  Elec       q    Type
REMARK                         _______ _______ _______ _____ _____    ______ ____
ROOT
ATOM      1  C   UNL     1      43.564   5.028  12.223  0.00  0.00    +0.000 C 
ATOM      2  C   UNL     1      42.925   4.483  13.526  0.00  0.00    +0.000 C 
ATOM      3  C   UNL     1      42.828   6.312  11.783  0.00  0.00    +0.000 C 
ENDROOT
BRANCH   1   8
ATOM      4  C   UNL     1      46.853   7.056  12.496  0.00  0.00    +0.000 A 
ATOM      5  C   UNL     1      47.639   6.185  13.264  0.00  0.00    +0.000 A 
ATOM      6  C   UNL     1      47.178   4.918  13.616  0.00  0.00    +0.000 A 
ATOM      7  C   UNL     1      45.895   4.511  13.251  0.00  0.00    +0.000 A 
ATOM      8  C   UNL     1      45.048   5.357  12.519  0.00  0.00    +0.000 A 
ATOM      9  C   UNL     1      45.578   6.597  12.109  0.00  0.00    +0.000 A 
BRANCH   4  13
ATOM     10  C   UNL     1      50.506  10.216  11.110  0.00  0.00    +0.000 C 
ATOM     11  C   UNL     1      49.075   9.942  11.457  0.00  0.00    +0.000 A 
ATOM     12  C   UNL     1      48.659   8.655  11.788  0.00  0.00    +0.000 A 
ATOM     13  C   UNL     1      47.318   8.412  12.138  0.00  0.00    +0.000 A 
ATOM     14  C   UNL     1      46.452   9.510  12.113  0.00  0.00    +0.000 A 
ATOM     15  C   UNL     1      46.942  10.755  11.760  0.00  0.00    +0.000 A 
ATOM     16  N   UNL     1      48.229  10.994  11.438  0.00  0.00    +0.000 NA
ENDBRANCH   4  13
ENDBRANCH   1   8
BRANCH   1  17
ATOM     17  C   UNL     1      43.426   3.933  11.123  0.00  0.00    +0.000 C 
BRANCH  17  18
ATOM     18  N   UNL     1      43.704   4.412   9.762  0.00  0.00    +0.000 N 
ATOM     19  H   UNL     1      43.795   5.423   9.709  0.00  0.00    +0.000 HD
BRANCH  18  20
ATOM     20  C   UNL     1      44.747   3.778   9.070  0.00  0.00    +0.000 A 
ATOM     21  C   UNL     1      45.015   2.410   9.181  0.00  0.00    +0.000 A 
ATOM     22  C   UNL     1      46.011   1.817   8.409  0.00  0.00    +0.000 A 
ATOM     23  C   UNL     1      46.705   2.610   7.512  0.00  0.00    +0.000 A 
ATOM     24  N   UNL     1      46.473   3.940   7.337  0.00  0.00    +0.000 NA
ATOM     25  C   UNL     1      45.493   4.472   8.108  0.00  0.00    +0.000 A 
BRANCH  23  26
ATOM     26  C   UNL     1      47.757   1.988   6.652  0.00  0.00    +0.000 C 
ATOM     27  N   UNL     1      48.827   2.790   6.359  0.00  0.00    +0.000 N 
ATOM     28  O   UNL     1      47.675   0.842   6.229  0.00  0.00    +0.000 OA
ATOM     29  H   UNL     1      48.842   3.744   6.704  0.00  0.00    +0.000 HD
ATOM     30  H   UNL     1      49.553   2.445   5.753  0.00  0.00    +0.000 HD
ENDBRANCH  23  26
ENDBRANCH  18  20
ENDBRANCH  17  18
ENDBRANCH   1  17
TORSDOF 6
ENDMDL
MODEL 3
REMARK VINA RESULT:    -7.259      3.032      8.045
REMARK INTER + INTRA:         -11.083
REMARK INTER:                  -9.526
REMARK INTRA:                  -1.557
REMARK UNBOUND:                -1.278
REMARK  Name = 
REMARK  9 active torsions:
REMARK  status: ('A' for Active; 'I' for Inactive)
REMARK    1  A    between atoms: C_1  and  C_2
REMARK    2  A    between atoms: C_4  and  C_5
REMARK    3  A    between atoms: C_9  and  C_10
REMARK    4  A    between atoms: C_10  and  C_11
REMARK    5  A    between atoms: C_10  and  C_12
REMARK    6  A    between atoms: C_10  and  C_13
REMARK    7  A    between atoms: C_13  and  N_14
REMARK    8  A    between atoms: N_14  and  C_15
REMARK    9  A    between atoms: C_18  and  C_19
REMARK                            x       y       z     vdW  Elec       q    Type
REMARK                         _______ _______ _______ _____ _____    ______ ____
ROOT
ATOM      1  C   UNL     1      49.562   8.446  12.373  0.00  0.00    +0.000 C 
ATOM      2  C   UNL     1      50.258   7.752  11.174  0.00  0.00    +0.000 C 
ATOM      3  C   UNL     1      49.950   9.940  12.403  0.00  0.00    +0.000 C 
ENDROOT
BRANCH   1   8
ATOM      4  C   UNL     1      46.117   6.829  11.653  0.00  0.00    +0.000 A 
ATOM      5  C   UNL     1      45.252   7.850  12.070  0.00  0.00    +0.000 A 
ATOM      6  C   UNL     1      45.742   9.086  12.485  0.00  0.00    +0.000 A 
ATOM      7  C   UNL     1      47.117   9.312  12.543  0.00  0.00    +0.000 A 
ATOM      8  C   UNL     1      48.031   8.312  12.180  0.00  0.00    +0.000 A 
ATOM      9  C   UNL     1      47.498   7.105  11.685  0.00  0.00    +0.000 A 
BRANCH   4  13
ATOM     10  C   UNL     1      44.818   3.564   8.060  0.00  0.00    +0.000 C 
ATOM     11  C   UNL     1      44.994   3.918   9.505  0.00  0.00    +0.000 A 
ATOM     12  C   UNL     1      45.475   5.171   9.874  0.00  0.00    +0.000 A 
ATOM     13  C   UNL     1      45.613   5.504  11.235  0.00  0.00    +0.000 A 
ATOM     14  C   UNL     1      45.264   4.517  12.163  0.00  0.00    +0.000 A 
ATOM     15  C   UNL     1      44.807   3.291  11.713  0.00  0.00    +0.000 A 
ATOM     16  N   UNL     1      44.661   2.974  10.410  0.00  0.00    +0.000 NA
ENDBRANCH   4  13
ENDBRANCH   1   8
BRANCH   1  17
ATOM     17  C   UNL     1      50.041   7.746  13.680  0.00  0.00    +0.000 C 
BRANCH  17  18
ATOM     18  N   UNL     1      49.206   8.035  14.855  0.00  0.00    +0.000 N 
ATOM     19  H   UNL     1      48.465   8.703  14.660  0.00  0.00    +0.000 HD
BRANCH  18  20
ATOM     20  C   UNL     1      48.712   6.931  15.565  0.00  0.00    +0.000 A 
ATOM     21  C   UNL     1      47.932   5.931  14.974  0.00  0.00    +0.000 A 
ATOM     22  C   UNL     1      47.535   4.815  15.706  0.00  0.00    +0.000 A 
ATOM     23  C   UNL     1      47.958   4.708  17.019  0.00  0.00    +0.000 A 
ATOM     24  N   UNL     1      48.741   5.632  17.643  0.00  0.00    +0.000 NA
ATOM     25  C   UNL     1      49.103   6.699  16.890  0.00  0.00    +0.000 A 
BRANCH  23  26
ATOM     26  C   UNL     1      47.569   3.504  17.814  0.00  0.00    +0.000 C 
ATOM     27  N   UNL     1      48.309   3.279  18.943  0.00  0.00    +0.000 N 
ATOM     28  O   UNL     1      46.655   2.758  17.483  0.00  0.00    +0.000 OA
ATOM     29  H   UNL     1      49.078   3.904  19.165  0.00  0.00    +0.000 HD
ATOM     30  H   UNL     1      48.124   2.464  19.504  0.00  0.00    +0.000 HD
ENDBRANCH  23  26
ENDBRANCH  18  20
ENDBRANCH  17  18
ENDBRANCH   1  17
TORSDOF 6
ENDMDL
MODEL 4
REMARK VINA RESULT:    -7.154      1.739      2.298
REMARK INTER + INTRA:         -10.941
REMARK INTER:                  -9.998
REMARK INTRA:                  -0.943
REMARK UNBOUND:                -1.278
REMARK  Name = 
REMARK  9 active torsions:
REMARK  status: ('A' for Active; 'I' for Inactive)
REMARK    1  A    between atoms: C_1  and  C_2
REMARK    2  A    between atoms: C_4  and  C_5
REMARK    3  A    between atoms: C_9  and  C_10
REMARK    4  A    between atoms: C_10  and  C_11
REMARK    5  A    between atoms: C_10  and  C_12
REMARK    6  A    between atoms: C_10  and  C_13
REMARK    7  A    between atoms: C_13  and  N_14
REMARK    8  A    between atoms: N_14  and  C_15
REMARK    9  A    between atoms: C_18  and  C_19
REMARK                            x       y       z     vdW  Elec       q    Type
REMARK                         _______ _______ _______ _____ _____    ______ ____
ROOT
ATOM      1  C   UNL     1      43.798   5.036  12.186  0.00  0.00    +0.000 C 
ATOM      2  C   UNL     1      43.415   4.626  13.631  0.00  0.00    +0.000 C 
ATOM      3  C   UNL     1      42.518   5.222  11.344  0.00  0.00    +0.000 C 
ENDROOT
BRANCH   1   8
ATOM      4  C   UNL     1      46.666   7.547  12.874  0.00  0.00    +0.000 A 
ATOM      5  C   UNL     1      46.196   8.680  12.195  0.00  0.00    +0.000 A 
ATOM      6  C   UNL     1      44.935   8.694  11.603  0.00  0.00    +0.000 A 
ATOM      7  C   UNL     1      44.133   7.554  11.631  0.00  0.00    +0.000 A 
ATOM      8  C   UNL     1      44.570   6.377  12.258  0.00  0.00    +0.000 A 
ATOM      9  C   UNL     1      45.814   6.426  12.919  0.00  0.00    +0.000 A 
BRANCH   4  13
ATOM     10  C   UNL     1      49.737   6.290  16.648  0.00  0.00    +0.000 C 
ATOM     11  C   UNL     1      49.503   6.895  15.298  0.00  0.00    +0.000 A 
ATOM     12  C   UNL     1      48.227   6.915  14.742  0.00  0.00    +0.000 A 
ATOM     13  C   UNL     1      48.012   7.508  13.484  0.00  0.00    +0.000 A 
ATOM     14  C   UNL     1      49.133   8.041  12.839  0.00  0.00    +0.000 A 
ATOM     15  C   UNL     1      50.371   7.968  13.454  0.00  0.00    +0.000 A 
ATOM     16  N   UNL     1      50.577   7.413  14.666  0.00  0.00    +0.000 NA
ENDBRANCH   4  13
ENDBRANCH   1   8
BRANCH   1  17
ATOM     17  C   UNL     1      44.674   3.900  11.579  0.00  0.00    +0.000 C 
BRANCH  17  18
ATOM     18  N   UNL     1      44.130   3.319  10.343  0.00  0.00    +0.000 N 
ATOM     19  H   UNL     1      43.326   3.828   9.986  0.00  0.00    +0.000 HD
BRANCH  18  20
ATOM     20  C   UNL     1      45.046   3.045   9.317  0.00  0.00    +0.000 A 
ATOM     21  C   UNL     1      45.441   1.749   8.973  0.00  0.00    +0.000 A 
ATOM     22  C   UNL     1      46.291   1.529   7.892  0.00  0.00    +0.000 A 
ATOM     23  C   UNL     1      46.708   2.622   7.153  0.00  0.00    +0.000 A 
ATOM     24  N   UNL     1      46.337   3.905   7.419  0.00  0.00    +0.000 NA
ATOM     25  C   UNL     1      45.508   4.069   8.479  0.00  0.00    +0.000 A 
BRANCH  23  26
ATOM     26  C   UNL     1      47.596   2.407   5.971  0.00  0.00    +0.000 C 
ATOM     27  N   UNL     1      47.476   3.331   4.968  0.00  0.00    +0.000 N 
ATOM     28  O   UNL     1      48.378   1.468   5.891  0.00  0.00    +0.000 OA
ATOM     29  H   UNL     1      46.794   4.077   5.060  0.00  0.00    +0.000 HD
ATOM     30  H   UNL     1      48.019   3.223   4.127  0.00  0.00    +0.000 HD
ENDBRANCH  23  26
ENDBRANCH  18  20
ENDBRANCH  17  18
ENDBRANCH   1  17
TORSDOF 6
ENDMDL
MODEL 5
REMARK VINA RESULT:    -7.137      2.996      5.476
REMARK INTER + INTRA:         -10.918
REMARK INTER:                  -9.784
REMARK INTRA:                  -1.134
REMARK UNBOUND:                -1.278
REMARK  Name = 
REMARK  9 active torsions:
REMARK  status: ('A' for Active; 'I' for Inactive)
REMARK    1  A    between atoms: C_1  and  C_2
REMARK    2  A    between atoms: C_4  and  C_5
REMARK    3  A    between atoms: C_9  and  C_10
REMARK    4  A    between atoms: C_10  and  C_11
REMARK    5  A    between atoms: C_10  and  C_12
REMARK    6  A    between atoms: C_10  and  C_13
REMARK    7  A    between atoms: C_13  and  N_14
REMARK    8  A    between atoms: N_14  and  C_15
REMARK    9  A    between atoms: C_18  and  C_19
REMARK                            x       y       z     vdW  Elec       q    Type
REMARK                         _______ _______ _______ _____ _____    ______ ____
ROOT
ATOM      1  C   UNL     1      44.587   5.004  12.775  0.00  0.00    +0.000 C 
ATOM      2  C   UNL     1      45.228   4.678  14.148  0.00  0.00    +0.000 C 
ATOM      3  C   UNL     1      43.052   5.082  12.925  0.00  0.00    +0.000 C 
ENDROOT
BRANCH   1   8
ATOM      4  C   UNL     1      44.631   8.588  11.309  0.00  0.00    +0.000 A 
ATOM      5  C   UNL     1      45.920   9.007  11.670  0.00  0.00    +0.000 A 
ATOM      6  C   UNL     1      46.815   8.135  12.286  0.00  0.00    +0.000 A 
ATOM      7  C   UNL     1      46.423   6.836  12.604  0.00  0.00    +0.000 A 
ATOM      8  C   UNL     1      45.132   6.376  12.306  0.00  0.00    +0.000 A 
ATOM      9  C   UNL     1      44.282   7.257  11.608  0.00  0.00    +0.000 A 
BRANCH   4  13
ATOM     10  C   UNL     1      39.957  10.361  10.800  0.00  0.00    +0.000 C 
ATOM     11  C   UNL     1      41.410  10.378  10.436  0.00  0.00    +0.000 A 
ATOM     12  C   UNL     1      42.304   9.504  11.046  0.00  0.00    +0.000 A 
ATOM     13  C   UNL     1      43.663   9.509  10.679  0.00  0.00    +0.000 A 
ATOM     14  C   UNL     1      44.047  10.437   9.705  0.00  0.00    +0.000 A 
ATOM     15  C   UNL     1      43.098  11.282   9.157  0.00  0.00    +0.000 A 
ATOM     16  N   UNL     1      41.793  11.269   9.497  0.00  0.00    +0.000 NA
ENDBRANCH   4  13
ENDBRANCH   1   8
BRANCH   1  17
ATOM     17  C   UNL     1      44.967   3.864  11.783  0.00  0.00    +0.000 C 
BRANCH  17  18
ATOM     18  N   UNL     1      44.291   3.953  10.481  0.00  0.00    +0.000 N 
ATOM     19  H   UNL     1      43.816   4.841  10.340  0.00  0.00    +0.000 HD
BRANCH  18  20
ATOM     20  C   UNL     1      45.046   3.604   9.352  0.00  0.00    +0.000 A 
ATOM     21  C   UNL     1      45.681   4.548   8.538  0.00  0.00    +0.000 A 
ATOM     22  C   UNL     1      46.487   4.142   7.476  0.00  0.00    +0.000 A 
ATOM     23  C   UNL     1      46.664   2.786   7.269  0.00  0.00    +0.000 A 
ATOM     24  N   UNL     1      46.097   1.818   8.042  0.00  0.00    +0.000 NA
ATOM     25  C   UNL     1      45.324   2.261   9.064  0.00  0.00    +0.000 A 
BRANCH  23  26
ATOM     26  C   UNL     1      47.548   2.329   6.154  0.00  0.00    +0.000 C 
ATOM     27  N   UNL     1      47.405   3.007   4.974  0.00  0.00    +0.000 N 
ATOM     28  O   UNL     1      48.346   1.407   6.276  0.00  0.00    +0.000 OA
ATOM     29  H   UNL     1      46.711   3.744   4.906  0.00  0.00    +0.000 HD
ATOM     30  H   UNL     1      47.944   2.725   4.172  0.00  0.00    +0.000 HD
ENDBRANCH  23  26
ENDBRANCH  18  20
ENDBRANCH  17  18
ENDBRANCH   1  17
TORSDOF 6
ENDMDL
MODEL 6
REMARK VINA RESULT:    -7.036      3.151      4.156
REMARK INTER + INTRA:         -10.781
REMARK INTER:                  -9.923
REMARK INTRA:                  -0.858
REMARK UNBOUND:                -1.278
REMARK  Name = 
REMARK  9 active torsions:
REMARK  status: ('A' for Active; 'I' for Inactive)
REMARK    1  A    between atoms: C_1  and  C_2
REMARK    2  A    between atoms: C_4  and  C_5
REMARK    3  A    between atoms: C_9  and  C_10
REMARK    4  A    between atoms: C_10  and  C_11
REMARK    5  A    between atoms: C_10  and  C_12
REMARK    6  A    between atoms: C_10  and  C_13
REMARK    7  A    between atoms: C_13  and  N_14
REMARK    8  A    between atoms: N_14  and  C_15
REMARK    9  A    between atoms: C_18  and  C_19
REMARK                            x       y       z     vdW  Elec       q    Type
REMARK                         _______ _______ _______ _____ _____    ______ ____
ROOT
ATOM      1  C   UNL     1      44.491   6.745  11.726  0.00  0.00    +0.000 C 
ATOM      2  C   UNL     1      44.615   6.071  13.117  0.00  0.00    +0.000 C 
ATOM      3  C   UNL     1      43.004   6.831  11.323  0.00  0.00    +0.000 C 
ENDROOT
BRANCH   1   8
ATOM      4  C   UNL     1      47.107   9.577  12.104  0.00  0.00    +0.000 A 
ATOM      5  C   UNL     1      46.337  10.697  11.762  0.00  0.00    +0.000 A 
ATOM      6  C   UNL     1      44.972  10.584  11.508  0.00  0.00    +0.000 A 
ATOM      7  C   UNL     1      44.354   9.334  11.539  0.00  0.00    +0.000 A 
ATOM      8  C   UNL     1      45.083   8.173  11.832  0.00  0.00    +0.000 A 
ATOM      9  C   UNL     1      46.443   8.336  12.167  0.00  0.00    +0.000 A 
BRANCH   4  13
ATOM     10  C   UNL     1      51.843   8.316  10.991  0.00  0.00    +0.000 C 
ATOM     11  C   UNL     1      50.851   9.083  11.811  0.00  0.00    +0.000 A 
ATOM     12  C   UNL     1      49.487   8.974  11.558  0.00  0.00    +0.000 A 
ATOM     13  C   UNL     1      48.561   9.678  12.350  0.00  0.00    +0.000 A 
ATOM     14  C   UNL     1      49.086  10.485  13.365  0.00  0.00    +0.000 A 
ATOM     15  C   UNL     1      50.457  10.549  13.543  0.00  0.00    +0.000 A 
ATOM     16  N   UNL     1      51.346   9.864  12.794  0.00  0.00    +0.000 NA
ENDBRANCH   4  13
ENDBRANCH   1   8
BRANCH   1  17
ATOM     17  C   UNL     1      45.272   5.874  10.697  0.00  0.00    +0.000 C 
BRANCH  17  18
ATOM     18  N   UNL     1      44.412   5.050   9.836  0.00  0.00    +0.000 N 
ATOM     19  H   UNL     1      43.792   5.603   9.250  0.00  0.00    +0.000 HD
BRANCH  18  20
ATOM     20  C   UNL     1      45.045   4.046   9.088  0.00  0.00    +0.000 A 
ATOM     21  C   UNL     1      45.876   4.317   7.996  0.00  0.00    +0.000 A 
ATOM     22  C   UNL     1      46.544   3.286   7.339  0.00  0.00    +0.000 A 
ATOM     23  C   UNL     1      46.386   1.996   7.814  0.00  0.00    +0.000 A 
ATOM     24  N   UNL     1      45.615   1.670   8.888  0.00  0.00    +0.000 NA
ATOM     25  C   UNL     1      44.987   2.707   9.495  0.00  0.00    +0.000 A 
BRANCH  23  26
ATOM     26  C   UNL     1      47.117   0.879   7.143  0.00  0.00    +0.000 C 
ATOM     27  N   UNL     1      46.807  -0.378   7.587  0.00  0.00    +0.000 N 
ATOM     28  O   UNL     1      47.944   1.064   6.259  0.00  0.00    +0.000 OA
ATOM     29  H   UNL     1      46.139  -0.487   8.343  0.00  0.00    +0.000 HD
ATOM     30  H   UNL     1      47.291  -1.173   7.203  0.00  0.00    +0.000 HD
ENDBRANCH  23  26
ENDBRANCH  18  20
ENDBRANCH  17  18
ENDBRANCH   1  17
TORSDOF 6
ENDMDL
MODEL 7
REMARK VINA RESULT:    -6.545      2.391      3.044
REMARK INTER + INTRA:         -10.118
REMARK INTER:                  -9.301
REMARK INTRA:                  -0.817
REMARK UNBOUND:                -1.278
REMARK  Name = 
REMARK  9 active torsions:
REMARK  status: ('A' for Active; 'I' for Inactive)
REMARK    1  A    between atoms: C_1  and  C_2
REMARK    2  A    between atoms: C_4  and  C_5
REMARK    3  A    between atoms: C_9  and  C_10
REMARK    4  A    between atoms: C_10  and  C_11
REMARK    5  A    between atoms: C_10  and  C_12
REMARK    6  A    between atoms: C_10  and  C_13
REMARK    7  A    between atoms: C_13  and  N_14
REMARK    8  A    between atoms: N_14  and  C_15
REMARK    9  A    between atoms: C_18  and  C_19
REMARK                            x       y       z     vdW  Elec       q    Type
REMARK                         _______ _______ _______ _____ _____    ______ ____
ROOT
ATOM      1  C   UNL     1      44.655   6.948  11.727  0.00  0.00    +0.000 C 
ATOM      2  C   UNL     1      44.286   6.060  12.944  0.00  0.00    +0.000 C 
ATOM      3  C   UNL     1      43.369   7.533  11.104  0.00  0.00    +0.000 C 
ENDROOT
BRANCH   1   8
ATOM      4  C   UNL     1      47.450   8.790  13.677  0.00  0.00    +0.000 A 
ATOM      5  C   UNL     1      47.447  10.035  13.032  0.00  0.00    +0.000 A 
ATOM      6  C   UNL     1      46.505  10.337  12.052  0.00  0.00    +0.000 A 
ATOM      7  C   UNL     1      45.573   9.379  11.654  0.00  0.00    +0.000 A 
ATOM      8  C   UNL     1      45.556   8.102  12.234  0.00  0.00    +0.000 A 
ATOM      9  C   UNL     1      46.468   7.860  13.281  0.00  0.00    +0.000 A 
BRANCH   4  13
ATOM     10  C   UNL     1      49.706   9.665  18.081  0.00  0.00    +0.000 C 
ATOM     11  C   UNL     1      49.546   8.855  16.831  0.00  0.00    +0.000 A 
ATOM     12  C   UNL     1      48.585   9.197  15.883  0.00  0.00    +0.000 A 
ATOM     13  C   UNL     1      48.459   8.446  14.700  0.00  0.00    +0.000 A 
ATOM     14  C   UNL     1      49.323   7.355  14.552  0.00  0.00    +0.000 A 
ATOM     15  C   UNL     1      50.241   7.074  15.548  0.00  0.00    +0.000 A 
ATOM     16  N   UNL     1      50.374   7.801  16.676  0.00  0.00    +0.000 NA
ENDBRANCH   4  13
ENDBRANCH   1   8
BRANCH   1  17
ATOM     17  C   UNL     1      45.394   6.056  10.686  0.00  0.00    +0.000 C 
BRANCH  17  18
ATOM     18  N   UNL     1      44.500   5.215   9.876  0.00  0.00    +0.000 N 
ATOM     19  H   UNL     1      43.859   5.756   9.302  0.00  0.00    +0.000 HD
BRANCH  18  20
ATOM     20  C   UNL     1      45.102   4.193   9.128  0.00  0.00    +0.000 A 
ATOM     21  C   UNL     1      45.972   4.439   8.061  0.00  0.00    +0.000 A 
ATOM     22  C   UNL     1      46.606   3.388   7.404  0.00  0.00    +0.000 A 
ATOM     23  C   UNL     1      46.374   2.100   7.853  0.00  0.00    +0.000 A 
ATOM     24  N   UNL     1      45.561   1.795   8.902  0.00  0.00    +0.000 NA
ATOM     25  C   UNL     1      44.969   2.852   9.512  0.00  0.00    +0.000 A 
BRANCH  23  26
ATOM     26  C   UNL     1      47.067   0.958   7.182  0.00  0.00    +0.000 C 
ATOM     27  N   UNL     1      46.751  -0.285   7.658  0.00  0.00    +0.000 N 
ATOM     28  O   UNL     1      47.870   1.114   6.270  0.00  0.00    +0.000 OA
ATOM     29  H   UNL     1      46.103  -0.369   8.435  0.00  0.00    +0.000 HD
ATOM     30  H   UNL     1      47.210  -1.095   7.275  0.00  0.00    +0.000 HD
ENDBRANCH  23  26
ENDBRANCH  18  20
ENDBRANCH  17  18
ENDBRANCH   1  17
TORSDOF 6
ENDMDL
MODEL 8
REMARK VINA RESULT:    -6.285      3.271      6.190
REMARK INTER + INTRA:          -9.767
REMARK INTER:                  -8.923
REMARK INTRA:                  -0.844
REMARK UNBOUND:                -1.278
REMARK  Name = 
REMARK  9 active torsions:
REMARK  status: ('A' for Active; 'I' for Inactive)
REMARK    1  A    between atoms: C_1  and  C_2
REMARK    2  A    between atoms: C_4  and  C_5
REMARK    3  A    between atoms: C_9  and  C_10
REMARK    4  A    between atoms: C_10  and  C_11
REMARK    5  A    between atoms: C_10  and  C_12
REMARK    6  A    between atoms: C_10  and  C_13
REMARK    7  A    between atoms: C_13  and  N_14
REMARK    8  A    between atoms: N_14  and  C_15
REMARK    9  A    between atoms: C_18  and  C_19
REMARK                            x       y       z     vdW  Elec       q    Type
REMARK                         _______ _______ _______ _____ _____    ______ ____
ROOT
ATOM      1  C   UNL     1      49.039   7.490  15.344  0.00  0.00    +0.000 C 
ATOM      2  C   UNL     1      48.248   8.799  15.599  0.00  0.00    +0.000 C 
ATOM      3  C   UNL     1      50.454   7.833  14.827  0.00  0.00    +0.000 C 
ENDROOT
BRANCH   1   8
ATOM      4  C   UNL     1      50.162   4.847  17.942  0.00  0.00    +0.000 A 
ATOM      5  C   UNL     1      49.666   5.411  19.126  0.00  0.00    +0.000 A 
ATOM      6  C   UNL     1      48.894   6.570  19.105  0.00  0.00    +0.000 A 
ATOM      7  C   UNL     1      48.642   7.223  17.899  0.00  0.00    +0.000 A 
ATOM      8  C   UNL     1      49.149   6.729  16.688  0.00  0.00    +0.000 A 
ATOM      9  C   UNL     1      49.854   5.509  16.738  0.00  0.00    +0.000 A 
BRANCH   4  13
ATOM     10  C   UNL     1      54.419   2.472  19.162  0.00  0.00    +0.000 C 
ATOM     11  C   UNL     1      53.053   2.476  18.548  0.00  0.00    +0.000 A 
ATOM     12  C   UNL     1      52.276   3.631  18.554  0.00  0.00    +0.000 A 
ATOM     13  C   UNL     1      51.004   3.632  17.952  0.00  0.00    +0.000 A 
ATOM     14  C   UNL     1      50.576   2.429  17.382  0.00  0.00    +0.000 A 
ATOM     15  C   UNL     1      51.404   1.321  17.431  0.00  0.00    +0.000 A 
ATOM     16  N   UNL     1      52.629   1.320  17.995  0.00  0.00    +0.000 NA
ENDBRANCH   4  13
ENDBRANCH   1   8
BRANCH   1  17
ATOM     17  C   UNL     1      48.268   6.661  14.274  0.00  0.00    +0.000 C 
BRANCH  17  18
ATOM     18  N   UNL     1      47.078   7.336  13.736  0.00  0.00    +0.000 N 
ATOM     19  H   UNL     1      47.279   8.265  13.374  0.00  0.00    +0.000 HD
BRANCH  18  20
ATOM     20  C   UNL     1      46.292   6.605  12.833  0.00  0.00    +0.000 A 
ATOM     21  C   UNL     1      46.455   6.681  11.446  0.00  0.00    +0.000 A 
ATOM     22  C   UNL     1      45.702   5.872  10.598  0.00  0.00    +0.000 A 
ATOM     23  C   UNL     1      44.814   4.975  11.165  0.00  0.00    +0.000 A 
ATOM     24  N   UNL     1      44.630   4.834  12.507  0.00  0.00    +0.000 NA
ATOM     25  C   UNL     1      45.386   5.640  13.292  0.00  0.00    +0.000 A 
BRANCH  23  26
ATOM     26  C   UNL     1      44.018   4.077  10.275  0.00  0.00    +0.000 C 
ATOM     27  N   UNL     1      44.066   4.377   8.941  0.00  0.00    +0.000 N 
ATOM     28  O   UNL     1      43.360   3.136  10.700  0.00  0.00    +0.000 OA
ATOM     29  H   UNL     1      44.599   5.184   8.632  0.00  0.00    +0.000 HD
ATOM     30  H   UNL     1      43.522   3.835   8.290  0.00  0.00    +0.000 HD
ENDBRANCH  23  26
ENDBRANCH  18  20
ENDBRANCH  17  18
ENDBRANCH   1  17
TORSDOF 6
ENDMDL
MODEL 9
REMARK VINA RESULT:    -6.122      4.029      8.439
REMARK INTER + INTRA:          -9.548
REMARK INTER:                  -7.893
REMARK INTRA:                  -1.655
REMARK UNBOUND:                -1.278
REMARK  Name = 
REMARK  9 active torsions:
REMARK  status: ('A' for Active; 'I' for Inactive)
REMARK    1  A    between atoms: C_1  and  C_2
REMARK    2  A    between atoms: C_4  and  C_5
REMARK    3  A    between atoms: C_9  and  C_10
REMARK    4  A    between atoms: C_10  and  C_11
REMARK    5  A    between atoms: C_10  and  C_12
REMARK    6  A    between atoms: C_10  and  C_13
REMARK    7  A    between atoms: C_13  and  N_14
REMARK    8  A    between atoms: N_14  and  C_15
REMARK    9  A    between atoms: C_18  and  C_19
REMARK                            x       y       z     vdW  Elec       q    Type
REMARK                         _______ _______ _______ _____ _____    ______ ____
ROOT
ATOM      1  C   UNL     1      50.272   9.019  12.362  0.00  0.00    +0.000 C 
ATOM      2  C   UNL     1      50.963   8.425  11.108  0.00  0.00    +0.000 C 
ATOM      3  C   UNL     1      50.601  10.524  12.470  0.00  0.00    +0.000 C 
ENDROOT
BRANCH   1   8
ATOM      4  C   UNL     1      46.818   7.273  12.226  0.00  0.00    +0.000 A 
ATOM      5  C   UNL     1      45.960   8.381  12.208  0.00  0.00    +0.000 A 
ATOM      6  C   UNL     1      46.461   9.679  12.139  0.00  0.00    +0.000 A 
ATOM      7  C   UNL     1      47.837   9.902  12.139  0.00  0.00    +0.000 A 
ATOM      8  C   UNL     1      48.743   8.833  12.199  0.00  0.00    +0.000 A 
ATOM      9  C   UNL     1      48.203   7.531  12.183  0.00  0.00    +0.000 A 
BRANCH   4  13
ATOM     10  C   UNL     1      43.775   3.602  10.639  0.00  0.00    +0.000 C 
ATOM     11  C   UNL     1      44.844   4.110  11.558  0.00  0.00    +0.000 A 
ATOM     12  C   UNL     1      45.317   5.414  11.442  0.00  0.00    +0.000 A 
ATOM     13  C   UNL     1      46.302   5.891  12.326  0.00  0.00    +0.000 A 
ATOM     14  C   UNL     1      46.775   4.991  13.287  0.00  0.00    +0.000 A 
ATOM     15  C   UNL     1      46.262   3.707  13.327  0.00  0.00    +0.000 A 
ATOM     16  N   UNL     1      45.308   3.251  12.490  0.00  0.00    +0.000 NA
ENDBRANCH   4  13
ENDBRANCH   1   8
BRANCH   1  17
ATOM     17  C   UNL     1      50.814   8.266  13.614  0.00  0.00    +0.000 C 
BRANCH  17  18
ATOM     18  N   UNL     1      50.397   8.855  14.894  0.00  0.00    +0.000 N 
ATOM     19  H   UNL     1      49.892   9.730  14.783  0.00  0.00    +0.000 HD
BRANCH  18  20
ATOM     20  C   UNL     1      49.735   8.006  15.793  0.00  0.00    +0.000 A 
ATOM     21  C   UNL     1      49.228   6.754  15.428  0.00  0.00    +0.000 A 
ATOM     22  C   UNL     1      48.651   5.917  16.380  0.00  0.00    +0.000 A 
ATOM     23  C   UNL     1      48.621   6.344  17.696  0.00  0.00    +0.000 A 
ATOM     24  N   UNL     1      49.122   7.537  18.120  0.00  0.00    +0.000 NA
ATOM     25  C   UNL     1      49.675   8.316  17.158  0.00  0.00    +0.000 A 
BRANCH  23  26
ATOM     26  C   UNL     1      48.034   5.448  18.739  0.00  0.00    +0.000 C 
ATOM     27  N   UNL     1      46.674   5.516  18.875  0.00  0.00    +0.000 N 
ATOM     28  O   UNL     1      48.715   4.705  19.434  0.00  0.00    +0.000 OA
ATOM     29  H   UNL     1      46.149   6.168  18.300  0.00  0.00    +0.000 HD
ATOM     30  H   UNL     1      46.218   4.966  19.585  0.00  0.00    +0.000 HD
ENDBRANCH  23  26
ENDBRANCH  18  20
ENDBRANCH  17  18
ENDBRANCH   1  17
TORSDOF 6
ENDMDL
