MODEL 1
REMARK VINA RESULT:    -8.490      0.000      0.000
REMARK INTER + INTRA:         -11.623
REMARK INTER:                 -10.971
REMARK INTRA:                  -0.652
REMARK UNBOUND:                -0.652
REMARK  Name = 
REMARK  7 active torsions:
REMARK  status: ('A' for Active; 'I' for Inactive)
REMARK    1  A    between atoms: C_1  and  O_2
REMARK    2  A    between atoms: O_2  and  C_3
REMARK    3  A    between atoms: C_6  and  C_7
REMARK    4  A    between atoms: C_7  and  C_8
REMARK    5  A    between atoms: C_7  and  N_9
REMARK    6  A    between atoms: N_9  and  C_10
REMARK    7  A    between atoms: C_13  and  C_14
REMARK                            x       y       z     vdW  Elec       q    Type
REMARK                         _______ _______ _______ _____ _____    ______ ____
ROOT
ATOM      1  N   UNL     1      43.749   4.736   9.957  0.00  0.00    +0.000 N 
ATOM      2  H   UNL     1      43.956   5.707   9.719  0.00  0.00    +0.000 HD
ENDROOT
BRANCH   1   3
ATOM      3  C   UNL     1      44.651   3.895   9.285  0.00  0.00    +0.000 A 
ATOM      4  C   UNL     1      44.649   2.503   9.390  0.00  0.00    +0.000 A 
ATOM      5  C   UNL     1      45.538   1.709   8.651  0.00  0.00    +0.000 A 
ATOM      6  C   UNL     1      46.437   2.294   7.759  0.00  0.00    +0.000 A 
ATOM      7  C   UNL     1      46.430   3.683   7.604  0.00  0.00    +0.000 A 
ATOM      8  C   UNL     1      45.530   4.466   8.346  0.00  0.00    +0.000 A 
BRANCH   6   9
ATOM      9  C   UNL     1      47.380   1.401   7.037  0.00  0.00    +0.000 C 
ATOM     10  N   UNL     1      48.458   1.980   6.421  0.00  0.00    +0.000 N 
ATOM     11  O   UNL     1      47.192   0.193   6.957  0.00  0.00    +0.000 OA
ATOM     12  H   UNL     1      48.525   2.972   6.256  0.00  0.00    +0.000 HD
ATOM     13  H   UNL     1      49.020   1.365   5.845  0.00  0.00    +0.000 HD
ENDBRANCH   6   9
ENDBRANCH   1   3
BRANCH   1  14
ATOM     14  C   UNL     1      43.565   4.608  11.421  0.00  0.00    +0.000 C 
ATOM     15  C   UNL     1      42.457   5.538  11.933  0.00  0.00    +0.000 C 
BRANCH  14  19
ATOM     16  C   UNL     1      47.111   5.587  13.648  0.00  0.00    +0.000 A 
ATOM     17  C   UNL     1      46.720   6.424  12.612  0.00  0.00    +0.000 A 
ATOM     18  C   UNL     1      45.593   6.100  11.854  0.00  0.00    +0.000 A 
ATOM     19  C   UNL     1      44.869   4.944  12.156  0.00  0.00    +0.000 A 
ATOM     20  N   UNL     1      45.264   4.095  13.137  0.00  0.00    +0.000 NA
ATOM     21  C   UNL     1      46.369   4.430  13.848  0.00  0.00    +0.000 A 
BRANCH  16  23
ATOM     22  C   UNL     1      48.754   7.087  14.427  0.00  0.00    +0.000 C 
ATOM     23  O   UNL     1      48.183   5.782  14.470  0.00  0.00    +0.000 OA
ENDBRANCH  16  23
ENDBRANCH  14  19
ENDBRANCH   1  14
TORSDOF 5
ENDMDL
MODEL 2
REMARK VINA RESULT:    -6.940      1.697      2.022
REMARK INTER + INTRA:          -9.621
REMARK INTER:                  -9.001
REMARK INTRA:                  -0.620
REMARK UNBOUND:                -0.652
REMARK  Name = 
REMARK  7 active torsions:
REMARK  status: ('A' for Active; 'I' for Inactive)
REMARK    1  A    between atoms: C_1  and  O_2
REMARK    2  A    between atoms: O_2  and  C_3
REMARK    3  A    between atoms: C_6  and  C_7
REMARK    4  A    between atoms: C_7  and  C_8
REMARK    5  A    between atoms: C_7  and  N_9
REMARK    6  A    between atoms: N_9  and  C_10
REMARK    7  A    between atoms: C_13  and  C_14
REMARK                            x       y       z     vdW  Elec       q    Type
REMARK                         _______ _______ _______ _____ _____    ______ ____
ROOT
ATOM      1  N   UNL     1      44.038   3.766  10.698  0.00  0.00    +0.000 N 
ATOM      2  H   UNL     1      43.597   4.669  10.520  0.00  0.00    +0.000 HD
ENDROOT
BRANCH   1   3
ATOM      3  C   UNL     1      44.889   3.449   9.627  0.00  0.00    +0.000 A 
ATOM      4  C   UNL     1      45.189   2.147   9.224  0.00  0.00    +0.000 A 
ATOM      5  C   UNL     1      46.002   1.891   8.111  0.00  0.00    +0.000 A 
ATOM      6  C   UNL     1      46.514   2.942   7.350  0.00  0.00    +0.000 A 
ATOM      7  C   UNL     1      46.192   4.255   7.706  0.00  0.00    +0.000 A 
ATOM      8  C   UNL     1      45.372   4.497   8.821  0.00  0.00    +0.000 A 
BRANCH   6   9
ATOM      9  C   UNL     1      47.401   2.605   6.206  0.00  0.00    +0.000 C 
ATOM     10  N   UNL     1      48.611   2.030   6.490  0.00  0.00    +0.000 N 
ATOM     11  O   UNL     1      47.088   2.861   5.050  0.00  0.00    +0.000 OA
ATOM     12  H   UNL     1      49.009   2.021   7.416  0.00  0.00    +0.000 HD
ATOM     13  H   UNL     1      49.240   1.914   5.704  0.00  0.00    +0.000 HD
ENDBRANCH   6   9
ENDBRANCH   1   3
BRANCH   1  14
ATOM     14  C   UNL     1      44.546   3.723  12.088  0.00  0.00    +0.000 C 
ATOM     15  C   UNL     1      43.419   3.449  13.093  0.00  0.00    +0.000 C 
BRANCH  14  19
ATOM     16  C   UNL     1      46.424   7.502  12.916  0.00  0.00    +0.000 A 
ATOM     17  C   UNL     1      47.158   6.337  13.096  0.00  0.00    +0.000 A 
ATOM     18  C   UNL     1      46.552   5.100  12.869  0.00  0.00    +0.000 A 
ATOM     19  C   UNL     1      45.218   5.052  12.453  0.00  0.00    +0.000 A 
ATOM     20  N   UNL     1      44.478   6.181  12.315  0.00  0.00    +0.000 NA
ATOM     21  C   UNL     1      45.091   7.366  12.554  0.00  0.00    +0.000 A 
BRANCH  16  23
ATOM     22  C   UNL     1      46.484   9.715  12.106  0.00  0.00    +0.000 C 
ATOM     23  O   UNL     1      46.889   8.773  13.096  0.00  0.00    +0.000 OA
ENDBRANCH  16  23
ENDBRANCH  14  19
ENDBRANCH   1  14
TORSDOF 5
ENDMDL
MODEL 3
REMARK VINA RESULT:    -6.722      1.579      6.422
REMARK INTER + INTRA:          -9.339
REMARK INTER:                  -9.444
REMARK INTRA:                   0.104
REMARK UNBOUND:                -0.652
REMARK  Name = 
REMARK  7 active torsions:
REMARK  status: ('A' for Active; 'I' for Inactive)
REMARK    1  A    between atoms: C_1  and  O_2
REMARK    2  A    between atoms: O_2  and  C_3
REMARK    3  A    between atoms: C_6  and  C_7
REMARK    4  A    between atoms: C_7  and  C_8
REMARK    5  A    between atoms: C_7  and  N_9
REMARK    6  A    between atoms: N_9  and  C_10
REMARK    7  A    between atoms: C_13  and  C_14
REMARK                            x       y       z     vdW  Elec       q    Type
REMARK                         _______ _______ _______ _____ _____    ______ ____
ROOT
ATOM      1  N   UNL     1      44.302   5.551  10.288  0.00  0.00    +0.000 N 
ATOM      2  H   UNL     1      43.506   6.175  10.430  0.00  0.00    +0.000 HD
ENDROOT
BRANCH   1   3
ATOM      3  C   UNL     1      45.188   5.682  11.370  0.00  0.00    +0.000 A 
ATOM      4  C   UNL     1      44.986   5.098  12.622  0.00  0.00    +0.000 A 
ATOM      5  C   UNL     1      45.934   5.216  13.649  0.00  0.00    +0.000 A 
ATOM      6  C   UNL     1      47.129   5.901  13.435  0.00  0.00    +0.000 A 
ATOM      7  C   UNL     1      47.375   6.458  12.177  0.00  0.00    +0.000 A 
ATOM      8  C   UNL     1      46.420   6.327  11.154  0.00  0.00    +0.000 A 
BRANCH   6   9
ATOM      9  C   UNL     1      48.074   6.025  14.576  0.00  0.00    +0.000 C 
ATOM     10  N   UNL     1      47.685   5.505  15.782  0.00  0.00    +0.000 N 
ATOM     11  O   UNL     1      49.149   6.601  14.464  0.00  0.00    +0.000 OA
ATOM     12  H   UNL     1      46.733   5.242  15.982  0.00  0.00    +0.000 HD
ATOM     13  H   UNL     1      48.297   5.700  16.565  0.00  0.00    +0.000 HD
ENDBRANCH   6   9
ENDBRANCH   1   3
BRANCH   1  14
ATOM     14  C   UNL     1      43.821   4.212   9.881  0.00  0.00    +0.000 C 
ATOM     15  C   UNL     1      43.481   3.340  11.096  0.00  0.00    +0.000 C 
BRANCH  14  19
ATOM     16  C   UNL     1      46.691   2.222   7.370  0.00  0.00    +0.000 A 
ATOM     17  C   UNL     1      46.039   1.488   8.352  0.00  0.00    +0.000 A 
ATOM     18  C   UNL     1      45.133   2.127   9.201  0.00  0.00    +0.000 A 
ATOM     19  C   UNL     1      44.887   3.493   9.043  0.00  0.00    +0.000 A 
ATOM     20  N   UNL     1      45.549   4.231   8.116  0.00  0.00    +0.000 NA
ATOM     21  C   UNL     1      46.432   3.585   7.315  0.00  0.00    +0.000 A 
BRANCH  16  23
ATOM     22  C   UNL     1      47.746   2.492   5.280  0.00  0.00    +0.000 C 
ATOM     23  O   UNL     1      47.593   1.728   6.472  0.00  0.00    +0.000 OA
ENDBRANCH  16  23
ENDBRANCH  14  19
ENDBRANCH   1  14
TORSDOF 5
ENDMDL
MODEL 4
REMARK VINA RESULT:    -6.472      2.496      6.775
REMARK INTER + INTRA:          -9.015
REMARK INTER:                  -8.374
REMARK INTRA:                  -0.641
REMARK UNBOUND:                -0.652
REMARK  Name = 
REMARK  7 active torsions:
REMARK  status: ('A' for Active; 'I' for Inactive)
REMARK    1  A    between atoms: C_1  and  O_2
REMARK    2  A    between atoms: O_2  and  C_3
REMARK    3  A    between atoms: C_6  and  C_7
REMARK    4  A    between atoms: C_7  and  C_8
REMARK    5  A    between atoms: C_7  and  N_9
REMARK    6  A    between atoms: N_9  and  C_10
REMARK    7  A    between atoms: C_13  and  C_14
REMARK                            x       y       z     vdW  Elec       q    Type
REMARK                         _______ _______ _______ _____ _____    ______ ____
ROOT
ATOM      1  N   UNL     1      45.210   4.432  11.974  0.00  0.00    +0.000 N 
ATOM      2  H   UNL     1      46.086   3.920  11.863  0.00  0.00    +0.000 HD
ENDROOT
BRANCH   1   3
ATOM      3  C   UNL     1      45.488   5.806  12.063  0.00  0.00    +0.000 A 
ATOM      4  C   UNL     1      46.728   6.331  12.431  0.00  0.00    +0.000 A 
ATOM      5  C   UNL     1      46.965   7.713  12.447  0.00  0.00    +0.000 A 
ATOM      6  C   UNL     1      45.966   8.608  12.065  0.00  0.00    +0.000 A 
ATOM      7  C   UNL     1      44.730   8.106  11.650  0.00  0.00    +0.000 A 
ATOM      8  C   UNL     1      44.507   6.719  11.632  0.00  0.00    +0.000 A 
BRANCH   6   9
ATOM      9  C   UNL     1      46.267  10.061  12.143  0.00  0.00    +0.000 C 
ATOM     10  N   UNL     1      45.208  10.929  12.171  0.00  0.00    +0.000 N 
ATOM     11  O   UNL     1      47.418  10.482  12.148  0.00  0.00    +0.000 OA
ATOM     12  H   UNL     1      44.269  10.652  11.931  0.00  0.00    +0.000 HD
ATOM     13  H   UNL     1      45.442  11.913  12.112  0.00  0.00    +0.000 HD
ENDBRANCH   6   9
ENDBRANCH   1   3
BRANCH   1  14
ATOM     14  C   UNL     1      44.214   3.938  10.997  0.00  0.00    +0.000 C 
ATOM     15  C   UNL     1      43.383   2.783  11.573  0.00  0.00    +0.000 C 
BRANCH  14  19
ATOM     16  C   UNL     1      46.327   2.516   7.532  0.00  0.00    +0.000 A 
ATOM     17  C   UNL     1      46.113   3.881   7.671  0.00  0.00    +0.000 A 
ATOM     18  C   UNL     1      45.395   4.356   8.770  0.00  0.00    +0.000 A 
ATOM     19  C   UNL     1      44.912   3.452   9.721  0.00  0.00    +0.000 A 
ATOM     20  N   UNL     1      45.077   2.113   9.574  0.00  0.00    +0.000 NA
ATOM     21  C   UNL     1      45.767   1.682   8.491  0.00  0.00    +0.000 A 
BRANCH  16  23
ATOM     22  C   UNL     1      47.219   2.723   5.360  0.00  0.00    +0.000 C 
ATOM     23  O   UNL     1      47.013   1.916   6.515  0.00  0.00    +0.000 OA
ENDBRANCH  16  23
ENDBRANCH  14  19
ENDBRANCH   1  14
TORSDOF 5
ENDMDL
MODEL 5
REMARK VINA RESULT:    -6.218      2.683      6.873
REMARK INTER + INTRA:          -8.688
REMARK INTER:                  -8.115
REMARK INTRA:                  -0.573
REMARK UNBOUND:                -0.652
REMARK  Name = 
REMARK  7 active torsions:
REMARK  status: ('A' for Active; 'I' for Inactive)
REMARK    1  A    between atoms: C_1  and  O_2
REMARK    2  A    between atoms: O_2  and  C_3
REMARK    3  A    between atoms: C_6  and  C_7
REMARK    4  A    between atoms: C_7  and  C_8
REMARK    5  A    between atoms: C_7  and  N_9
REMARK    6  A    between atoms: N_9  and  C_10
REMARK    7  A    between atoms: C_13  and  C_14
REMARK                            x       y       z     vdW  Elec       q    Type
REMARK                         _______ _______ _______ _____ _____    ______ ____
ROOT
ATOM      1  N   UNL     1      45.206   5.366  11.962  0.00  0.00    +0.000 N 
ATOM      2  H   UNL     1      45.897   4.620  12.050  0.00  0.00    +0.000 HD
ENDROOT
BRANCH   1   3
ATOM      3  C   UNL     1      45.862   6.608  12.000  0.00  0.00    +0.000 A 
ATOM      4  C   UNL     1      45.252   7.802  12.386  0.00  0.00    +0.000 A 
ATOM      5  C   UNL     1      45.971   9.004  12.460  0.00  0.00    +0.000 A 
ATOM      6  C   UNL     1      47.336   9.032  12.175  0.00  0.00    +0.000 A 
ATOM      7  C   UNL     1      47.980   7.841  11.829  0.00  0.00    +0.000 A 
ATOM      8  C   UNL     1      47.249   6.642  11.765  0.00  0.00    +0.000 A 
BRANCH   6   9
ATOM      9  C   UNL     1      48.032  10.344  12.232  0.00  0.00    +0.000 C 
ATOM     10  N   UNL     1      47.398  11.372  12.878  0.00  0.00    +0.000 N 
ATOM     11  O   UNL     1      49.118  10.522  11.693  0.00  0.00    +0.000 OA
ATOM     12  H   UNL     1      46.420  11.343  13.122  0.00  0.00    +0.000 HD
ATOM     13  H   UNL     1      47.842  12.279  12.805  0.00  0.00    +0.000 HD
ENDBRANCH   6   9
ENDBRANCH   1   3
BRANCH   1  14
ATOM     14  C   UNL     1      44.271   5.054  10.858  0.00  0.00    +0.000 C 
ATOM     15  C   UNL     1      43.026   4.315  11.365  0.00  0.00    +0.000 C 
BRANCH  14  19
ATOM     16  C   UNL     1      46.073   2.681   7.757  0.00  0.00    +0.000 A 
ATOM     17  C   UNL     1      45.450   2.035   8.817  0.00  0.00    +0.000 A 
ATOM     18  C   UNL     1      44.894   2.790   9.852  0.00  0.00    +0.000 A 
ATOM     19  C   UNL     1      44.962   4.185   9.800  0.00  0.00    +0.000 A 
ATOM     20  N   UNL     1      45.605   4.827   8.793  0.00  0.00    +0.000 NA
ATOM     21  C   UNL     1      46.146   4.066   7.809  0.00  0.00    +0.000 A 
BRANCH  16  23
ATOM     22  C   UNL     1      48.068   2.200   6.598  0.00  0.00    +0.000 C 
ATOM     23  O   UNL     1      46.652   2.072   6.681  0.00  0.00    +0.000 OA
ENDBRANCH  16  23
ENDBRANCH  14  19
ENDBRANCH   1  14
TORSDOF 5
ENDMDL
MODEL 6
REMARK VINA RESULT:    -6.139      2.288      6.173
REMARK INTER + INTRA:          -8.585
REMARK INTER:                  -7.920
REMARK INTRA:                  -0.665
REMARK UNBOUND:                -0.652
REMARK  Name = 
REMARK  7 active torsions:
REMARK  status: ('A' for Active; 'I' for Inactive)
REMARK    1  A    between atoms: C_1  and  O_2
REMARK    2  A    between atoms: O_2  and  C_3
REMARK    3  A    between atoms: C_6  and  C_7
REMARK    4  A    between atoms: C_7  and  C_8
REMARK    5  A    between atoms: C_7  and  N_9
REMARK    6  A    between atoms: N_9  and  C_10
REMARK    7  A    between atoms: C_13  and  C_14
REMARK                            x       y       z     vdW  Elec       q    Type
REMARK                         _______ _______ _______ _____ _____    ______ ____
ROOT
ATOM      1  N   UNL     1      44.577   5.934  12.609  0.00  0.00    +0.000 N 
ATOM      2  H   UNL     1      44.628   5.028  13.076  0.00  0.00    +0.000 HD
ENDROOT
BRANCH   1   3
ATOM      3  C   UNL     1      45.867   6.485  12.532  0.00  0.00    +0.000 A 
ATOM      4  C   UNL     1      46.133   7.802  12.151  0.00  0.00    +0.000 A 
ATOM      5  C   UNL     1      47.438   8.315  12.146  0.00  0.00    +0.000 A 
ATOM      6  C   UNL     1      48.512   7.525  12.555  0.00  0.00    +0.000 A 
ATOM      7  C   UNL     1      48.267   6.217  12.982  0.00  0.00    +0.000 A 
ATOM      8  C   UNL     1      46.954   5.717  12.988  0.00  0.00    +0.000 A 
BRANCH   6   9
ATOM      9  C   UNL     1      49.875   8.115  12.488  0.00  0.00    +0.000 C 
ATOM     10  N   UNL     1      50.766   7.768  13.468  0.00  0.00    +0.000 N 
ATOM     11  O   UNL     1      50.190   8.912  11.613  0.00  0.00    +0.000 OA
ATOM     12  H   UNL     1      50.487   7.316  14.325  0.00  0.00    +0.000 HD
ATOM     13  H   UNL     1      51.647   8.269  13.461  0.00  0.00    +0.000 HD
ENDBRANCH   6   9
ENDBRANCH   1   3
BRANCH   1  14
ATOM     14  C   UNL     1      43.743   5.824  11.391  0.00  0.00    +0.000 C 
ATOM     15  C   UNL     1      42.271   5.563  11.736  0.00  0.00    +0.000 C 
BRANCH  14  19
ATOM     16  C   UNL     1      45.264   2.553   9.048  0.00  0.00    +0.000 A 
ATOM     17  C   UNL     1      45.658   3.846   8.727  0.00  0.00    +0.000 A 
ATOM     18  C   UNL     1      45.143   4.922   9.453  0.00  0.00    +0.000 A 
ATOM     19  C   UNL     1      44.248   4.682  10.499  0.00  0.00    +0.000 A 
ATOM     20  N   UNL     1      43.822   3.429  10.794  0.00  0.00    +0.000 NA
ATOM     21  C   UNL     1      44.330   2.406  10.064  0.00  0.00    +0.000 A 
BRANCH  16  23
ATOM     22  C   UNL     1      46.822   1.568   7.578  0.00  0.00    +0.000 C 
ATOM     23  O   UNL     1      45.690   1.413   8.429  0.00  0.00    +0.000 OA
ENDBRANCH  16  23
ENDBRANCH  14  19
ENDBRANCH   1  14
TORSDOF 5
ENDMDL
MODEL 7
REMARK VINA RESULT:    -6.015      1.669      6.382
REMARK INTER + INTRA:          -8.424
REMARK INTER:                  -8.700
REMARK INTRA:                   0.275
REMARK UNBOUND:                -0.652
REMARK  Name = 
REMARK  7 active torsions:
REMARK  status: ('A' for Active; 'I' for Inactive)
REMARK    1  A    between atoms: C_1  and  O_2
REMARK    2  A    between atoms: O_2  and  C_3
REMARK    3  A    between atoms: C_6  and  C_7
REMARK    4  A    between atoms: C_7  and  C_8
REMARK    5  A    between atoms: C_7  and  N_9
REMARK    6  A    between atoms: N_9  and  C_10
REMARK    7  A    between atoms: C_13  and  C_14
REMARK                            x       y       z     vdW  Elec       q    Type
REMARK                         _______ _______ _______ _____ _____    ______ ____
ROOT
ATOM      1  N   UNL     1      45.044   6.338  10.873  0.00  0.00    +0.000 N 
ATOM      2  H   UNL     1      44.621   7.253  11.035  0.00  0.00    +0.000 HD
ENDROOT
BRANCH   1   3
ATOM      3  C   UNL     1      45.637   5.887  12.064  0.00  0.00    +0.000 A 
ATOM      4  C   UNL     1      45.103   4.882  12.871  0.00  0.00    +0.000 A 
ATOM      5  C   UNL     1      45.768   4.432  14.021  0.00  0.00    +0.000 A 
ATOM      6  C   UNL     1      47.009   4.962  14.375  0.00  0.00    +0.000 A 
ATOM      7  C   UNL     1      47.586   5.938  13.558  0.00  0.00    +0.000 A 
ATOM      8  C   UNL     1      46.912   6.376  12.406  0.00  0.00    +0.000 A 
BRANCH   6   9
ATOM      9  C   UNL     1      47.643   4.471  15.626  0.00  0.00    +0.000 C 
ATOM     10  N   UNL     1      47.833   5.374  16.638  0.00  0.00    +0.000 N 
ATOM     11  O   UNL     1      48.019   3.311  15.747  0.00  0.00    +0.000 OA
ATOM     12  H   UNL     1      47.764   6.370  16.501  0.00  0.00    +0.000 HD
ATOM     13  H   UNL     1      48.366   5.041  17.433  0.00  0.00    +0.000 HD
ENDBRANCH   6   9
ENDBRANCH   1   3
BRANCH   1  14
ATOM     14  C   UNL     1      44.095   5.470  10.141  0.00  0.00    +0.000 C 
ATOM     15  C   UNL     1      43.070   4.832  11.088  0.00  0.00    +0.000 C 
BRANCH  14  19
ATOM     16  C   UNL     1      46.100   2.383   7.917  0.00  0.00    +0.000 A 
ATOM     17  C   UNL     1      45.257   2.017   8.958  0.00  0.00    +0.000 A 
ATOM     18  C   UNL     1      44.629   3.008   9.715  0.00  0.00    +0.000 A 
ATOM     19  C   UNL     1      44.848   4.353   9.407  0.00  0.00    +0.000 A 
ATOM     20  N   UNL     1      45.702   4.725   8.421  0.00  0.00    +0.000 NA
ATOM     21  C   UNL     1      46.307   3.740   7.711  0.00  0.00    +0.000 A 
BRANCH  16  23
ATOM     22  C   UNL     1      46.865   0.182   7.562  0.00  0.00    +0.000 C 
ATOM     23  O   UNL     1      46.772   1.524   7.095  0.00  0.00    +0.000 OA
ENDBRANCH  16  23
ENDBRANCH  14  19
ENDBRANCH   1  14
TORSDOF 5
ENDMDL
MODEL 8
REMARK VINA RESULT:    -5.853      2.249      6.992
REMARK INTER + INTRA:          -8.216
REMARK INTER:                  -7.686
REMARK INTRA:                  -0.530
REMARK UNBOUND:                -0.652
REMARK  Name = 
REMARK  7 active torsions:
REMARK  status: ('A' for Active; 'I' for Inactive)
REMARK    1  A    between atoms: C_1  and  O_2
REMARK    2  A    between atoms: O_2  and  C_3
REMARK    3  A    between atoms: C_6  and  C_7
REMARK    4  A    between atoms: C_7  and  C_8
REMARK    5  A    between atoms: C_7  and  N_9
REMARK    6  A    between atoms: N_9  and  C_10
REMARK    7  A    between atoms: C_13  and  C_14
REMARK                            x       y       z     vdW  Elec       q    Type
REMARK                         _______ _______ _______ _____ _____    ______ ____
ROOT
ATOM      1  N   UNL     1      45.506   4.129  13.581  0.00  0.00    +0.000 N 
ATOM      2  H   UNL     1      45.888   3.299  13.126  0.00  0.00    +0.000 HD
ENDROOT
BRANCH   1   3
ATOM      3  C   UNL     1      46.546   4.826  14.218  0.00  0.00    +0.000 A 
ATOM      4  C   UNL     1      47.103   4.451  15.442  0.00  0.00    +0.000 A 
ATOM      5  C   UNL     1      48.179   5.152  16.004  0.00  0.00    +0.000 A 
ATOM      6  C   UNL     1      48.747   6.236  15.335  0.00  0.00    +0.000 A 
ATOM      7  C   UNL     1      48.235   6.604  14.087  0.00  0.00    +0.000 A 
ATOM      8  C   UNL     1      47.161   5.889  13.532  0.00  0.00    +0.000 A 
BRANCH   6   9
ATOM      9  C   UNL     1      49.858   6.962  16.003  0.00  0.00    +0.000 C 
ATOM     10  N   UNL     1      50.992   7.200  15.273  0.00  0.00    +0.000 N 
ATOM     11  O   UNL     1      49.788   7.310  17.176  0.00  0.00    +0.000 OA
ATOM     12  H   UNL     1      51.188   6.732  14.401  0.00  0.00    +0.000 HD
ATOM     13  H   UNL     1      51.771   7.595  15.784  0.00  0.00    +0.000 HD
ENDBRANCH   6   9
ENDBRANCH   1   3
BRANCH   1  14
ATOM     14  C   UNL     1      44.600   4.838  12.649  0.00  0.00    +0.000 C 
ATOM     15  C   UNL     1      43.128   4.644  13.037  0.00  0.00    +0.000 C 
BRANCH  14  19
ATOM     16  C   UNL     1      45.037   3.554   8.567  0.00  0.00    +0.000 A 
ATOM     17  C   UNL     1      44.424   2.700   9.475  0.00  0.00    +0.000 A 
ATOM     18  C   UNL     1      44.309   3.085  10.812  0.00  0.00    +0.000 A 
ATOM     19  C   UNL     1      44.802   4.329  11.216  0.00  0.00    +0.000 A 
ATOM     20  N   UNL     1      45.441   5.154  10.349  0.00  0.00    +0.000 NA
ATOM     21  C   UNL     1      45.548   4.747   9.060  0.00  0.00    +0.000 A 
BRANCH  16  23
ATOM     22  C   UNL     1      46.551   3.441   6.764  0.00  0.00    +0.000 C 
ATOM     23  O   UNL     1      45.213   3.310   7.236  0.00  0.00    +0.000 OA
ENDBRANCH  16  23
ENDBRANCH  14  19
ENDBRANCH   1  14
TORSDOF 5
ENDMDL
