MODEL 1
REMARK VINA RESULT:    -8.805      0.000      0.000
REMARK INTER + INTRA:         -11.670
REMARK INTER:                 -10.864
REMARK INTRA:                  -0.806
REMARK UNBOUND:                -0.806
REMARK  Name = 
REMARK  4 active torsions:
REMARK  status: ('A' for Active; 'I' for Inactive)
REMARK    1  A    between atoms: C_2  and  C_4
REMARK    2  A    between atoms: N_8  and  C_9
REMARK    3  A    between atoms: C_9  and  C_10
REMARK    4  A    between atoms: C_14  and  C_15
REMARK                            x       y       z     vdW  Elec       q    Type
REMARK                         _______ _______ _______ _____ _____    ______ ____
ROOT
ATOM      1  C   UNL     1      46.564   2.693   7.504  0.00  0.00    +0.000 A 
ATOM      2  C   UNL     1      46.302   4.043   7.720  0.00  0.00    +0.000 A 
ATOM      3  C   UNL     1      45.448   4.417   8.761  0.00  0.00    +0.000 A 
ATOM      4  C   UNL     1      44.867   3.438   9.560  0.00  0.00    +0.000 A 
ATOM      5  N   UNL     1      43.922   3.716  10.551  0.00  0.00    +0.000 N 
ATOM      6  N   UNL     1      45.114   2.126   9.358  0.00  0.00    +0.000 NA
ATOM      7  C   UNL     1      45.945   1.779   8.342  0.00  0.00    +0.000 A 
ATOM      8  H   UNL     1      43.719   2.821  10.993  0.00  0.00    +0.000 HD
ENDROOT
BRANCH   1  10
ATOM      9  N   UNL     1      47.661   3.051   5.365  0.00  0.00    +0.000 N 
ATOM     10  C   UNL     1      47.423   2.203   6.411  0.00  0.00    +0.000 C 
ATOM     11  O   UNL     1      47.926   1.086   6.444  0.00  0.00    +0.000 OA
ATOM     12  H   UNL     1      48.319   2.731   4.665  0.00  0.00    +0.000 HD
ATOM     13  H   UNL     1      47.471   4.041   5.407  0.00  0.00    +0.000 HD
ENDBRANCH   1  10
BRANCH   5  14
ATOM     14  C   UNL     1      43.953   4.890  11.435  0.00  0.00    +0.000 C 
ATOM     15  C   UNL     1      42.650   5.155  12.181  0.00  0.00    +0.000 C 
ATOM     16  C   UNL     1      43.137   6.144  11.178  0.00  0.00    +0.000 C 
BRANCH  14  17
ATOM     17  C   UNL     1      45.264   5.047  12.198  0.00  0.00    +0.000 A 
ATOM     18  C   UNL     1      45.673   4.119  13.167  0.00  0.00    +0.000 A 
ATOM     19  C   UNL     1      46.875   4.305  13.827  0.00  0.00    +0.000 A 
ATOM     20  N   UNL     1      47.707   5.340  13.594  0.00  0.00    +0.000 NA
ATOM     21  C   UNL     1      47.335   6.243  12.645  0.00  0.00    +0.000 A 
ATOM     22  C   UNL     1      46.131   6.119  11.945  0.00  0.00    +0.000 A 
BRANCH  21  23
ATOM     23  C   UNL     1      48.241   7.427  12.330  0.00  0.00    +0.000 C 
ATOM     24  F   UNL     1      47.710   8.645  12.631  0.00  0.00    +0.000 F 
ATOM     25  F   UNL     1      49.431   7.364  12.997  0.00  0.00    +0.000 F 
ATOM     26  F   UNL     1      48.575   7.485  11.006  0.00  0.00    +0.000 F 
ENDBRANCH  21  23
ENDBRANCH  14  17
ENDBRANCH   5  14
TORSDOF 4
ENDMDL
MODEL 2
REMARK VINA RESULT:    -8.565      1.848      2.486
REMARK INTER + INTRA:         -11.374
REMARK INTER:                 -10.741
REMARK INTRA:                  -0.633
REMARK UNBOUND:                -0.806
REMARK  Name = 
REMARK  4 active torsions:
REMARK  status: ('A' for Active; 'I' for Inactive)
REMARK    1  A    between atoms: C_2  and  C_4
REMARK    2  A    between atoms: N_8  and  C_9
REMARK    3  A    between atoms: C_9  and  C_10
REMARK    4  A    between atoms: C_14  and  C_15
REMARK                            x       y       z     vdW  Elec       q    Type
REMARK                         _______ _______ _______ _____ _____    ______ ____
ROOT
ATOM      1  C   UNL     1      46.457   2.707   7.528  0.00  0.00    +0.000 A 
ATOM      2  C   UNL     1      46.082   4.040   7.674  0.00  0.00    +0.000 A 
ATOM      3  C   UNL     1      45.291   4.413   8.764  0.00  0.00    +0.000 A 
ATOM      4  C   UNL     1      44.883   3.449   9.680  0.00  0.00    +0.000 A 
ATOM      5  N   UNL     1      44.006   3.715  10.735  0.00  0.00    +0.000 N 
ATOM      6  N   UNL     1      45.240   2.153   9.546  0.00  0.00    +0.000 NA
ATOM      7  C   UNL     1      46.009   1.808   8.482  0.00  0.00    +0.000 A 
ATOM      8  H   UNL     1      43.933   2.841  11.255  0.00  0.00    +0.000 HD
ENDROOT
BRANCH   1  10
ATOM      9  N   UNL     1      47.309   2.992   5.269  0.00  0.00    +0.000 N 
ATOM     10  C   UNL     1      47.260   2.215   6.394  0.00  0.00    +0.000 C 
ATOM     11  O   UNL     1      47.881   1.161   6.459  0.00  0.00    +0.000 OA
ATOM     12  H   UNL     1      47.931   2.682   4.533  0.00  0.00    +0.000 HD
ATOM     13  H   UNL     1      47.019   3.958   5.257  0.00  0.00    +0.000 HD
ENDBRANCH   1  10
BRANCH   5  14
ATOM     14  C   UNL     1      43.998   4.952  11.530  0.00  0.00    +0.000 C 
ATOM     15  C   UNL     1      42.721   5.181  12.330  0.00  0.00    +0.000 C 
ATOM     16  C   UNL     1      43.081   6.123  11.231  0.00  0.00    +0.000 C 
BRANCH  14  17
ATOM     17  C   UNL     1      45.333   5.256  12.201  0.00  0.00    +0.000 A 
ATOM     18  C   UNL     1      46.224   6.206  11.682  0.00  0.00    +0.000 A 
ATOM     19  C   UNL     1      47.421   6.449  12.333  0.00  0.00    +0.000 A 
ATOM     20  N   UNL     1      47.799   5.824  13.466  0.00  0.00    +0.000 NA
ATOM     21  C   UNL     1      46.939   4.910  13.996  0.00  0.00    +0.000 A 
ATOM     22  C   UNL     1      45.718   4.612  13.385  0.00  0.00    +0.000 A 
BRANCH  21  23
ATOM     23  C   UNL     1      47.307   4.180  15.282  0.00  0.00    +0.000 C 
ATOM     24  F   UNL     1      47.664   2.876  15.115  0.00  0.00    +0.000 F 
ATOM     25  F   UNL     1      48.351   4.771  15.935  0.00  0.00    +0.000 F 
ATOM     26  F   UNL     1      46.280   4.171  16.183  0.00  0.00    +0.000 F 
ENDBRANCH  21  23
ENDBRANCH  14  17
ENDBRANCH   5  14
TORSDOF 4
ENDMDL
MODEL 3
REMARK VINA RESULT:    -7.015      4.014      6.748
REMARK INTER + INTRA:          -9.462
REMARK INTER:                  -9.587
REMARK INTRA:                   0.126
REMARK UNBOUND:                -0.806
REMARK  Name = 
REMARK  4 active torsions:
REMARK  status: ('A' for Active; 'I' for Inactive)
REMARK    1  A    between atoms: C_2  and  C_4
REMARK    2  A    between atoms: N_8  and  C_9
REMARK    3  A    between atoms: C_9  and  C_10
REMARK    4  A    between atoms: C_14  and  C_15
REMARK                            x       y       z     vdW  Elec       q    Type
REMARK                         _______ _______ _______ _____ _____    ______ ____
ROOT
ATOM      1  C   UNL     1      47.891   5.766  14.704  0.00  0.00    +0.000 A 
ATOM      2  C   UNL     1      47.557   6.050  13.383  0.00  0.00    +0.000 A 
ATOM      3  C   UNL     1      46.766   5.147  12.667  0.00  0.00    +0.000 A 
ATOM      4  C   UNL     1      46.333   3.976  13.279  0.00  0.00    +0.000 A 
ATOM      5  N   UNL     1      45.631   2.972  12.607  0.00  0.00    +0.000 N 
ATOM      6  N   UNL     1      46.652   3.691  14.561  0.00  0.00    +0.000 NA
ATOM      7  C   UNL     1      47.421   4.579  15.241  0.00  0.00    +0.000 A 
ATOM      8  H   UNL     1      45.411   2.272  13.315  0.00  0.00    +0.000 HD
ENDROOT
BRANCH   1  10
ATOM      9  N   UNL     1      48.268   7.886  15.832  0.00  0.00    +0.000 N 
ATOM     10  C   UNL     1      48.746   6.641  15.526  0.00  0.00    +0.000 C 
ATOM     11  O   UNL     1      49.836   6.265  15.940  0.00  0.00    +0.000 OA
ATOM     12  H   UNL     1      48.829   8.442  16.466  0.00  0.00    +0.000 HD
ATOM     13  H   UNL     1      47.299   8.144  15.720  0.00  0.00    +0.000 HD
ENDBRANCH   1  10
BRANCH   5  14
ATOM     14  C   UNL     1      44.607   3.206  11.579  0.00  0.00    +0.000 C 
ATOM     15  C   UNL     1      43.433   4.063  12.038  0.00  0.00    +0.000 C 
ATOM     16  C   UNL     1      43.202   2.639  11.662  0.00  0.00    +0.000 C 
BRANCH  14  17
ATOM     17  C   UNL     1      45.183   3.460  10.189  0.00  0.00    +0.000 A 
ATOM     18  C   UNL     1      45.246   4.747   9.637  0.00  0.00    +0.000 A 
ATOM     19  C   UNL     1      45.782   4.923   8.374  0.00  0.00    +0.000 A 
ATOM     20  N   UNL     1      46.270   3.918   7.618  0.00  0.00    +0.000 NA
ATOM     21  C   UNL     1      46.234   2.663   8.145  0.00  0.00    +0.000 A 
ATOM     22  C   UNL     1      45.698   2.414   9.412  0.00  0.00    +0.000 A 
BRANCH  21  23
ATOM     23  C   UNL     1      46.781   1.489   7.342  0.00  0.00    +0.000 C 
ATOM     24  F   UNL     1      46.433   1.489   6.025  0.00  0.00    +0.000 F 
ATOM     25  F   UNL     1      48.146   1.433   7.366  0.00  0.00    +0.000 F 
ATOM     26  F   UNL     1      46.364   0.285   7.837  0.00  0.00    +0.000 F 
ENDBRANCH  21  23
ENDBRANCH  14  17
ENDBRANCH   5  14
TORSDOF 4
ENDMDL
MODEL 4
REMARK VINA RESULT:    -6.767      3.505      6.117
REMARK INTER + INTRA:          -9.156
REMARK INTER:                  -8.641
REMARK INTRA:                  -0.515
REMARK UNBOUND:                -0.806
REMARK  Name = 
REMARK  4 active torsions:
REMARK  status: ('A' for Active; 'I' for Inactive)
REMARK    1  A    between atoms: C_2  and  C_4
REMARK    2  A    between atoms: N_8  and  C_9
REMARK    3  A    between atoms: C_9  and  C_10
REMARK    4  A    between atoms: C_14  and  C_15
REMARK                            x       y       z     vdW  Elec       q    Type
REMARK                         _______ _______ _______ _____ _____    ______ ____
ROOT
ATOM      1  C   UNL     1      48.550   7.021  13.148  0.00  0.00    +0.000 A 
ATOM      2  C   UNL     1      47.559   6.309  13.817  0.00  0.00    +0.000 A 
ATOM      3  C   UNL     1      46.346   6.051  13.172  0.00  0.00    +0.000 A 
ATOM      4  C   UNL     1      46.144   6.516  11.877  0.00  0.00    +0.000 A 
ATOM      5  N   UNL     1      44.927   6.396  11.199  0.00  0.00    +0.000 N 
ATOM      6  N   UNL     1      47.099   7.208  11.219  0.00  0.00    +0.000 NA
ATOM      7  C   UNL     1      48.270   7.451  11.860  0.00  0.00    +0.000 A 
ATOM      8  H   UNL     1      45.095   6.778  10.269  0.00  0.00    +0.000 HD
ENDROOT
BRANCH   1  10
ATOM      9  N   UNL     1      50.854   7.761  12.922  0.00  0.00    +0.000 N 
ATOM     10  C   UNL     1      49.845   7.370  13.759  0.00  0.00    +0.000 C 
ATOM     11  O   UNL     1      50.011   7.333  14.972  0.00  0.00    +0.000 OA
ATOM     12  H   UNL     1      51.709   8.077  13.363  0.00  0.00    +0.000 HD
ATOM     13  H   UNL     1      50.697   8.032  11.963  0.00  0.00    +0.000 HD
ENDBRANCH   1  10
BRANCH   5  14
ATOM     14  C   UNL     1      44.034   5.232  11.277  0.00  0.00    +0.000 C 
ATOM     15  C   UNL     1      42.552   5.577  11.377  0.00  0.00    +0.000 C 
ATOM     16  C   UNL     1      43.226   4.888  12.515  0.00  0.00    +0.000 C 
BRANCH  14  17
ATOM     17  C   UNL     1      44.445   4.082  10.362  0.00  0.00    +0.000 A 
ATOM     18  C   UNL     1      43.938   2.785  10.529  0.00  0.00    +0.000 A 
ATOM     19  C   UNL     1      44.339   1.779   9.669  0.00  0.00    +0.000 A 
ATOM     20  N   UNL     1      45.202   1.963   8.648  0.00  0.00    +0.000 NA
ATOM     21  C   UNL     1      45.692   3.220   8.460  0.00  0.00    +0.000 A 
ATOM     22  C   UNL     1      45.334   4.280   9.297  0.00  0.00    +0.000 A 
BRANCH  21  23
ATOM     23  C   UNL     1      46.661   3.491   7.316  0.00  0.00    +0.000 C 
ATOM     24  F   UNL     1      47.717   2.632   7.249  0.00  0.00    +0.000 F 
ATOM     25  F   UNL     1      46.055   3.431   6.094  0.00  0.00    +0.000 F 
ATOM     26  F   UNL     1      47.206   4.743   7.385  0.00  0.00    +0.000 F 
ENDBRANCH  21  23
ENDBRANCH  14  17
ENDBRANCH   5  14
TORSDOF 4
ENDMDL
MODEL 5
REMARK VINA RESULT:    -6.110      4.560      7.771
REMARK INTER + INTRA:          -8.345
REMARK INTER:                  -8.638
REMARK INTRA:                   0.293
REMARK UNBOUND:                -0.806
REMARK  Name = 
REMARK  4 active torsions:
REMARK  status: ('A' for Active; 'I' for Inactive)
REMARK    1  A    between atoms: C_2  and  C_4
REMARK    2  A    between atoms: N_8  and  C_9
REMARK    3  A    between atoms: C_9  and  C_10
REMARK    4  A    between atoms: C_14  and  C_15
REMARK                            x       y       z     vdW  Elec       q    Type
REMARK                         _______ _______ _______ _____ _____    ______ ____
ROOT
ATOM      1  C   UNL     1      48.251   4.577  17.861  0.00  0.00    +0.000 A 
ATOM      2  C   UNL     1      48.608   5.667  17.074  0.00  0.00    +0.000 A 
ATOM      3  C   UNL     1      48.189   5.715  15.741  0.00  0.00    +0.000 A 
ATOM      4  C   UNL     1      47.431   4.673  15.220  0.00  0.00    +0.000 A 
ATOM      5  N   UNL     1      47.061   4.589  13.875  0.00  0.00    +0.000 N 
ATOM      6  N   UNL     1      47.079   3.610  15.976  0.00  0.00    +0.000 NA
ATOM      7  C   UNL     1      47.494   3.579  17.268  0.00  0.00    +0.000 A 
ATOM      8  H   UNL     1      46.479   3.756  13.803  0.00  0.00    +0.000 HD
ENDROOT
BRANCH   1  10
ATOM      9  N   UNL     1      48.344   3.257  19.901  0.00  0.00    +0.000 N 
ATOM     10  C   UNL     1      48.674   4.423  19.265  0.00  0.00    +0.000 C 
ATOM     11  O   UNL     1      49.317   5.293  19.839  0.00  0.00    +0.000 OA
ATOM     12  H   UNL     1      48.714   3.132  20.835  0.00  0.00    +0.000 HD
ATOM     13  H   UNL     1      48.035   2.433  19.409  0.00  0.00    +0.000 HD
ENDBRANCH   1  10
BRANCH   5  14
ATOM     14  C   UNL     1      46.671   5.733  13.038  0.00  0.00    +0.000 C 
ATOM     15  C   UNL     1      47.841   6.502  12.433  0.00  0.00    +0.000 C 
ATOM     16  C   UNL     1      46.950   7.175  13.422  0.00  0.00    +0.000 C 
BRANCH  14  17
ATOM     17  C   UNL     1      45.456   5.461  12.158  0.00  0.00    +0.000 A 
ATOM     18  C   UNL     1      44.208   6.044  12.418  0.00  0.00    +0.000 A 
ATOM     19  C   UNL     1      43.138   5.769  11.585  0.00  0.00    +0.000 A 
ATOM     20  N   UNL     1      43.214   4.963  10.507  0.00  0.00    +0.000 NA
ATOM     21  C   UNL     1      44.422   4.400  10.228  0.00  0.00    +0.000 A 
ATOM     22  C   UNL     1      45.542   4.631  11.032  0.00  0.00    +0.000 A 
BRANCH  21  23
ATOM     23  C   UNL     1      44.572   3.490   9.015  0.00  0.00    +0.000 C 
ATOM     24  F   UNL     1      43.980   2.270   9.143  0.00  0.00    +0.000 F 
ATOM     25  F   UNL     1      44.046   4.041   7.882  0.00  0.00    +0.000 F 
ATOM     26  F   UNL     1      45.881   3.237   8.716  0.00  0.00    +0.000 F 
ENDBRANCH  21  23
ENDBRANCH  14  17
ENDBRANCH   5  14
TORSDOF 4
ENDMDL
MODEL 6
REMARK VINA RESULT:    -6.103      3.611      5.472
REMARK INTER + INTRA:          -8.337
REMARK INTER:                  -8.129
REMARK INTRA:                  -0.208
REMARK UNBOUND:                -0.806
REMARK  Name = 
REMARK  4 active torsions:
REMARK  status: ('A' for Active; 'I' for Inactive)
REMARK    1  A    between atoms: C_2  and  C_4
REMARK    2  A    between atoms: N_8  and  C_9
REMARK    3  A    between atoms: C_9  and  C_10
REMARK    4  A    between atoms: C_14  and  C_15
REMARK                            x       y       z     vdW  Elec       q    Type
REMARK                         _______ _______ _______ _____ _____    ______ ____
ROOT
ATOM      1  C   UNL     1      44.783   5.121  11.008  0.00  0.00    +0.000 A 
ATOM      2  C   UNL     1      45.953   5.748  10.589  0.00  0.00    +0.000 A 
ATOM      3  C   UNL     1      46.608   6.626  11.458  0.00  0.00    +0.000 A 
ATOM      4  C   UNL     1      46.078   6.867  12.721  0.00  0.00    +0.000 A 
ATOM      5  N   UNL     1      46.607   7.808  13.609  0.00  0.00    +0.000 N 
ATOM      6  N   UNL     1      44.943   6.265  13.136  0.00  0.00    +0.000 NA
ATOM      7  C   UNL     1      44.319   5.416  12.280  0.00  0.00    +0.000 A 
ATOM      8  H   UNL     1      46.047   7.727  14.457  0.00  0.00    +0.000 HD
ENDROOT
BRANCH   1  10
ATOM      9  N   UNL     1      44.094   4.382   8.797  0.00  0.00    +0.000 N 
ATOM     10  C   UNL     1      44.006   4.207  10.151  0.00  0.00    +0.000 C 
ATOM     11  O   UNL     1      43.323   3.309  10.626  0.00  0.00    +0.000 OA
ATOM     12  H   UNL     1      43.623   3.695   8.221  0.00  0.00    +0.000 HD
ATOM     13  H   UNL     1      44.814   4.939   8.362  0.00  0.00    +0.000 HD
ENDBRANCH   1  10
BRANCH   5  14
ATOM     14  C   UNL     1      48.041   8.074  13.794  0.00  0.00    +0.000 C 
ATOM     15  C   UNL     1      48.414   9.552  13.801  0.00  0.00    +0.000 C 
ATOM     16  C   UNL     1      48.921   8.670  12.711  0.00  0.00    +0.000 C 
BRANCH  14  17
ATOM     17  C   UNL     1      48.706   7.159  14.817  0.00  0.00    +0.000 A 
ATOM     18  C   UNL     1      49.989   7.418  15.320  0.00  0.00    +0.000 A 
ATOM     19  C   UNL     1      50.545   6.559  16.251  0.00  0.00    +0.000 A 
ATOM     20  N   UNL     1      49.921   5.463  16.727  0.00  0.00    +0.000 NA
ATOM     21  C   UNL     1      48.667   5.203  16.264  0.00  0.00    +0.000 A 
ATOM     22  C   UNL     1      48.049   6.026  15.317  0.00  0.00    +0.000 A 
BRANCH  21  23
ATOM     23  C   UNL     1      47.908   3.985  16.774  0.00  0.00    +0.000 C 
ATOM     24  F   UNL     1      47.511   3.114  15.805  0.00  0.00    +0.000 F 
ATOM     25  F   UNL     1      48.642   3.247  17.659  0.00  0.00    +0.000 F 
ATOM     26  F   UNL     1      46.772   4.330  17.452  0.00  0.00    +0.000 F 
ENDBRANCH  21  23
ENDBRANCH  14  17
ENDBRANCH   5  14
TORSDOF 4
ENDMDL
MODEL 7
REMARK VINA RESULT:    -5.869      3.849      6.532
REMARK INTER + INTRA:          -8.048
REMARK INTER:                  -7.300
REMARK INTRA:                  -0.748
REMARK UNBOUND:                -0.806
REMARK  Name = 
REMARK  4 active torsions:
REMARK  status: ('A' for Active; 'I' for Inactive)
REMARK    1  A    between atoms: C_2  and  C_4
REMARK    2  A    between atoms: N_8  and  C_9
REMARK    3  A    between atoms: C_9  and  C_10
REMARK    4  A    between atoms: C_14  and  C_15
REMARK                            x       y       z     vdW  Elec       q    Type
REMARK                         _______ _______ _______ _____ _____    ______ ____
ROOT
ATOM      1  C   UNL     1      48.705   9.536  11.737  0.00  0.00    +0.000 A 
ATOM      2  C   UNL     1      49.153   8.218  11.731  0.00  0.00    +0.000 A 
ATOM      3  C   UNL     1      48.370   7.226  12.329  0.00  0.00    +0.000 A 
ATOM      4  C   UNL     1      47.163   7.570  12.928  0.00  0.00    +0.000 A 
ATOM      5  N   UNL     1      46.372   6.663  13.639  0.00  0.00    +0.000 N 
ATOM      6  N   UNL     1      46.720   8.846  12.940  0.00  0.00    +0.000 NA
ATOM      7  C   UNL     1      47.493   9.797  12.355  0.00  0.00    +0.000 A 
ATOM      8  H   UNL     1      45.541   7.185  13.915  0.00  0.00    +0.000 HD
ENDROOT
BRANCH   1  10
ATOM      9  N   UNL     1      48.817  11.516  10.330  0.00  0.00    +0.000 N 
ATOM     10  C   UNL     1      49.477  10.652  11.162  0.00  0.00    +0.000 C 
ATOM     11  O   UNL     1      50.660  10.819  11.432  0.00  0.00    +0.000 OA
ATOM     12  H   UNL     1      49.338  12.323  10.011  0.00  0.00    +0.000 HD
ATOM     13  H   UNL     1      47.810  11.558  10.272  0.00  0.00    +0.000 HD
ENDBRANCH   1  10
BRANCH   5  14
ATOM     14  C   UNL     1      46.169   5.255  13.269  0.00  0.00    +0.000 C 
ATOM     15  C   UNL     1      46.048   4.301  14.452  0.00  0.00    +0.000 C 
ATOM     16  C   UNL     1      47.205   4.174  13.520  0.00  0.00    +0.000 C 
BRANCH  14  17
ATOM     17  C   UNL     1      45.222   5.063  12.089  0.00  0.00    +0.000 A 
ATOM     18  C   UNL     1      43.889   5.494  12.132  0.00  0.00    +0.000 A 
ATOM     19  C   UNL     1      43.072   5.301  11.032  0.00  0.00    +0.000 A 
ATOM     20  N   UNL     1      43.481   4.718   9.887  0.00  0.00    +0.000 NA
ATOM     21  C   UNL     1      44.778   4.308   9.820  0.00  0.00    +0.000 A 
ATOM     22  C   UNL     1      45.654   4.466  10.897  0.00  0.00    +0.000 A 
BRANCH  21  23
ATOM     23  C   UNL     1      45.300   3.652   8.547  0.00  0.00    +0.000 C 
ATOM     24  F   UNL     1      46.342   4.303   7.958  0.00  0.00    +0.000 F 
ATOM     25  F   UNL     1      45.731   2.374   8.759  0.00  0.00    +0.000 F 
ATOM     26  F   UNL     1      44.335   3.549   7.585  0.00  0.00    +0.000 F 
ENDBRANCH  21  23
ENDBRANCH  14  17
ENDBRANCH   5  14
TORSDOF 4
ENDMDL
