MODEL 1
REMARK VINA RESULT:    -8.926      0.000      0.000
REMARK INTER + INTRA:         -11.625
REMARK INTER:                 -11.014
REMARK INTRA:                  -0.612
REMARK UNBOUND:                -0.612
REMARK  Name = 
REMARK  4 active torsions:
REMARK  status: ('A' for Active; 'I' for Inactive)
REMARK    1  A    between atoms: C_2  and  C_4
REMARK    2  A    between atoms: N_8  and  C_9
REMARK    3  A    between atoms: C_9  and  C_10
REMARK    4  A    between atoms: C_14  and  C_15
REMARK                            x       y       z     vdW  Elec       q    Type
REMARK                         _______ _______ _______ _____ _____    ______ ____
ROOT
ATOM      1  C   UNL     1      43.484   3.676  11.110  0.00  0.00    +0.000 C 
ENDROOT
BRANCH   1   6
ATOM      2  C   UNL     1      46.633   2.476   7.203  0.00  0.00    +0.000 A 
ATOM      3  C   UNL     1      46.007   3.676   7.523  0.00  0.00    +0.000 A 
ATOM      4  C   UNL     1      45.171   3.727   8.637  0.00  0.00    +0.000 A 
ATOM      5  C   UNL     1      44.970   2.588   9.408  0.00  0.00    +0.000 A 
ATOM      6  N   UNL     1      44.183   2.559  10.525  0.00  0.00    +0.000 N 
ATOM      7  N   UNL     1      45.547   1.412   9.087  0.00  0.00    +0.000 NA
ATOM      8  C   UNL     1      46.354   1.373   7.994  0.00  0.00    +0.000 A 
ATOM      9  H   UNL     1      44.108   1.646  10.955  0.00  0.00    +0.000 HD
BRANCH   2  11
ATOM     10  N   UNL     1      47.477   3.297   5.083  0.00  0.00    +0.000 N 
ATOM     11  C   UNL     1      47.560   2.343   6.061  0.00  0.00    +0.000 C 
ATOM     12  O   UNL     1      48.386   1.443   6.006  0.00  0.00    +0.000 OA
ATOM     13  H   UNL     1      48.179   3.260   4.356  0.00  0.00    +0.000 HD
ATOM     14  H   UNL     1      46.990   4.172   5.217  0.00  0.00    +0.000 HD
ENDBRANCH   2  11
ENDBRANCH   1   6
BRANCH   1  15
ATOM     15  C   UNL     1      44.393   4.724  11.720  0.00  0.00    +0.000 A 
ATOM     16  C   UNL     1      44.317   6.035  11.231  0.00  0.00    +0.000 A 
ATOM     17  C   UNL     1      45.121   7.038  11.766  0.00  0.00    +0.000 A 
ATOM     18  C   UNL     1      46.005   6.747  12.807  0.00  0.00    +0.000 A 
ATOM     19  C   UNL     1      46.104   5.451  13.340  0.00  0.00    +0.000 A 
ATOM     20  C   UNL     1      45.298   4.451  12.763  0.00  0.00    +0.000 A 
BRANCH  19  21
ATOM     21  C   UNL     1      46.993   5.154  14.485  0.00  0.00    +0.000 A 
ATOM     22  C   UNL     1      48.036   6.016  14.852  0.00  0.00    +0.000 A 
ATOM     23  N   UNL     1      48.887   5.825  15.895  0.00  0.00    +0.000 NA
ATOM     24  C   UNL     1      48.683   4.714  16.634  0.00  0.00    +0.000 A 
ATOM     25  C   UNL     1      47.680   3.800  16.369  0.00  0.00    +0.000 A 
ATOM     26  F   UNL     1      47.525   2.718  17.143  0.00  0.00    +0.000 F 
ATOM     27  C   UNL     1      46.833   4.016  15.289  0.00  0.00    +0.000 A 
ENDBRANCH  19  21
ENDBRANCH   1  15
TORSDOF 4
ENDMDL
MODEL 2
REMARK VINA RESULT:    -7.914      3.275      4.249
REMARK INTER + INTRA:         -10.376
REMARK INTER:                  -9.739
REMARK INTRA:                  -0.637
REMARK UNBOUND:                -0.612
REMARK  Name = 
REMARK  4 active torsions:
REMARK  status: ('A' for Active; 'I' for Inactive)
REMARK    1  A    between atoms: C_2  and  C_4
REMARK    2  A    between atoms: N_8  and  C_9
REMARK    3  A    between atoms: C_9  and  C_10
REMARK    4  A    between atoms: C_14  and  C_15
REMARK                            x       y       z     vdW  Elec       q    Type
REMARK                         _______ _______ _______ _____ _____    ______ ____
ROOT
ATOM      1  C   UNL     1      43.772   5.272  11.068  0.00  0.00    +0.000 C 
ENDROOT
BRANCH   1   6
ATOM      2  C   UNL     1      46.439   2.455   7.667  0.00  0.00    +0.000 A 
ATOM      3  C   UNL     1      46.356   3.833   7.831  0.00  0.00    +0.000 A 
ATOM      4  C   UNL     1      45.529   4.348   8.826  0.00  0.00    +0.000 A 
ATOM      5  C   UNL     1      44.797   3.486   9.636  0.00  0.00    +0.000 A 
ATOM      6  N   UNL     1      43.978   3.909  10.645  0.00  0.00    +0.000 N 
ATOM      7  N   UNL     1      44.845   2.150   9.463  0.00  0.00    +0.000 NA
ATOM      8  C   UNL     1      45.651   1.660   8.483  0.00  0.00    +0.000 A 
ATOM      9  H   UNL     1      43.485   3.162  11.119  0.00  0.00    +0.000 HD
BRANCH   2  11
ATOM     10  N   UNL     1      48.390   2.558   6.230  0.00  0.00    +0.000 N 
ATOM     11  C   UNL     1      47.317   1.825   6.659  0.00  0.00    +0.000 C 
ATOM     12  O   UNL     1      47.116   0.689   6.252  0.00  0.00    +0.000 OA
ATOM     13  H   UNL     1      49.043   2.087   5.617  0.00  0.00    +0.000 HD
ATOM     14  H   UNL     1      48.718   3.379   6.718  0.00  0.00    +0.000 HD
ENDBRANCH   2  11
ENDBRANCH   1   6
BRANCH   1  15
ATOM     15  C   UNL     1      44.927   5.856  11.855  0.00  0.00    +0.000 A 
ATOM     16  C   UNL     1      45.518   5.068  12.852  0.00  0.00    +0.000 A 
ATOM     17  C   UNL     1      46.592   5.552  13.594  0.00  0.00    +0.000 A 
ATOM     18  C   UNL     1      47.099   6.828  13.342  0.00  0.00    +0.000 A 
ATOM     19  C   UNL     1      46.549   7.649  12.342  0.00  0.00    +0.000 A 
ATOM     20  C   UNL     1      45.449   7.143  11.625  0.00  0.00    +0.000 A 
BRANCH  19  21
ATOM     21  C   UNL     1      47.125   8.976  12.031  0.00  0.00    +0.000 A 
ATOM     22  C   UNL     1      46.328  10.127  11.957  0.00  0.00    +0.000 A 
ATOM     23  N   UNL     1      46.778  11.381  11.691  0.00  0.00    +0.000 NA
ATOM     24  C   UNL     1      48.108  11.509  11.499  0.00  0.00    +0.000 A 
ATOM     25  C   UNL     1      48.989  10.444  11.557  0.00  0.00    +0.000 A 
ATOM     26  F   UNL     1      50.300  10.635  11.363  0.00  0.00    +0.000 F 
ATOM     27  C   UNL     1      48.498   9.171  11.820  0.00  0.00    +0.000 A 
ENDBRANCH  19  21
ENDBRANCH   1  15
TORSDOF 4
ENDMDL
MODEL 3
REMARK VINA RESULT:    -7.868      3.797      7.228
REMARK INTER + INTRA:         -10.319
REMARK INTER:                  -9.589
REMARK INTRA:                  -0.730
REMARK UNBOUND:                -0.612
REMARK  Name = 
REMARK  4 active torsions:
REMARK  status: ('A' for Active; 'I' for Inactive)
REMARK    1  A    between atoms: C_2  and  C_4
REMARK    2  A    between atoms: N_8  and  C_9
REMARK    3  A    between atoms: C_9  and  C_10
REMARK    4  A    between atoms: C_14  and  C_15
REMARK                            x       y       z     vdW  Elec       q    Type
REMARK                         _______ _______ _______ _____ _____    ______ ____
ROOT
ATOM      1  C   UNL     1      44.777   6.035  12.899  0.00  0.00    +0.000 C 
ENDROOT
BRANCH   1   6
ATOM      2  C   UNL     1      49.623   7.776  12.575  0.00  0.00    +0.000 A 
ATOM      3  C   UNL     1      48.570   7.861  11.671  0.00  0.00    +0.000 A 
ATOM      4  C   UNL     1      47.349   7.275  11.997  0.00  0.00    +0.000 A 
ATOM      5  C   UNL     1      47.198   6.612  13.210  0.00  0.00    +0.000 A 
ATOM      6  N   UNL     1      46.030   6.028  13.613  0.00  0.00    +0.000 N 
ATOM      7  N   UNL     1      48.222   6.495  14.078  0.00  0.00    +0.000 NA
ATOM      8  C   UNL     1      49.411   7.066  13.746  0.00  0.00    +0.000 A 
ATOM      9  H   UNL     1      46.090   5.553  14.504  0.00  0.00    +0.000 HD
BRANCH   2  11
ATOM     10  N   UNL     1      51.777   7.744  11.462  0.00  0.00    +0.000 N 
ATOM     11  C   UNL     1      50.939   8.398  12.324  0.00  0.00    +0.000 C 
ATOM     12  O   UNL     1      51.253   9.464  12.834  0.00  0.00    +0.000 OA
ATOM     13  H   UNL     1      52.633   8.222  11.215  0.00  0.00    +0.000 HD
ATOM     14  H   UNL     1      51.459   7.010  10.845  0.00  0.00    +0.000 HD
ENDBRANCH   2  11
ENDBRANCH   1   6
BRANCH   1  15
ATOM     15  C   UNL     1      44.515   4.776  12.098  0.00  0.00    +0.000 A 
ATOM     16  C   UNL     1      43.545   3.880  12.567  0.00  0.00    +0.000 A 
ATOM     17  C   UNL     1      43.255   2.716  11.860  0.00  0.00    +0.000 A 
ATOM     18  C   UNL     1      43.925   2.435  10.668  0.00  0.00    +0.000 A 
ATOM     19  C   UNL     1      44.894   3.312  10.150  0.00  0.00    +0.000 A 
ATOM     20  C   UNL     1      45.183   4.469  10.898  0.00  0.00    +0.000 A 
BRANCH  19  21
ATOM     21  C   UNL     1      45.558   3.049   8.854  0.00  0.00    +0.000 A 
ATOM     22  C   UNL     1      45.837   4.079   7.945  0.00  0.00    +0.000 A 
ATOM     23  N   UNL     1      46.453   3.926   6.745  0.00  0.00    +0.000 NA
ATOM     24  C   UNL     1      46.834   2.670   6.427  0.00  0.00    +0.000 A 
ATOM     25  C   UNL     1      46.618   1.581   7.249  0.00  0.00    +0.000 A 
ATOM     26  F   UNL     1      47.023   0.359   6.880  0.00  0.00    +0.000 F 
ATOM     27  C   UNL     1      45.974   1.767   8.467  0.00  0.00    +0.000 A 
ENDBRANCH  19  21
ENDBRANCH   1  15
TORSDOF 4
ENDMDL
MODEL 4
REMARK VINA RESULT:    -7.379      3.944      7.763
REMARK INTER + INTRA:          -9.716
REMARK INTER:                  -9.007
REMARK INTRA:                  -0.710
REMARK UNBOUND:                -0.612
REMARK  Name = 
REMARK  4 active torsions:
REMARK  status: ('A' for Active; 'I' for Inactive)
REMARK    1  A    between atoms: C_2  and  C_4
REMARK    2  A    between atoms: N_8  and  C_9
REMARK    3  A    between atoms: C_9  and  C_10
REMARK    4  A    between atoms: C_14  and  C_15
REMARK                            x       y       z     vdW  Elec       q    Type
REMARK                         _______ _______ _______ _____ _____    ______ ____
ROOT
ATOM      1  C   UNL     1      44.534   6.549  11.429  0.00  0.00    +0.000 C 
ENDROOT
BRANCH   1   6
ATOM      2  C   UNL     1      49.054   7.297  13.802  0.00  0.00    +0.000 A 
ATOM      3  C   UNL     1      47.870   6.738  14.270  0.00  0.00    +0.000 A 
ATOM      4  C   UNL     1      46.768   6.677  13.419  0.00  0.00    +0.000 A 
ATOM      5  C   UNL     1      46.861   7.175  12.125  0.00  0.00    +0.000 A 
ATOM      6  N   UNL     1      45.835   7.136  11.223  0.00  0.00    +0.000 N 
ATOM      7  N   UNL     1      47.995   7.748  11.673  0.00  0.00    +0.000 NA
ATOM      8  C   UNL     1      49.061   7.809  12.515  0.00  0.00    +0.000 A 
ATOM      9  H   UNL     1      46.047   7.572  10.335  0.00  0.00    +0.000 HD
BRANCH   2  11
ATOM     10  N   UNL     1      51.190   8.335  14.294  0.00  0.00    +0.000 N 
ATOM     11  C   UNL     1      50.278   7.371  14.626  0.00  0.00    +0.000 C 
ATOM     12  O   UNL     1      50.454   6.628  15.582  0.00  0.00    +0.000 OA
ATOM     13  H   UNL     1      51.976   8.448  14.920  0.00  0.00    +0.000 HD
ATOM     14  H   UNL     1      50.966   9.108  13.682  0.00  0.00    +0.000 HD
ENDBRANCH   2  11
ENDBRANCH   1   6
BRANCH   1  15
ATOM     15  C   UNL     1      44.433   5.101  10.994  0.00  0.00    +0.000 A 
ATOM     16  C   UNL     1      43.540   4.263  11.675  0.00  0.00    +0.000 A 
ATOM     17  C   UNL     1      43.398   2.928  11.305  0.00  0.00    +0.000 A 
ATOM     18  C   UNL     1      44.140   2.414  10.241  0.00  0.00    +0.000 A 
ATOM     19  C   UNL     1      45.036   3.220   9.517  0.00  0.00    +0.000 A 
ATOM     20  C   UNL     1      45.177   4.559   9.929  0.00  0.00    +0.000 A 
BRANCH  19  21
ATOM     21  C   UNL     1      45.776   2.694   8.348  0.00  0.00    +0.000 A 
ATOM     22  C   UNL     1      46.234   1.370   8.300  0.00  0.00    +0.000 A 
ATOM     23  N   UNL     1      46.906   0.806   7.262  0.00  0.00    +0.000 NA
ATOM     24  C   UNL     1      47.128   1.601   6.194  0.00  0.00    +0.000 A 
ATOM     25  C   UNL     1      46.713   2.918   6.129  0.00  0.00    +0.000 A 
ATOM     26  F   UNL     1      46.958   3.656   5.038  0.00  0.00    +0.000 F 
ATOM     27  C   UNL     1      46.037   3.471   7.211  0.00  0.00    +0.000 A 
ENDBRANCH  19  21
ENDBRANCH   1  15
TORSDOF 4
ENDMDL
MODEL 5
REMARK VINA RESULT:    -7.173      3.727      7.873
REMARK INTER + INTRA:          -9.462
REMARK INTER:                  -9.387
REMARK INTRA:                  -0.076
REMARK UNBOUND:                -0.612
REMARK  Name = 
REMARK  4 active torsions:
REMARK  status: ('A' for Active; 'I' for Inactive)
REMARK    1  A    between atoms: C_2  and  C_4
REMARK    2  A    between atoms: N_8  and  C_9
REMARK    3  A    between atoms: C_9  and  C_10
REMARK    4  A    between atoms: C_14  and  C_15
REMARK                            x       y       z     vdW  Elec       q    Type
REMARK                         _______ _______ _______ _____ _____    ______ ____
ROOT
ATOM      1  C   UNL     1      48.661   7.850  12.661  0.00  0.00    +0.000 C 
ENDROOT
BRANCH   1   6
ATOM      2  C   UNL     1      47.737   4.640  16.592  0.00  0.00    +0.000 A 
ATOM      3  C   UNL     1      47.353   4.568  15.258  0.00  0.00    +0.000 A 
ATOM      4  C   UNL     1      47.717   5.597  14.392  0.00  0.00    +0.000 A 
ATOM      5  C   UNL     1      48.450   6.678  14.868  0.00  0.00    +0.000 A 
ATOM      6  N   UNL     1      48.863   7.717  14.082  0.00  0.00    +0.000 N 
ATOM      7  N   UNL     1      48.799   6.773  16.167  0.00  0.00    +0.000 NA
ATOM      8  C   UNL     1      48.432   5.766  17.003  0.00  0.00    +0.000 A 
ATOM      9  H   UNL     1      49.355   8.446  14.584  0.00  0.00    +0.000 HD
BRANCH   2  11
ATOM     10  N   UNL     1      48.279   3.434  18.625  0.00  0.00    +0.000 N 
ATOM     11  C   UNL     1      47.422   3.577  17.569  0.00  0.00    +0.000 C 
ATOM     12  O   UNL     1      46.423   2.880  17.458  0.00  0.00    +0.000 OA
ATOM     13  H   UNL     1      48.006   2.775  19.342  0.00  0.00    +0.000 HD
ATOM     14  H   UNL     1      48.958   4.140  18.874  0.00  0.00    +0.000 HD
ENDBRANCH   2  11
ENDBRANCH   1   6
BRANCH   1  15
ATOM     15  C   UNL     1      47.241   7.577  12.210  0.00  0.00    +0.000 A 
ATOM     16  C   UNL     1      46.261   8.542  12.481  0.00  0.00    +0.000 A 
ATOM     17  C   UNL     1      44.943   8.347  12.076  0.00  0.00    +0.000 A 
ATOM     18  C   UNL     1      44.588   7.187  11.384  0.00  0.00    +0.000 A 
ATOM     19  C   UNL     1      45.538   6.199  11.077  0.00  0.00    +0.000 A 
ATOM     20  C   UNL     1      46.858   6.412  11.520  0.00  0.00    +0.000 A 
BRANCH  19  21
ATOM     21  C   UNL     1      45.177   5.000  10.288  0.00  0.00    +0.000 A 
ATOM     22  C   UNL     1      44.353   3.993  10.812  0.00  0.00    +0.000 A 
ATOM     23  N   UNL     1      43.964   2.871  10.152  0.00  0.00    +0.000 NA
ATOM     24  C   UNL     1      44.407   2.742   8.883  0.00  0.00    +0.000 A 
ATOM     25  C   UNL     1      45.216   3.676   8.264  0.00  0.00    +0.000 A 
ATOM     26  F   UNL     1      45.620   3.494   6.999  0.00  0.00    +0.000 F 
ATOM     27  C   UNL     1      45.608   4.809   8.967  0.00  0.00    +0.000 A 
ENDBRANCH  19  21
ENDBRANCH   1  15
TORSDOF 4
ENDMDL
MODEL 6
REMARK VINA RESULT:    -6.953      4.304      8.576
REMARK INTER + INTRA:          -9.190
REMARK INTER:                  -8.522
REMARK INTRA:                  -0.668
REMARK UNBOUND:                -0.612
REMARK  Name = 
REMARK  4 active torsions:
REMARK  status: ('A' for Active; 'I' for Inactive)
REMARK    1  A    between atoms: C_2  and  C_4
REMARK    2  A    between atoms: N_8  and  C_9
REMARK    3  A    between atoms: C_9  and  C_10
REMARK    4  A    between atoms: C_14  and  C_15
REMARK                            x       y       z     vdW  Elec       q    Type
REMARK                         _______ _______ _______ _____ _____    ______ ____
ROOT
ATOM      1  C   UNL     1      47.769   3.888  17.053  0.00  0.00    +0.000 C 
ENDROOT
BRANCH   1   6
ATOM      2  C   UNL     1      52.580   2.245  17.933  0.00  0.00    +0.000 A 
ATOM      3  C   UNL     1      52.004   3.497  18.119  0.00  0.00    +0.000 A 
ATOM      4  C   UNL     1      50.669   3.687  17.772  0.00  0.00    +0.000 A 
ATOM      5  C   UNL     1      49.932   2.633  17.243  0.00  0.00    +0.000 A 
ATOM      6  N   UNL     1      48.614   2.730  16.895  0.00  0.00    +0.000 N 
ATOM      7  N   UNL     1      50.490   1.425  17.028  0.00  0.00    +0.000 NA
ATOM      8  C   UNL     1      51.796   1.254  17.365  0.00  0.00    +0.000 A 
ATOM      9  H   UNL     1      48.229   1.887  16.490  0.00  0.00    +0.000 HD
BRANCH   2  11
ATOM     10  N   UNL     1      54.249   1.824  19.641  0.00  0.00    +0.000 N 
ATOM     11  C   UNL     1      53.978   1.949  18.306  0.00  0.00    +0.000 C 
ATOM     12  O   UNL     1      54.847   1.789  17.460  0.00  0.00    +0.000 OA
ATOM     13  H   UNL     1      55.183   1.523  19.886  0.00  0.00    +0.000 HD
ATOM     14  H   UNL     1      53.524   1.705  20.335  0.00  0.00    +0.000 HD
ENDBRANCH   2  11
ENDBRANCH   1   6
BRANCH   1  15
ATOM     15  C   UNL     1      47.608   4.712  15.792  0.00  0.00    +0.000 A 
ATOM     16  C   UNL     1      48.424   5.839  15.625  0.00  0.00    +0.000 A 
ATOM     17  C   UNL     1      48.327   6.621  14.478  0.00  0.00    +0.000 A 
ATOM     18  C   UNL     1      47.418   6.282  13.474  0.00  0.00    +0.000 A 
ATOM     19  C   UNL     1      46.590   5.152  13.589  0.00  0.00    +0.000 A 
ATOM     20  C   UNL     1      46.692   4.394  14.770  0.00  0.00    +0.000 A 
BRANCH  19  21
ATOM     21  C   UNL     1      45.672   4.754  12.498  0.00  0.00    +0.000 A 
ATOM     22  C   UNL     1      45.680   5.401  11.254  0.00  0.00    +0.000 A 
ATOM     23  N   UNL     1      44.883   5.090  10.199  0.00  0.00    +0.000 NA
ATOM     24  C   UNL     1      44.030   4.060  10.381  0.00  0.00    +0.000 A 
ATOM     25  C   UNL     1      43.943   3.345  11.561  0.00  0.00    +0.000 A 
ATOM     26  F   UNL     1      43.079   2.329  11.678  0.00  0.00    +0.000 F 
ATOM     27  C   UNL     1      44.763   3.694  12.627  0.00  0.00    +0.000 A 
ENDBRANCH  19  21
ENDBRANCH   1  15
TORSDOF 4
ENDMDL
MODEL 7
REMARK VINA RESULT:    -6.838      4.209      7.667
REMARK INTER + INTRA:          -9.048
REMARK INTER:                  -8.463
REMARK INTRA:                  -0.585
REMARK UNBOUND:                -0.612
REMARK  Name = 
REMARK  4 active torsions:
REMARK  status: ('A' for Active; 'I' for Inactive)
REMARK    1  A    between atoms: C_2  and  C_4
REMARK    2  A    between atoms: N_8  and  C_9
REMARK    3  A    between atoms: C_9  and  C_10
REMARK    4  A    between atoms: C_14  and  C_15
REMARK                            x       y       z     vdW  Elec       q    Type
REMARK                         _______ _______ _______ _____ _____    ______ ____
ROOT
ATOM      1  C   UNL     1      45.705   7.863  11.993  0.00  0.00    +0.000 C 
ENDROOT
BRANCH   1   6
ATOM      2  C   UNL     1      50.761   8.460  12.832  0.00  0.00    +0.000 A 
ATOM      3  C   UNL     1      49.980   8.806  11.735  0.00  0.00    +0.000 A 
ATOM      4  C   UNL     1      48.620   8.505  11.750  0.00  0.00    +0.000 A 
ATOM      5  C   UNL     1      48.062   7.864  12.850  0.00  0.00    +0.000 A 
ATOM      6  N   UNL     1      46.736   7.552  12.952  0.00  0.00    +0.000 N 
ATOM      7  N   UNL     1      48.817   7.496  13.905  0.00  0.00    +0.000 NA
ATOM      8  C   UNL     1      50.144   7.788  13.875  0.00  0.00    +0.000 A 
ATOM      9  H   UNL     1      46.491   7.053  13.798  0.00  0.00    +0.000 HD
BRANCH   2  11
ATOM     10  N   UNL     1      53.065   7.709  12.923  0.00  0.00    +0.000 N 
ATOM     11  C   UNL     1      52.203   8.772  12.912  0.00  0.00    +0.000 C 
ATOM     12  O   UNL     1      52.610   9.925  12.931  0.00  0.00    +0.000 OA
ATOM     13  H   UNL     1      54.051   7.928  12.876  0.00  0.00    +0.000 HD
ATOM     14  H   UNL     1      52.781   6.775  12.662  0.00  0.00    +0.000 HD
ENDBRANCH   2  11
ENDBRANCH   1   6
BRANCH   1  15
ATOM     15  C   UNL     1      44.950   6.652  11.484  0.00  0.00    +0.000 A 
ATOM     16  C   UNL     1      43.623   6.474  11.898  0.00  0.00    +0.000 A 
ATOM     17  C   UNL     1      42.879   5.387  11.447  0.00  0.00    +0.000 A 
ATOM     18  C   UNL     1      43.449   4.464  10.568  0.00  0.00    +0.000 A 
ATOM     19  C   UNL     1      44.771   4.609  10.113  0.00  0.00    +0.000 A 
ATOM     20  C   UNL     1      45.507   5.705  10.603  0.00  0.00    +0.000 A 
BRANCH  19  21
ATOM     21  C   UNL     1      45.356   3.670   9.131  0.00  0.00    +0.000 A 
ATOM     22  C   UNL     1      45.390   2.287   9.361  0.00  0.00    +0.000 A 
ATOM     23  N   UNL     1      45.894   1.358   8.509  0.00  0.00    +0.000 NA
ATOM     24  C   UNL     1      46.387   1.825   7.341  0.00  0.00    +0.000 A 
ATOM     25  C   UNL     1      46.397   3.166   7.005  0.00  0.00    +0.000 A 
ATOM     26  F   UNL     1      46.895   3.568   5.829  0.00  0.00    +0.000 F 
ATOM     27  C   UNL     1      45.884   4.095   7.903  0.00  0.00    +0.000 A 
ENDBRANCH  19  21
ENDBRANCH   1  15
TORSDOF 4
ENDMDL
MODEL 8
REMARK VINA RESULT:    -6.755      2.940      5.009
REMARK INTER + INTRA:          -8.947
REMARK INTER:                  -8.207
REMARK INTRA:                  -0.739
REMARK UNBOUND:                -0.612
REMARK  Name = 
REMARK  4 active torsions:
REMARK  status: ('A' for Active; 'I' for Inactive)
REMARK    1  A    between atoms: C_2  and  C_4
REMARK    2  A    between atoms: N_8  and  C_9
REMARK    3  A    between atoms: C_9  and  C_10
REMARK    4  A    between atoms: C_14  and  C_15
REMARK                            x       y       z     vdW  Elec       q    Type
REMARK                         _______ _______ _______ _____ _____    ______ ____
ROOT
ATOM      1  C   UNL     1      47.447   8.673  13.410  0.00  0.00    +0.000 C 
ENDROOT
BRANCH   1   6
ATOM      2  C   UNL     1      44.680   5.126  10.883  0.00  0.00    +0.000 A 
ATOM      3  C   UNL     1      45.896   5.720  10.563  0.00  0.00    +0.000 A 
ATOM      4  C   UNL     1      46.423   6.686  11.418  0.00  0.00    +0.000 A 
ATOM      5  C   UNL     1      45.733   7.046  12.569  0.00  0.00    +0.000 A 
ATOM      6  N   UNL     1      46.190   7.969  13.468  0.00  0.00    +0.000 N 
ATOM      7  N   UNL     1      44.538   6.500  12.871  0.00  0.00    +0.000 NA
ATOM      8  C   UNL     1      44.030   5.564  12.026  0.00  0.00    +0.000 A 
ATOM      9  H   UNL     1      45.556   8.149  14.236  0.00  0.00    +0.000 HD
BRANCH   2  11
ATOM     10  N   UNL     1      44.062   4.276   8.698  0.00  0.00    +0.000 N 
ATOM     11  C   UNL     1      44.067   4.071  10.051  0.00  0.00    +0.000 C 
ATOM     12  O   UNL     1      43.616   3.046  10.543  0.00  0.00    +0.000 OA
ATOM     13  H   UNL     1      43.733   3.509   8.126  0.00  0.00    +0.000 HD
ATOM     14  H   UNL     1      44.636   4.978   8.252  0.00  0.00    +0.000 HD
ENDBRANCH   2  11
ENDBRANCH   1   6
BRANCH   1  15
ATOM     15  C   UNL     1      48.548   8.041  14.237  0.00  0.00    +0.000 A 
ATOM     16  C   UNL     1      49.853   8.531  14.091  0.00  0.00    +0.000 A 
ATOM     17  C   UNL     1      50.899   7.996  14.838  0.00  0.00    +0.000 A 
ATOM     18  C   UNL     1      50.653   6.969  15.751  0.00  0.00    +0.000 A 
ATOM     19  C   UNL     1      49.359   6.456  15.944  0.00  0.00    +0.000 A 
ATOM     20  C   UNL     1      48.325   7.000  15.157  0.00  0.00    +0.000 A 
BRANCH  19  21
ATOM     21  C   UNL     1      49.085   5.412  16.956  0.00  0.00    +0.000 A 
ATOM     22  C   UNL     1      49.749   5.390  18.191  0.00  0.00    +0.000 A 
ATOM     23  N   UNL     1      49.548   4.478  19.178  0.00  0.00    +0.000 NA
ATOM     24  C   UNL     1      48.616   3.533  18.934  0.00  0.00    +0.000 A 
ATOM     25  C   UNL     1      47.894   3.464  17.757  0.00  0.00    +0.000 A 
ATOM     26  F   UNL     1      46.978   2.504  17.576  0.00  0.00    +0.000 F 
ATOM     27  C   UNL     1      48.130   4.404  16.761  0.00  0.00    +0.000 A 
ENDBRANCH  19  21
ENDBRANCH   1  15
TORSDOF 4
ENDMDL
MODEL 9
REMARK VINA RESULT:    -6.590      3.187      4.744
REMARK INTER + INTRA:          -8.743
REMARK INTER:                  -8.021
REMARK INTRA:                  -0.722
REMARK UNBOUND:                -0.612
REMARK  Name = 
REMARK  4 active torsions:
REMARK  status: ('A' for Active; 'I' for Inactive)
REMARK    1  A    between atoms: C_2  and  C_4
REMARK    2  A    between atoms: N_8  and  C_9
REMARK    3  A    between atoms: C_9  and  C_10
REMARK    4  A    between atoms: C_14  and  C_15
REMARK                            x       y       z     vdW  Elec       q    Type
REMARK                         _______ _______ _______ _____ _____    ______ ____
ROOT
ATOM      1  C   UNL     1      45.781   8.934  12.345  0.00  0.00    +0.000 C 
ENDROOT
BRANCH   1   6
ATOM      2  C   UNL     1      44.111   4.135  11.447  0.00  0.00    +0.000 A 
ATOM      3  C   UNL     1      44.939   4.960  10.694  0.00  0.00    +0.000 A 
ATOM      4  C   UNL     1      45.219   6.244  11.156  0.00  0.00    +0.000 A 
ATOM      5  C   UNL     1      44.669   6.686  12.354  0.00  0.00    +0.000 A 
ATOM      6  N   UNL     1      44.909   7.921  12.886  0.00  0.00    +0.000 N 
ATOM      7  N   UNL     1      43.839   5.906  13.075  0.00  0.00    +0.000 NA
ATOM      8  C   UNL     1      43.568   4.658  12.610  0.00  0.00    +0.000 A 
ATOM      9  H   UNL     1      44.405   8.107  13.745  0.00  0.00    +0.000 HD
BRANCH   2  11
ATOM     10  N   UNL     1      44.492   2.234   9.991  0.00  0.00    +0.000 N 
ATOM     11  C   UNL     1      43.791   2.750  11.047  0.00  0.00    +0.000 C 
ATOM     12  O   UNL     1      42.963   2.082  11.651  0.00  0.00    +0.000 OA
ATOM     13  H   UNL     1      44.342   1.255   9.785  0.00  0.00    +0.000 HD
ATOM     14  H   UNL     1      45.338   2.661   9.639  0.00  0.00    +0.000 HD
ENDBRANCH   2  11
ENDBRANCH   1   6
BRANCH   1  15
ATOM     15  C   UNL     1      47.251   8.698  12.627  0.00  0.00    +0.000 A 
ATOM     16  C   UNL     1      48.194   9.292  11.777  0.00  0.00    +0.000 A 
ATOM     17  C   UNL     1      49.557   9.118  12.000  0.00  0.00    +0.000 A 
ATOM     18  C   UNL     1      49.998   8.356  13.084  0.00  0.00    +0.000 A 
ATOM     19  C   UNL     1      49.090   7.754  13.972  0.00  0.00    +0.000 A 
ATOM     20  C   UNL     1      47.718   7.927  13.708  0.00  0.00    +0.000 A 
BRANCH  19  21
ATOM     21  C   UNL     1      49.556   7.000  15.157  0.00  0.00    +0.000 A 
ATOM     22  C   UNL     1      50.883   7.073  15.603  0.00  0.00    +0.000 A 
ATOM     23  N   UNL     1      51.387   6.425  16.686  0.00  0.00    +0.000 NA
ATOM     24  C   UNL     1      50.515   5.667  17.385  0.00  0.00    +0.000 A 
ATOM     25  C   UNL     1      49.184   5.530  17.042  0.00  0.00    +0.000 A 
ATOM     26  F   UNL     1      48.367   4.765  17.778  0.00  0.00    +0.000 F 
ATOM     27  C   UNL     1      48.699   6.195  15.922  0.00  0.00    +0.000 A 
ENDBRANCH  19  21
ENDBRANCH   1  15
TORSDOF 4
ENDMDL
