MODEL 1
REMARK VINA RESULT:    -8.600      0.000      0.000
REMARK INTER + INTRA:         -12.497
REMARK INTER:                 -11.617
REMARK INTRA:                  -0.880
REMARK UNBOUND:                -0.880
REMARK  Name = 
REMARK  7 active torsions:
REMARK  status: ('A' for Active; 'I' for Inactive)
REMARK    1  A    between atoms: C_1  and  N_2
REMARK    2  A    between atoms: N_2  and  C_3
REMARK    3  A    between atoms: C_3  and  C_4
REMARK    4  A    between atoms: C_7  and  C_8
REMARK    5  A    between atoms: C_8  and  N_9
REMARK    6  A    between atoms: C_10  and  C_12
REMARK    7  A    between atoms: C_19  and  C_21
REMARK                            x       y       z     vdW  Elec       q    Type
REMARK                         _______ _______ _______ _____ _____    ______ ____
ROOT
ATOM      1  C   UNL     1      47.006   6.218  11.923  0.00  0.00    +0.000 C 
ENDROOT
BRANCH   1   2
ATOM      2  C   UNL     1      47.248   5.570  13.245  0.00  0.00    +0.000 A 
ATOM      3  C   UNL     1      47.870   6.255  14.264  0.00  0.00    +0.000 A 
ATOM      4  C   UNL     1      47.991   5.645  15.486  0.00  0.00    +0.000 A 
ATOM      5  C   UNL     1      47.467   4.379  15.704  0.00  0.00    +0.000 A 
ATOM      6  N   UNL     1      46.833   3.696  14.722  0.00  0.00    +0.000 NA
ATOM      7  C   UNL     1      46.747   4.304  13.521  0.00  0.00    +0.000 A 
BRANCH   5   8
ATOM      8  C   UNL     1      47.600   3.748  17.074  0.00  0.00    +0.000 C 
BRANCH   8   9
ATOM      9  N   UNL     1      48.996   3.472  17.474  0.00  0.00    +0.000 N 
ATOM     10  C   UNL     1      49.762   2.450  16.924  0.00  0.00    +0.000 C 
ATOM     11  O   UNL     1      49.278   1.727  16.059  0.00  0.00    +0.000 OA
ATOM     12  H   UNL     1      49.417   4.078  18.154  0.00  0.00    +0.000 HD
BRANCH  10  13
ATOM     13  C   UNL     1      51.124   2.268  17.460  0.00  0.00    +0.000 A 
ATOM     14  C   UNL     1      51.856   1.100  17.480  0.00  0.00    +0.000 A 
ATOM     15  C   UNL     1      53.130   1.221  18.077  0.00  0.00    +0.000 A 
ATOM     16  C   UNL     1      53.379   2.499  18.504  0.00  0.00    +0.000 A 
ATOM     17  S   UNL     1      52.067   3.552  18.141  0.00  0.00    +0.000 S 
ENDBRANCH  10  13
ENDBRANCH   8   9
ENDBRANCH   5   8
ENDBRANCH   1   2
BRANCH   1  19
ATOM     18  C   UNL     1      45.995   8.508  12.123  0.00  0.00    +0.000 C 
ATOM     19  N   UNL     1      45.819   7.067  11.856  0.00  0.00    +0.000 N 
ATOM     20  C   UNL     1      44.521   6.585  11.497  0.00  0.00    +0.000 C 
ATOM     21  O   UNL     1      43.573   7.362  11.412  0.00  0.00    +0.000 OA
BRANCH  20  22
ATOM     22  C   UNL     1      44.299   5.114  11.234  0.00  0.00    +0.000 A 
ATOM     23  C   UNL     1      43.506   4.332  12.082  0.00  0.00    +0.000 A 
ATOM     24  S   UNL     1      43.399   2.694  11.573  0.00  0.00    +0.000 S 
ATOM     25  C   UNL     1      44.339   2.929  10.166  0.00  0.00    +0.000 A 
ATOM     26  N   UNL     1      44.639   1.946   9.245  0.00  0.00    +0.000 NA
ATOM     27  C   UNL     1      45.339   2.471   8.390  0.00  0.00    +0.000 A 
ATOM     28  N   UNL     1      46.072   2.976   7.480  0.00  0.00    +0.000 N 
ATOM     29  C   UNL     1      45.728   4.437   8.726  0.00  0.00    +0.000 A 
ATOM     30  O   UNL     1      46.043   5.611   8.718  0.00  0.00    +0.000 OA
ATOM     31  C   UNL     1      44.786   4.221  10.045  0.00  0.00    +0.000 A 
ATOM     32  H   UNL     1      46.013   1.890   7.059  0.00  0.00    +0.000 HD
ENDBRANCH  20  22
ENDBRANCH   1  19
TORSDOF 6
ENDMDL
MODEL 2
REMARK VINA RESULT:    -7.454      3.123      8.448
REMARK INTER + INTRA:         -10.949
REMARK INTER:                  -9.895
REMARK INTRA:                  -1.054
REMARK UNBOUND:                -0.880
REMARK  Name = 
REMARK  7 active torsions:
REMARK  status: ('A' for Active; 'I' for Inactive)
REMARK    1  A    between atoms: C_1  and  N_2
REMARK    2  A    between atoms: N_2  and  C_3
REMARK    3  A    between atoms: C_3  and  C_4
REMARK    4  A    between atoms: C_7  and  C_8
REMARK    5  A    between atoms: C_8  and  N_9
REMARK    6  A    between atoms: C_10  and  C_12
REMARK    7  A    between atoms: C_19  and  C_21
REMARK                            x       y       z     vdW  Elec       q    Type
REMARK                         _______ _______ _______ _____ _____    ______ ____
ROOT
ATOM      1  C   UNL     1      47.341   8.107  13.721  0.00  0.00    +0.000 C 
ENDROOT
BRANCH   1   2
ATOM      2  C   UNL     1      46.414   7.154  13.046  0.00  0.00    +0.000 A 
ATOM      3  C   UNL     1      45.563   7.580  12.051  0.00  0.00    +0.000 A 
ATOM      4  C   UNL     1      44.793   6.649  11.402  0.00  0.00    +0.000 A 
ATOM      5  C   UNL     1      44.892   5.302  11.716  0.00  0.00    +0.000 A 
ATOM      6  N   UNL     1      45.735   4.857  12.677  0.00  0.00    +0.000 NA
ATOM      7  C   UNL     1      46.466   5.792  13.319  0.00  0.00    +0.000 A 
BRANCH   5   8
ATOM      8  C   UNL     1      44.041   4.301  10.963  0.00  0.00    +0.000 C 
BRANCH   8   9
ATOM      9  N   UNL     1      44.818   3.358  10.131  0.00  0.00    +0.000 N 
ATOM     10  C   UNL     1      45.296   3.672   8.863  0.00  0.00    +0.000 C 
ATOM     11  O   UNL     1      45.075   4.782   8.388  0.00  0.00    +0.000 OA
ATOM     12  H   UNL     1      45.037   2.460  10.520  0.00  0.00    +0.000 HD
BRANCH  10  13
ATOM     13  C   UNL     1      46.015   2.610   8.134  0.00  0.00    +0.000 A 
ATOM     14  C   UNL     1      45.950   1.254   8.370  0.00  0.00    +0.000 A 
ATOM     15  C   UNL     1      46.767   0.474   7.524  0.00  0.00    +0.000 A 
ATOM     16  C   UNL     1      47.453   1.243   6.620  0.00  0.00    +0.000 A 
ATOM     17  S   UNL     1      47.066   2.911   6.790  0.00  0.00    +0.000 S 
ENDBRANCH  10  13
ENDBRANCH   8   9
ENDBRANCH   5   8
ENDBRANCH   1   2
BRANCH   1  19
ATOM     18  C   UNL     1      49.288   7.637  12.205  0.00  0.00    +0.000 C 
ATOM     19  N   UNL     1      48.762   7.799  13.574  0.00  0.00    +0.000 N 
ATOM     20  C   UNL     1      49.667   7.701  14.678  0.00  0.00    +0.000 C 
ATOM     21  O   UNL     1      50.862   7.487  14.482  0.00  0.00    +0.000 OA
BRANCH  20  22
ATOM     22  C   UNL     1      49.163   7.843  16.094  0.00  0.00    +0.000 A 
ATOM     23  C   UNL     1      49.137   9.085  16.740  0.00  0.00    +0.000 A 
ATOM     24  S   UNL     1      48.517   8.992  18.340  0.00  0.00    +0.000 S 
ATOM     25  C   UNL     1      48.183   7.319  18.258  0.00  0.00    +0.000 A 
ATOM     26  N   UNL     1      47.621   6.576  19.277  0.00  0.00    +0.000 NA
ATOM     27  C   UNL     1      47.550   5.424  18.870  0.00  0.00    +0.000 A 
ATOM     28  N   UNL     1      47.460   4.214  18.489  0.00  0.00    +0.000 N 
ATOM     29  C   UNL     1      48.277   5.160  16.992  0.00  0.00    +0.000 A 
ATOM     30  O   UNL     1      48.619   4.797  15.883  0.00  0.00    +0.000 OA
ATOM     31  C   UNL     1      48.548   6.771  17.054  0.00  0.00    +0.000 A 
ATOM     32  H   UNL     1      46.997   4.085  19.552  0.00  0.00    +0.000 HD
ENDBRANCH  20  22
ENDBRANCH   1  19
TORSDOF 6
ENDMDL
MODEL 3
REMARK VINA RESULT:    -7.253      2.671      8.499
REMARK INTER + INTRA:         -10.677
REMARK INTER:                  -9.631
REMARK INTRA:                  -1.046
REMARK UNBOUND:                -0.880
REMARK  Name = 
REMARK  7 active torsions:
REMARK  status: ('A' for Active; 'I' for Inactive)
REMARK    1  A    between atoms: C_1  and  N_2
REMARK    2  A    between atoms: N_2  and  C_3
REMARK    3  A    between atoms: C_3  and  C_4
REMARK    4  A    between atoms: C_7  and  C_8
REMARK    5  A    between atoms: C_8  and  N_9
REMARK    6  A    between atoms: C_10  and  C_12
REMARK    7  A    between atoms: C_19  and  C_21
REMARK                            x       y       z     vdW  Elec       q    Type
REMARK                         _______ _______ _______ _____ _____    ______ ____
ROOT
ATOM      1  C   UNL     1      49.186   6.984  15.052  0.00  0.00    +0.000 C 
ENDROOT
BRANCH   1   2
ATOM      2  C   UNL     1      48.111   6.883  14.023  0.00  0.00    +0.000 A 
ATOM      3  C   UNL     1      47.929   7.880  13.090  0.00  0.00    +0.000 A 
ATOM      4  C   UNL     1      46.985   7.699  12.113  0.00  0.00    +0.000 A 
ATOM      5  C   UNL     1      46.252   6.524  12.041  0.00  0.00    +0.000 A 
ATOM      6  N   UNL     1      46.428   5.522  12.934  0.00  0.00    +0.000 NA
ATOM      7  C   UNL     1      47.345   5.730  13.902  0.00  0.00    +0.000 A 
BRANCH   5   8
ATOM      8  C   UNL     1      45.234   6.352  10.933  0.00  0.00    +0.000 C 
BRANCH   8   9
ATOM      9  N   UNL     1      45.695   5.496   9.820  0.00  0.00    +0.000 N 
ATOM     10  C   UNL     1      45.176   4.232   9.562  0.00  0.00    +0.000 C 
ATOM     11  O   UNL     1      44.288   3.782  10.280  0.00  0.00    +0.000 OA
ATOM     12  H   UNL     1      46.395   5.864   9.203  0.00  0.00    +0.000 HD
BRANCH  10  13
ATOM     13  C   UNL     1      45.771   3.476   8.444  0.00  0.00    +0.000 A 
ATOM     14  C   UNL     1      46.348   3.998   7.306  0.00  0.00    +0.000 A 
ATOM     15  C   UNL     1      46.818   3.029   6.394  0.00  0.00    +0.000 A 
ATOM     16  C   UNL     1      46.612   1.752   6.847  0.00  0.00    +0.000 A 
ATOM     17  S   UNL     1      45.875   1.747   8.402  0.00  0.00    +0.000 S 
ENDBRANCH  10  13
ENDBRANCH   8   9
ENDBRANCH   5   8
ENDBRANCH   1   2
BRANCH   1  19
ATOM     18  C   UNL     1      48.658   9.026  16.416  0.00  0.00    +0.000 C 
ATOM     19  N   UNL     1      48.769   7.556  16.330  0.00  0.00    +0.000 N 
ATOM     20  C   UNL     1      48.419   6.769  17.472  0.00  0.00    +0.000 C 
ATOM     21  O   UNL     1      48.030   7.313  18.504  0.00  0.00    +0.000 OA
BRANCH  20  22
ATOM     22  C   UNL     1      48.538   5.264  17.428  0.00  0.00    +0.000 A 
ATOM     23  C   UNL     1      47.416   4.448  17.241  0.00  0.00    +0.000 A 
ATOM     24  S   UNL     1      47.805   2.774  17.221  0.00  0.00    +0.000 S 
ATOM     25  C   UNL     1      49.486   3.025  17.392  0.00  0.00    +0.000 A 
ATOM     26  N   UNL     1      50.433   2.021  17.433  0.00  0.00    +0.000 NA
ATOM     27  C   UNL     1      51.517   2.570  17.581  0.00  0.00    +0.000 A 
ATOM     28  N   UNL     1      52.663   3.098  17.738  0.00  0.00    +0.000 N 
ATOM     29  C   UNL     1      51.411   4.594  17.715  0.00  0.00    +0.000 A 
ATOM     30  O   UNL     1      51.573   5.797  17.777  0.00  0.00    +0.000 OA
ATOM     31  C   UNL     1      49.809   4.354  17.500  0.00  0.00    +0.000 A 
ATOM     32  H   UNL     1      53.002   1.983  17.700  0.00  0.00    +0.000 HD
ENDBRANCH  20  22
ENDBRANCH   1  19
TORSDOF 6
ENDMDL
MODEL 4
REMARK VINA RESULT:    -6.948      3.568      8.962
REMARK INTER + INTRA:         -10.265
REMARK INTER:                  -9.152
REMARK INTRA:                  -1.113
REMARK UNBOUND:                -0.880
REMARK  Name = 
REMARK  7 active torsions:
REMARK  status: ('A' for Active; 'I' for Inactive)
REMARK    1  A    between atoms: C_1  and  N_2
REMARK    2  A    between atoms: N_2  and  C_3
REMARK    3  A    between atoms: C_3  and  C_4
REMARK    4  A    between atoms: C_7  and  C_8
REMARK    5  A    between atoms: C_8  and  N_9
REMARK    6  A    between atoms: C_10  and  C_12
REMARK    7  A    between atoms: C_19  and  C_21
REMARK                            x       y       z     vdW  Elec       q    Type
REMARK                         _______ _______ _______ _____ _____    ______ ____
ROOT
ATOM      1  C   UNL     1      47.382   8.032  14.112  0.00  0.00    +0.000 C 
ENDROOT
BRANCH   1   2
ATOM      2  C   UNL     1      46.604   7.254  13.105  0.00  0.00    +0.000 A 
ATOM      3  C   UNL     1      46.591   5.877  13.131  0.00  0.00    +0.000 A 
ATOM      4  C   UNL     1      45.791   5.212  12.238  0.00  0.00    +0.000 A 
ATOM      5  C   UNL     1      44.984   5.908  11.351  0.00  0.00    +0.000 A 
ATOM      6  N   UNL     1      44.965   7.261  11.321  0.00  0.00    +0.000 NA
ATOM      7  C   UNL     1      45.778   7.896  12.191  0.00  0.00    +0.000 A 
BRANCH   5   8
ATOM      8  C   UNL     1      44.098   5.137  10.395  0.00  0.00    +0.000 C 
BRANCH   8   9
ATOM      9  N   UNL     1      44.818   4.561   9.240  0.00  0.00    +0.000 N 
ATOM     10  C   UNL     1      45.157   3.216   9.144  0.00  0.00    +0.000 C 
ATOM     11  O   UNL     1      44.854   2.447  10.051  0.00  0.00    +0.000 OA
ATOM     12  H   UNL     1      45.041   5.170   8.475  0.00  0.00    +0.000 HD
BRANCH  10  13
ATOM     13  C   UNL     1      45.918   2.798   7.951  0.00  0.00    +0.000 A 
ATOM     14  C   UNL     1      46.206   3.565   6.843  0.00  0.00    +0.000 A 
ATOM     15  C   UNL     1      46.937   2.891   5.841  0.00  0.00    +0.000 A 
ATOM     16  C   UNL     1      47.224   1.598   6.195  0.00  0.00    +0.000 A 
ATOM     17  S   UNL     1      46.626   1.228   7.766  0.00  0.00    +0.000 S 
ENDBRANCH  10  13
ENDBRANCH   8   9
ENDBRANCH   5   8
ENDBRANCH   1   2
BRANCH   1  19
ATOM     18  C   UNL     1      49.507   8.264  12.792  0.00  0.00    +0.000 C 
ATOM     19  N   UNL     1      48.832   7.862  14.042  0.00  0.00    +0.000 N 
ATOM     20  C   UNL     1      49.625   7.380  15.131  0.00  0.00    +0.000 C 
ATOM     21  O   UNL     1      50.848   7.306  15.022  0.00  0.00    +0.000 OA
BRANCH  20  22
ATOM     22  C   UNL     1      48.968   6.942  16.418  0.00  0.00    +0.000 A 
ATOM     23  C   UNL     1      48.765   5.588  16.711  0.00  0.00    +0.000 A 
ATOM     24  S   UNL     1      48.007   5.342  18.234  0.00  0.00    +0.000 S 
ATOM     25  C   UNL     1      47.958   7.003  18.630  0.00  0.00    +0.000 A 
ATOM     26  N   UNL     1      47.451   7.518  19.806  0.00  0.00    +0.000 NA
ATOM     27  C   UNL     1      47.565   8.734  19.731  0.00  0.00    +0.000 A 
ATOM     28  N   UNL     1      47.661  10.002  19.693  0.00  0.00    +0.000 N 
ATOM     29  C   UNL     1      48.382   9.387  17.989  0.00  0.00    +0.000 A 
ATOM     30  O   UNL     1      48.882   9.977  17.051  0.00  0.00    +0.000 OA
ATOM     31  C   UNL     1      48.475   7.794  17.634  0.00  0.00    +0.000 A 
ATOM     32  H   UNL     1      47.177   9.906  20.750  0.00  0.00    +0.000 HD
ENDBRANCH  20  22
ENDBRANCH   1  19
TORSDOF 6
ENDMDL
MODEL 5
REMARK VINA RESULT:    -6.702      1.714      2.029
REMARK INTER + INTRA:          -9.933
REMARK INTER:                  -9.158
REMARK INTRA:                  -0.775
REMARK UNBOUND:                -0.880
REMARK  Name = 
REMARK  7 active torsions:
REMARK  status: ('A' for Active; 'I' for Inactive)
REMARK    1  A    between atoms: C_1  and  N_2
REMARK    2  A    between atoms: N_2  and  C_3
REMARK    3  A    between atoms: C_3  and  C_4
REMARK    4  A    between atoms: C_7  and  C_8
REMARK    5  A    between atoms: C_8  and  N_9
REMARK    6  A    between atoms: C_10  and  C_12
REMARK    7  A    between atoms: C_19  and  C_21
REMARK                            x       y       z     vdW  Elec       q    Type
REMARK                         _______ _______ _______ _____ _____    ______ ____
ROOT
ATOM      1  C   UNL     1      46.984   5.718  12.720  0.00  0.00    +0.000 C 
ENDROOT
BRANCH   1   2
ATOM      2  C   UNL     1      47.438   5.535  14.129  0.00  0.00    +0.000 A 
ATOM      3  C   UNL     1      47.004   4.464  14.878  0.00  0.00    +0.000 A 
ATOM      4  C   UNL     1      47.519   4.293  16.137  0.00  0.00    +0.000 A 
ATOM      5  C   UNL     1      48.482   5.158  16.635  0.00  0.00    +0.000 A 
ATOM      6  N   UNL     1      48.938   6.205  15.909  0.00  0.00    +0.000 NA
ATOM      7  C   UNL     1      48.401   6.369  14.682  0.00  0.00    +0.000 A 
BRANCH   5   8
ATOM      8  C   UNL     1      49.042   4.923  18.022  0.00  0.00    +0.000 C 
BRANCH   8   9
ATOM      9  N   UNL     1      50.394   4.326  18.031  0.00  0.00    +0.000 N 
ATOM     10  C   UNL     1      51.563   5.079  18.026  0.00  0.00    +0.000 C 
ATOM     11  O   UNL     1      51.496   6.304  18.015  0.00  0.00    +0.000 OA
ATOM     12  H   UNL     1      50.465   3.326  18.076  0.00  0.00    +0.000 HD
BRANCH  10  13
ATOM     13  C   UNL     1      52.839   4.339  17.988  0.00  0.00    +0.000 A 
ATOM     14  C   UNL     1      54.059   4.816  17.560  0.00  0.00    +0.000 A 
ATOM     15  C   UNL     1      55.107   3.872  17.617  0.00  0.00    +0.000 A 
ATOM     16  C   UNL     1      54.685   2.664  18.109  0.00  0.00    +0.000 A 
ATOM     17  S   UNL     1      53.017   2.704  18.531  0.00  0.00    +0.000 S 
ENDBRANCH  10  13
ENDBRANCH   8   9
ENDBRANCH   5   8
ENDBRANCH   1   2
BRANCH   1  19
ATOM     18  C   UNL     1      46.156   8.078  12.952  0.00  0.00    +0.000 C 
ATOM     19  N   UNL     1      45.903   6.684  12.537  0.00  0.00    +0.000 N 
ATOM     20  C   UNL     1      44.647   6.360  11.934  0.00  0.00    +0.000 C 
ATOM     21  O   UNL     1      43.797   7.232  11.766  0.00  0.00    +0.000 OA
BRANCH  20  22
ATOM     22  C   UNL     1      44.345   4.941  11.514  0.00  0.00    +0.000 A 
ATOM     23  C   UNL     1      43.562   4.094  12.308  0.00  0.00    +0.000 A 
ATOM     24  S   UNL     1      43.355   2.535  11.617  0.00  0.00    +0.000 S 
ATOM     25  C   UNL     1      44.231   2.900  10.197  0.00  0.00    +0.000 A 
ATOM     26  N   UNL     1      44.439   2.022   9.151  0.00  0.00    +0.000 NA
ATOM     27  C   UNL     1      45.118   2.619   8.325  0.00  0.00    +0.000 A 
ATOM     28  N   UNL     1      45.825   3.200   7.442  0.00  0.00    +0.000 N 
ATOM     29  C   UNL     1      45.612   4.514   8.868  0.00  0.00    +0.000 A 
ATOM     30  O   UNL     1      45.979   5.667   8.980  0.00  0.00    +0.000 OA
ATOM     31  C   UNL     1      44.730   4.179  10.203  0.00  0.00    +0.000 A 
ATOM     32  H   UNL     1      45.696   2.176   6.900  0.00  0.00    +0.000 HD
ENDBRANCH  20  22
ENDBRANCH   1  19
TORSDOF 6
ENDMDL
MODEL 6
REMARK VINA RESULT:    -6.612      2.552      8.524
REMARK INTER + INTRA:          -9.811
REMARK INTER:                  -8.832
REMARK INTRA:                  -0.979
REMARK UNBOUND:                -0.880
REMARK  Name = 
REMARK  7 active torsions:
REMARK  status: ('A' for Active; 'I' for Inactive)
REMARK    1  A    between atoms: C_1  and  N_2
REMARK    2  A    between atoms: N_2  and  C_3
REMARK    3  A    between atoms: C_3  and  C_4
REMARK    4  A    between atoms: C_7  and  C_8
REMARK    5  A    between atoms: C_8  and  N_9
REMARK    6  A    between atoms: C_10  and  C_12
REMARK    7  A    between atoms: C_19  and  C_21
REMARK                            x       y       z     vdW  Elec       q    Type
REMARK                         _______ _______ _______ _____ _____    ______ ____
ROOT
ATOM      1  C   UNL     1      49.362   7.900  15.345  0.00  0.00    +0.000 C 
ENDROOT
BRANCH   1   2
ATOM      2  C   UNL     1      48.349   7.587  14.296  0.00  0.00    +0.000 A 
ATOM      3  C   UNL     1      47.895   6.300  14.113  0.00  0.00    +0.000 A 
ATOM      4  C   UNL     1      46.902   6.078  13.195  0.00  0.00    +0.000 A 
ATOM      5  C   UNL     1      46.340   7.131  12.489  0.00  0.00    +0.000 A 
ATOM      6  N   UNL     1      46.756   8.407  12.665  0.00  0.00    +0.000 NA
ATOM      7  C   UNL     1      47.751   8.600  13.556  0.00  0.00    +0.000 A 
BRANCH   5   8
ATOM      8  C   UNL     1      45.229   6.850  11.499  0.00  0.00    +0.000 C 
BRANCH   8   9
ATOM      9  N   UNL     1      45.611   5.920  10.415  0.00  0.00    +0.000 N 
ATOM     10  C   UNL     1      44.873   4.790  10.080  0.00  0.00    +0.000 C 
ATOM     11  O   UNL     1      43.848   4.529  10.702  0.00  0.00    +0.000 OA
ATOM     12  H   UNL     1      46.428   6.140   9.875  0.00  0.00    +0.000 HD
BRANCH  10  13
ATOM     13  C   UNL     1      45.407   3.932   9.006  0.00  0.00    +0.000 A 
ATOM     14  C   UNL     1      46.103   4.341   7.889  0.00  0.00    +0.000 A 
ATOM     15  C   UNL     1      46.475   3.295   7.018  0.00  0.00    +0.000 A 
ATOM     16  C   UNL     1      46.070   2.070   7.482  0.00  0.00    +0.000 A 
ATOM     17  S   UNL     1      45.269   2.205   8.999  0.00  0.00    +0.000 S 
ENDBRANCH  10  13
ENDBRANCH   8   9
ENDBRANCH   5   8
ENDBRANCH   1   2
BRANCH   1  19
ATOM     18  C   UNL     1      47.894   9.299  16.828  0.00  0.00    +0.000 C 
ATOM     19  N   UNL     1      48.817   8.157  16.676  0.00  0.00    +0.000 N 
ATOM     20  C   UNL     1      49.091   7.334  17.814  0.00  0.00    +0.000 C 
ATOM     21  O   UNL     1      48.561   7.578  18.897  0.00  0.00    +0.000 OA
BRANCH  20  22
ATOM     22  C   UNL     1      50.044   6.168  17.702  0.00  0.00    +0.000 A 
ATOM     23  C   UNL     1      51.408   6.310  17.981  0.00  0.00    +0.000 A 
ATOM     24  S   UNL     1      52.285   4.845  17.789  0.00  0.00    +0.000 S 
ATOM     25  C   UNL     1      50.908   3.917  17.389  0.00  0.00    +0.000 A 
ATOM     26  N   UNL     1      50.922   2.564  17.113  0.00  0.00    +0.000 NA
ATOM     27  C   UNL     1      49.768   2.249  16.854  0.00  0.00    +0.000 A 
ATOM     28  N   UNL     1      48.584   1.879  16.574  0.00  0.00    +0.000 N 
ATOM     29  C   UNL     1      48.450   3.793  16.923  0.00  0.00    +0.000 A 
ATOM     30  O   UNL     1      47.504   4.556  16.948  0.00  0.00    +0.000 OA
ATOM     31  C   UNL     1      49.760   4.669  17.356  0.00  0.00    +0.000 A 
ATOM     32  H   UNL     1      49.109   0.844  16.459  0.00  0.00    +0.000 HD
ENDBRANCH  20  22
ENDBRANCH   1  19
TORSDOF 6
ENDMDL
MODEL 7
REMARK VINA RESULT:    -6.224      3.107      4.231
REMARK INTER + INTRA:          -9.287
REMARK INTER:                  -8.437
REMARK INTRA:                  -0.850
REMARK UNBOUND:                -0.880
REMARK  Name = 
REMARK  7 active torsions:
REMARK  status: ('A' for Active; 'I' for Inactive)
REMARK    1  A    between atoms: C_1  and  N_2
REMARK    2  A    between atoms: N_2  and  C_3
REMARK    3  A    between atoms: C_3  and  C_4
REMARK    4  A    between atoms: C_7  and  C_8
REMARK    5  A    between atoms: C_8  and  N_9
REMARK    6  A    between atoms: C_10  and  C_12
REMARK    7  A    between atoms: C_19  and  C_21
REMARK                            x       y       z     vdW  Elec       q    Type
REMARK                         _______ _______ _______ _____ _____    ______ ____
ROOT
ATOM      1  C   UNL     1      49.177   9.316  14.856  0.00  0.00    +0.000 C 
ENDROOT
BRANCH   1   2
ATOM      2  C   UNL     1      49.218   8.188  15.831  0.00  0.00    +0.000 A 
ATOM      3  C   UNL     1      48.573   8.279  17.045  0.00  0.00    +0.000 A 
ATOM      4  C   UNL     1      48.567   7.183  17.869  0.00  0.00    +0.000 A 
ATOM      5  C   UNL     1      49.166   5.996  17.476  0.00  0.00    +0.000 A 
ATOM      6  N   UNL     1      49.789   5.877  16.280  0.00  0.00    +0.000 NA
ATOM      7  C   UNL     1      49.804   6.974  15.495  0.00  0.00    +0.000 A 
BRANCH   5   8
ATOM      8  C   UNL     1      49.120   4.801  18.405  0.00  0.00    +0.000 C 
BRANCH   8   9
ATOM      9  N   UNL     1      50.378   4.027  18.451  0.00  0.00    +0.000 N 
ATOM     10  C   UNL     1      50.637   2.938  17.625  0.00  0.00    +0.000 C 
ATOM     11  O   UNL     1      49.794   2.582  16.808  0.00  0.00    +0.000 OA
ATOM     12  H   UNL     1      51.091   4.328  19.089  0.00  0.00    +0.000 HD
BRANCH  10  13
ATOM     13  C   UNL     1      51.920   2.236  17.821  0.00  0.00    +0.000 A 
ATOM     14  C   UNL     1      52.231   0.954  17.423  0.00  0.00    +0.000 A 
ATOM     15  C   UNL     1      53.535   0.538  17.765  0.00  0.00    +0.000 A 
ATOM     16  C   UNL     1      54.234   1.518  18.418  0.00  0.00    +0.000 A 
ATOM     17  S   UNL     1      53.302   2.956  18.579  0.00  0.00    +0.000 S 
ENDBRANCH  10  13
ENDBRANCH   8   9
ENDBRANCH   5   8
ENDBRANCH   1   2
BRANCH   1  19
ATOM     18  C   UNL     1      51.280   9.238  13.484  0.00  0.00    +0.000 C 
ATOM     19  N   UNL     1      49.819   9.048  13.571  0.00  0.00    +0.000 N 
ATOM     20  C   UNL     1      49.116   8.567  12.421  0.00  0.00    +0.000 C 
ATOM     21  O   UNL     1      49.724   8.316  11.383  0.00  0.00    +0.000 OA
BRANCH  20  22
ATOM     22  C   UNL     1      47.618   8.378  12.466  0.00  0.00    +0.000 A 
ATOM     23  C   UNL     1      46.740   9.430  12.181  0.00  0.00    +0.000 A 
ATOM     24  S   UNL     1      45.088   8.969  12.292  0.00  0.00    +0.000 S 
ATOM     25  C   UNL     1      45.429   7.336  12.660  0.00  0.00    +0.000 A 
ATOM     26  N   UNL     1      44.475   6.360  12.868  0.00  0.00    +0.000 NA
ATOM     27  C   UNL     1      45.084   5.329  13.124  0.00  0.00    +0.000 A 
ATOM     28  N   UNL     1      45.675   4.236  13.398  0.00  0.00    +0.000 N 
ATOM     29  C   UNL     1      47.104   5.538  13.144  0.00  0.00    +0.000 A 
ATOM     30  O   UNL     1      48.316   5.438  13.166  0.00  0.00    +0.000 OA
ATOM     31  C   UNL     1      46.776   7.088  12.742  0.00  0.00    +0.000 A 
ATOM     32  H   UNL     1      44.577   3.846  13.456  0.00  0.00    +0.000 HD
ENDBRANCH  20  22
ENDBRANCH   1  19
TORSDOF 6
ENDMDL
MODEL 8
REMARK VINA RESULT:    -5.992      2.427      2.884
REMARK INTER + INTRA:          -8.974
REMARK INTER:                  -8.462
REMARK INTRA:                  -0.511
REMARK UNBOUND:                -0.880
REMARK  Name = 
REMARK  7 active torsions:
REMARK  status: ('A' for Active; 'I' for Inactive)
REMARK    1  A    between atoms: C_1  and  N_2
REMARK    2  A    between atoms: N_2  and  C_3
REMARK    3  A    between atoms: C_3  and  C_4
REMARK    4  A    between atoms: C_7  and  C_8
REMARK    5  A    between atoms: C_8  and  N_9
REMARK    6  A    between atoms: C_10  and  C_12
REMARK    7  A    between atoms: C_19  and  C_21
REMARK                            x       y       z     vdW  Elec       q    Type
REMARK                         _______ _______ _______ _____ _____    ______ ____
ROOT
ATOM      1  C   UNL     1      47.115   5.998  12.492  0.00  0.00    +0.000 C 
ENDROOT
BRANCH   1   2
ATOM      2  C   UNL     1      48.235   6.506  13.336  0.00  0.00    +0.000 A 
ATOM      3  C   UNL     1      49.261   7.239  12.782  0.00  0.00    +0.000 A 
ATOM      4  C   UNL     1      50.221   7.756  13.614  0.00  0.00    +0.000 A 
ATOM      5  C   UNL     1      50.143   7.576  14.987  0.00  0.00    +0.000 A 
ATOM      6  N   UNL     1      49.134   6.876  15.555  0.00  0.00    +0.000 NA
ATOM      7  C   UNL     1      48.213   6.356  14.717  0.00  0.00    +0.000 A 
BRANCH   5   8
ATOM      8  C   UNL     1      51.210   8.182  15.875  0.00  0.00    +0.000 C 
BRANCH   8   9
ATOM      9  N   UNL     1      51.877   7.207  16.763  0.00  0.00    +0.000 N 
ATOM     10  C   UNL     1      53.066   6.563  16.438  0.00  0.00    +0.000 C 
ATOM     11  O   UNL     1      53.610   6.800  15.363  0.00  0.00    +0.000 OA
ATOM     12  H   UNL     1      51.463   7.030  17.660  0.00  0.00    +0.000 HD
BRANCH  10  13
ATOM     13  C   UNL     1      53.585   5.580  17.407  0.00  0.00    +0.000 A 
ATOM     14  C   UNL     1      54.610   4.681  17.205  0.00  0.00    +0.000 A 
ATOM     15  C   UNL     1      54.878   3.845  18.310  0.00  0.00    +0.000 A 
ATOM     16  C   UNL     1      54.058   4.118  19.373  0.00  0.00    +0.000 A 
ATOM     17  S   UNL     1      52.988   5.420  19.025  0.00  0.00    +0.000 S 
ENDBRANCH  10  13
ENDBRANCH   8   9
ENDBRANCH   5   8
ENDBRANCH   1   2
BRANCH   1  19
ATOM     18  C   UNL     1      46.368   8.396  12.461  0.00  0.00    +0.000 C 
ATOM     19  N   UNL     1      46.071   6.975  12.192  0.00  0.00    +0.000 N 
ATOM     20  C   UNL     1      44.810   6.631  11.610  0.00  0.00    +0.000 C 
ATOM     21  O   UNL     1      43.993   7.509  11.338  0.00  0.00    +0.000 OA
BRANCH  20  22
ATOM     22  C   UNL     1      44.464   5.187  11.338  0.00  0.00    +0.000 A 
ATOM     23  C   UNL     1      43.645   4.456  12.206  0.00  0.00    +0.000 A 
ATOM     24  S   UNL     1      43.391   2.839  11.681  0.00  0.00    +0.000 S 
ATOM     25  C   UNL     1      44.291   3.023  10.242  0.00  0.00    +0.000 A 
ATOM     26  N   UNL     1      44.478   2.033   9.297  0.00  0.00    +0.000 NA
ATOM     27  C   UNL     1      45.184   2.516   8.422  0.00  0.00    +0.000 A 
ATOM     28  N   UNL     1      45.918   2.976   7.491  0.00  0.00    +0.000 N 
ATOM     29  C   UNL     1      45.738   4.440   8.767  0.00  0.00    +0.000 A 
ATOM     30  O   UNL     1      46.144   5.585   8.761  0.00  0.00    +0.000 OA
ATOM     31  C   UNL     1      44.833   4.277  10.119  0.00  0.00    +0.000 A 
ATOM     32  H   UNL     1      45.759   1.905   7.058  0.00  0.00    +0.000 HD
ENDBRANCH  20  22
ENDBRANCH   1  19
TORSDOF 6
ENDMDL
MODEL 9
REMARK VINA RESULT:    -5.733      3.667      4.384
REMARK INTER + INTRA:          -8.624
REMARK INTER:                  -7.984
REMARK INTRA:                  -0.640
REMARK UNBOUND:                -0.880
REMARK  Name = 
REMARK  7 active torsions:
REMARK  status: ('A' for Active; 'I' for Inactive)
REMARK    1  A    between atoms: C_1  and  N_2
REMARK    2  A    between atoms: N_2  and  C_3
REMARK    3  A    between atoms: C_3  and  C_4
REMARK    4  A    between atoms: C_7  and  C_8
REMARK    5  A    between atoms: C_8  and  N_9
REMARK    6  A    between atoms: C_10  and  C_12
REMARK    7  A    between atoms: C_19  and  C_21
REMARK                            x       y       z     vdW  Elec       q    Type
REMARK                         _______ _______ _______ _____ _____    ______ ____
ROOT
ATOM      1  C   UNL     1      46.893   6.036  12.412  0.00  0.00    +0.000 C 
ENDROOT
BRANCH   1   2
ATOM      2  C   UNL     1      48.014   6.646  13.184  0.00  0.00    +0.000 A 
ATOM      3  C   UNL     1      48.098   6.490  14.550  0.00  0.00    +0.000 A 
ATOM      4  C   UNL     1      49.193   6.996  15.202  0.00  0.00    +0.000 A 
ATOM      5  C   UNL     1      50.212   7.621  14.499  0.00  0.00    +0.000 A 
ATOM      6  N   UNL     1      50.160   7.769  13.155  0.00  0.00    +0.000 NA
ATOM      7  C   UNL     1      49.063   7.286  12.536  0.00  0.00    +0.000 A 
BRANCH   5   8
ATOM      8  C   UNL     1      51.416   8.148  15.252  0.00  0.00    +0.000 C 
BRANCH   8   9
ATOM      9  N   UNL     1      51.077   8.870  16.497  0.00  0.00    +0.000 N 
ATOM     10  C   UNL     1      51.391   8.396  17.766  0.00  0.00    +0.000 C 
ATOM     11  O   UNL     1      51.979   7.326  17.886  0.00  0.00    +0.000 OA
ATOM     12  H   UNL     1      50.628   9.764  16.413  0.00  0.00    +0.000 HD
BRANCH  10  13
ATOM     13  C   UNL     1      50.945   9.206  18.915  0.00  0.00    +0.000 A 
ATOM     14  C   UNL     1      51.460   9.182  20.194  0.00  0.00    +0.000 A 
ATOM     15  C   UNL     1      50.818  10.056  21.097  0.00  0.00    +0.000 A 
ATOM     16  C   UNL     1      49.811  10.767  20.498  0.00  0.00    +0.000 A 
ATOM     17  S   UNL     1      49.680  10.386  18.825  0.00  0.00    +0.000 S 
ENDBRANCH  10  13
ENDBRANCH   8   9
ENDBRANCH   5   8
ENDBRANCH   1   2
BRANCH   1  19
ATOM     18  C   UNL     1      45.947   8.363  12.434  0.00  0.00    +0.000 C 
ATOM     19  N   UNL     1      45.766   6.927  12.145  0.00  0.00    +0.000 N 
ATOM     20  C   UNL     1      44.529   6.487  11.575  0.00  0.00    +0.000 C 
ATOM     21  O   UNL     1      43.637   7.297  11.331  0.00  0.00    +0.000 OA
BRANCH  20  22
ATOM     22  C   UNL     1      44.301   5.023  11.283  0.00  0.00    +0.000 A 
ATOM     23  C   UNL     1      43.508   4.227  12.118  0.00  0.00    +0.000 A 
ATOM     24  S   UNL     1      43.394   2.600  11.575  0.00  0.00    +0.000 S 
ATOM     25  C   UNL     1      44.329   2.861  10.170  0.00  0.00    +0.000 A 
ATOM     26  N   UNL     1      44.622   1.895   9.228  0.00  0.00    +0.000 NA
ATOM     27  C   UNL     1      45.321   2.436   8.381  0.00  0.00    +0.000 A 
ATOM     28  N   UNL     1      46.052   2.957   7.480  0.00  0.00    +0.000 N 
ATOM     29  C   UNL     1      45.718   4.393   8.757  0.00  0.00    +0.000 A 
ATOM     30  O   UNL     1      46.038   5.566   8.772  0.00  0.00    +0.000 OA
ATOM     31  C   UNL     1      44.780   4.154  10.074  0.00  0.00    +0.000 A 
ATOM     32  H   UNL     1      45.989   1.881   7.036  0.00  0.00    +0.000 HD
ENDBRANCH  20  22
ENDBRANCH   1  19
TORSDOF 6
ENDMDL
