MODEL 1
REMARK VINA RESULT:    -7.747      0.000      0.000
REMARK INTER + INTRA:          -9.708
REMARK INTER:                  -9.332
REMARK INTRA:                  -0.376
REMARK UNBOUND:                -0.376
REMARK  Name = 
REMARK  4 active torsions:
REMARK  status: ('A' for Active; 'I' for Inactive)
REMARK    1  A    between atoms: N_1  and  C_2
REMARK    2  A    between atoms: C_2  and  C_3
REMARK    3  A    between atoms: C_7  and  C_8
REMARK    4  A    between atoms: C_8  and  N_9
REMARK                            x       y       z     vdW  Elec       q    Type
REMARK                         _______ _______ _______ _____ _____    ______ ____
ROOT
ATOM      1  C   UNL     1      46.508   2.003   7.668  0.00  0.00    +0.000 A 
ATOM      2  C   UNL     1      46.706   3.269   7.129  0.00  0.00    +0.000 A 
ATOM      3  N   UNL     1      46.099   4.392   7.583  0.00  0.00    +0.000 NA
ATOM      4  C   UNL     1      45.258   4.247   8.627  0.00  0.00    +0.000 A 
ATOM      5  C   UNL     1      44.974   3.033   9.244  0.00  0.00    +0.000 A 
ATOM      6  C   UNL     1      45.620   1.895   8.741  0.00  0.00    +0.000 A 
ENDROOT
BRANCH   1   7
ATOM      7  C   UNL     1      47.245   0.808   7.131  0.00  0.00    +0.000 C 
BRANCH   7   8
ATOM      8  N   UNL     1      46.807  -0.433   7.759  0.00  0.00    +0.000 NA
ATOM      9  H   UNL     1      47.003  -1.210   7.126  0.00  0.00    +0.000 HD
ATOM     10  H   UNL     1      45.794  -0.412   7.872  0.00  0.00    +0.000 HD
ENDBRANCH   7   8
ENDBRANCH   1   7
BRANCH   5  11
ATOM     11  C   UNL     1      43.966   2.951  10.346  0.00  0.00    +0.000 C 
BRANCH  11  12
ATOM     12  N   UNL     1      43.996   4.073  11.283  0.00  0.00    +0.000 N 
ATOM     13  C   UNL     1      43.252   5.219  11.110  0.00  0.00    +0.000 A 
ATOM     14  C   UNL     1      43.908   6.246  11.751  0.00  0.00    +0.000 A 
ATOM     15  C   UNL     1      45.029   5.690  12.425  0.00  0.00    +0.000 A 
ATOM     16  C   UNL     1      46.065   6.230  13.197  0.00  0.00    +0.000 A 
ATOM     17  N   UNL     1      46.974   5.422  13.794  0.00  0.00    +0.000 NA
ATOM     18  C   UNL     1      46.858   4.088  13.635  0.00  0.00    +0.000 A 
ATOM     19  C   UNL     1      45.903   3.456  12.847  0.00  0.00    +0.000 A 
ATOM     20  C   UNL     1      44.992   4.308  12.213  0.00  0.00    +0.000 A 
ENDBRANCH  11  12
ENDBRANCH   5  11
TORSDOF 4
ENDMDL
MODEL 2
REMARK VINA RESULT:    -7.487      1.298      5.839
REMARK INTER + INTRA:          -9.395
REMARK INTER:                  -8.997
REMARK INTRA:                  -0.398
REMARK UNBOUND:                -0.376
REMARK  Name = 
REMARK  4 active torsions:
REMARK  status: ('A' for Active; 'I' for Inactive)
REMARK    1  A    between atoms: N_1  and  C_2
REMARK    2  A    between atoms: C_2  and  C_3
REMARK    3  A    between atoms: C_7  and  C_8
REMARK    4  A    between atoms: C_8  and  N_9
REMARK                            x       y       z     vdW  Elec       q    Type
REMARK                         _______ _______ _______ _____ _____    ______ ____
ROOT
ATOM      1  C   UNL     1      45.379   4.920  12.989  0.00  0.00    +0.000 A 
ATOM      2  C   UNL     1      44.066   5.301  13.239  0.00  0.00    +0.000 A 
ATOM      3  N   UNL     1      43.140   5.517  12.274  0.00  0.00    +0.000 NA
ATOM      4  C   UNL     1      43.542   5.341  10.998  0.00  0.00    +0.000 A 
ATOM      5  C   UNL     1      44.830   4.970  10.624  0.00  0.00    +0.000 A 
ATOM      6  C   UNL     1      45.758   4.760  11.653  0.00  0.00    +0.000 A 
ENDROOT
BRANCH   1   7
ATOM      7  C   UNL     1      46.341   4.665  14.116  0.00  0.00    +0.000 C 
BRANCH   7   8
ATOM      8  N   UNL     1      47.115   3.447  13.912  0.00  0.00    +0.000 NA
ATOM      9  H   UNL     1      47.179   3.260  12.911  0.00  0.00    +0.000 HD
ATOM     10  H   UNL     1      46.609   2.658  14.313  0.00  0.00    +0.000 HD
ENDBRANCH   7   8
ENDBRANCH   1   7
BRANCH   5  11
ATOM     11  C   UNL     1      45.210   4.875   9.180  0.00  0.00    +0.000 C 
BRANCH  11  12
ATOM     12  N   UNL     1      45.172   3.522   8.630  0.00  0.00    +0.000 N 
ATOM     13  C   UNL     1      44.373   2.523   9.139  0.00  0.00    +0.000 A 
ATOM     14  C   UNL     1      44.967   1.316   8.843  0.00  0.00    +0.000 A 
ATOM     15  C   UNL     1      46.107   1.583   8.037  0.00  0.00    +0.000 A 
ATOM     16  C   UNL     1      47.106   0.780   7.470  0.00  0.00    +0.000 A 
ATOM     17  N   UNL     1      48.048   1.320   6.659  0.00  0.00    +0.000 NA
ATOM     18  C   UNL     1      48.002   2.644   6.405  0.00  0.00    +0.000 A 
ATOM     19  C   UNL     1      47.090   3.534   6.960  0.00  0.00    +0.000 A 
ATOM     20  C   UNL     1      46.144   2.964   7.818  0.00  0.00    +0.000 A 
ENDBRANCH  11  12
ENDBRANCH   5  11
TORSDOF 4
ENDMDL
MODEL 3
REMARK VINA RESULT:    -7.428      1.653      2.279
REMARK INTER + INTRA:          -9.323
REMARK INTER:                  -8.922
REMARK INTRA:                  -0.402
REMARK UNBOUND:                -0.376
REMARK  Name = 
REMARK  4 active torsions:
REMARK  status: ('A' for Active; 'I' for Inactive)
REMARK    1  A    between atoms: N_1  and  C_2
REMARK    2  A    between atoms: C_2  and  C_3
REMARK    3  A    between atoms: C_7  and  C_8
REMARK    4  A    between atoms: C_8  and  N_9
REMARK                            x       y       z     vdW  Elec       q    Type
REMARK                         _______ _______ _______ _____ _____    ______ ____
ROOT
ATOM      1  C   UNL     1      46.712   2.491   6.741  0.00  0.00    +0.000 A 
ATOM      2  C   UNL     1      46.776   1.233   7.328  0.00  0.00    +0.000 A 
ATOM      3  N   UNL     1      46.025   0.850   8.389  0.00  0.00    +0.000 NA
ATOM      4  C   UNL     1      45.167   1.765   8.886  0.00  0.00    +0.000 A 
ATOM      5  C   UNL     1      45.021   3.057   8.390  0.00  0.00    +0.000 A 
ATOM      6  C   UNL     1      45.819   3.413   7.294  0.00  0.00    +0.000 A 
ENDROOT
BRANCH   1   7
ATOM      7  C   UNL     1      47.553   2.831   5.543  0.00  0.00    +0.000 C 
BRANCH   7   8
ATOM      8  N   UNL     1      48.650   1.888   5.357  0.00  0.00    +0.000 NA
ATOM      9  H   UNL     1      48.897   1.860   4.367  0.00  0.00    +0.000 HD
ATOM     10  H   UNL     1      48.328   0.950   5.593  0.00  0.00    +0.000 HD
ENDBRANCH   7   8
ENDBRANCH   1   7
BRANCH   5  11
ATOM     11  C   UNL     1      44.102   4.033   9.053  0.00  0.00    +0.000 C 
BRANCH  11  12
ATOM     12  N   UNL     1      44.251   4.120  10.504  0.00  0.00    +0.000 N 
ATOM     13  C   UNL     1      43.405   3.488  11.388  0.00  0.00    +0.000 A 
ATOM     14  C   UNL     1      43.418   4.202  12.566  0.00  0.00    +0.000 A 
ATOM     15  C   UNL     1      44.383   5.238  12.432  0.00  0.00    +0.000 A 
ATOM     16  C   UNL     1      44.808   6.282  13.263  0.00  0.00    +0.000 A 
ATOM     17  N   UNL     1      45.832   7.088  12.889  0.00  0.00    +0.000 NA
ATOM     18  C   UNL     1      46.435   6.861  11.704  0.00  0.00    +0.000 A 
ATOM     19  C   UNL     1      46.053   5.891  10.785  0.00  0.00    +0.000 A 
ATOM     20  C   UNL     1      44.976   5.089  11.175  0.00  0.00    +0.000 A 
ENDBRANCH  11  12
ENDBRANCH   5  11
TORSDOF 4
ENDMDL
MODEL 4
REMARK VINA RESULT:    -6.936      1.354      2.083
REMARK INTER + INTRA:          -8.731
REMARK INTER:                  -8.161
REMARK INTRA:                  -0.571
REMARK UNBOUND:                -0.376
REMARK  Name = 
REMARK  4 active torsions:
REMARK  status: ('A' for Active; 'I' for Inactive)
REMARK    1  A    between atoms: N_1  and  C_2
REMARK    2  A    between atoms: C_2  and  C_3
REMARK    3  A    between atoms: C_7  and  C_8
REMARK    4  A    between atoms: C_8  and  N_9
REMARK                            x       y       z     vdW  Elec       q    Type
REMARK                         _______ _______ _______ _____ _____    ______ ____
ROOT
ATOM      1  C   UNL     1      45.981   3.481   8.019  0.00  0.00    +0.000 A 
ATOM      2  C   UNL     1      45.769   2.128   8.258  0.00  0.00    +0.000 A 
ATOM      3  N   UNL     1      44.893   1.646   9.172  0.00  0.00    +0.000 NA
ATOM      4  C   UNL     1      44.192   2.556   9.879  0.00  0.00    +0.000 A 
ATOM      5  C   UNL     1      44.324   3.933   9.736  0.00  0.00    +0.000 A 
ATOM      6  C   UNL     1      45.243   4.390   8.781  0.00  0.00    +0.000 A 
ENDROOT
BRANCH   1   7
ATOM      7  C   UNL     1      46.946   3.939   6.962  0.00  0.00    +0.000 C 
BRANCH   7   8
ATOM      8  N   UNL     1      47.967   2.937   6.680  0.00  0.00    +0.000 NA
ATOM      9  H   UNL     1      48.566   3.279   5.928  0.00  0.00    +0.000 HD
ATOM     10  H   UNL     1      47.520   2.095   6.321  0.00  0.00    +0.000 HD
ENDBRANCH   7   8
ENDBRANCH   1   7
BRANCH   5  11
ATOM     11  C   UNL     1      43.564   4.872  10.619  0.00  0.00    +0.000 C 
BRANCH  11  12
ATOM     12  N   UNL     1      44.397   5.688  11.498  0.00  0.00    +0.000 N 
ATOM     13  C   UNL     1      44.575   7.042  11.324  0.00  0.00    +0.000 A 
ATOM     14  C   UNL     1      45.793   7.381  11.872  0.00  0.00    +0.000 A 
ATOM     15  C   UNL     1      46.324   6.218  12.494  0.00  0.00    +0.000 A 
ATOM     16  C   UNL     1      47.519   5.937  13.169  0.00  0.00    +0.000 A 
ATOM     17  N   UNL     1      47.721   4.725  13.740  0.00  0.00    +0.000 NA
ATOM     18  C   UNL     1      46.746   3.797  13.650  0.00  0.00    +0.000 A 
ATOM     19  C   UNL     1      45.552   3.955  12.957  0.00  0.00    +0.000 A 
ATOM     20  C   UNL     1      45.374   5.202  12.348  0.00  0.00    +0.000 A 
ENDBRANCH  11  12
ENDBRANCH   5  11
TORSDOF 4
ENDMDL
MODEL 5
REMARK VINA RESULT:    -6.841      1.558      5.409
REMARK INTER + INTRA:          -8.616
REMARK INTER:                  -8.117
REMARK INTRA:                  -0.499
REMARK UNBOUND:                -0.376
REMARK  Name = 
REMARK  4 active torsions:
REMARK  status: ('A' for Active; 'I' for Inactive)
REMARK    1  A    between atoms: N_1  and  C_2
REMARK    2  A    between atoms: C_2  and  C_3
REMARK    3  A    between atoms: C_7  and  C_8
REMARK    4  A    between atoms: C_8  and  N_9
REMARK                            x       y       z     vdW  Elec       q    Type
REMARK                         _______ _______ _______ _____ _____    ______ ____
ROOT
ATOM      1  C   UNL     1      46.988   5.291  13.876  0.00  0.00    +0.000 A 
ATOM      2  C   UNL     1      47.999   6.156  13.472  0.00  0.00    +0.000 A 
ATOM      3  N   UNL     1      47.910   6.984  12.404  0.00  0.00    +0.000 NA
ATOM      4  C   UNL     1      46.756   6.951  11.705  0.00  0.00    +0.000 A 
ATOM      5  C   UNL     1      45.680   6.123  12.006  0.00  0.00    +0.000 A 
ATOM      6  C   UNL     1      45.814   5.280  13.118  0.00  0.00    +0.000 A 
ENDROOT
BRANCH   1   7
ATOM      7  C   UNL     1      47.148   4.426  15.094  0.00  0.00    +0.000 C 
BRANCH   7   8
ATOM      8  N   UNL     1      47.539   3.064  14.752  0.00  0.00    +0.000 NA
ATOM      9  H   UNL     1      46.836   2.665  14.129  0.00  0.00    +0.000 HD
ATOM     10  H   UNL     1      47.525   2.490  15.595  0.00  0.00    +0.000 HD
ENDBRANCH   7   8
ENDBRANCH   1   7
BRANCH   5  11
ATOM     11  C   UNL     1      44.468   6.094  11.130  0.00  0.00    +0.000 C 
BRANCH  11  12
ATOM     12  N   UNL     1      44.120   4.771  10.617  0.00  0.00    +0.000 N 
ATOM     13  C   UNL     1      43.364   3.864  11.325  0.00  0.00    +0.000 A 
ATOM     14  C   UNL     1      43.706   2.602  10.891  0.00  0.00    +0.000 A 
ATOM     15  C   UNL     1      44.619   2.749   9.812  0.00  0.00    +0.000 A 
ATOM     16  C   UNL     1      45.327   1.847   9.008  0.00  0.00    +0.000 A 
ATOM     17  N   UNL     1      46.084   2.290   7.975  0.00  0.00    +0.000 NA
ATOM     18  C   UNL     1      46.138   3.615   7.733  0.00  0.00    +0.000 A 
ATOM     19  C   UNL     1      45.521   4.595   8.503  0.00  0.00    +0.000 A 
ATOM     20  C   UNL     1      44.768   4.121   9.583  0.00  0.00    +0.000 A 
ENDBRANCH  11  12
ENDBRANCH   5  11
TORSDOF 4
ENDMDL
MODEL 6
REMARK VINA RESULT:    -6.456      1.286      5.889
REMARK INTER + INTRA:          -8.153
REMARK INTER:                  -7.785
REMARK INTRA:                  -0.368
REMARK UNBOUND:                -0.376
REMARK  Name = 
REMARK  4 active torsions:
REMARK  status: ('A' for Active; 'I' for Inactive)
REMARK    1  A    between atoms: N_1  and  C_2
REMARK    2  A    between atoms: C_2  and  C_3
REMARK    3  A    between atoms: C_7  and  C_8
REMARK    4  A    between atoms: C_8  and  N_9
REMARK                            x       y       z     vdW  Elec       q    Type
REMARK                         _______ _______ _______ _____ _____    ______ ____
ROOT
ATOM      1  C   UNL     1      45.341   4.748  12.904  0.00  0.00    +0.000 A 
ATOM      2  C   UNL     1      44.127   5.217  13.391  0.00  0.00    +0.000 A 
ATOM      3  N   UNL     1      42.951   5.121  12.724  0.00  0.00    +0.000 NA
ATOM      4  C   UNL     1      42.988   4.524  11.514  0.00  0.00    +0.000 A 
ATOM      5  C   UNL     1      44.142   4.025  10.919  0.00  0.00    +0.000 A 
ATOM      6  C   UNL     1      45.337   4.147  11.642  0.00  0.00    +0.000 A 
ENDROOT
BRANCH   1   7
ATOM      7  C   UNL     1      46.599   4.860  13.719  0.00  0.00    +0.000 C 
BRANCH   7   8
ATOM      8  N   UNL     1      46.420   4.358  15.075  0.00  0.00    +0.000 NA
ATOM      9  H   UNL     1      46.136   5.130  15.679  0.00  0.00    +0.000 HD
ATOM     10  H   UNL     1      47.319   4.037  15.435  0.00  0.00    +0.000 HD
ENDBRANCH   7   8
ENDBRANCH   1   7
BRANCH   5  11
ATOM     11  C   UNL     1      44.105   3.450   9.539  0.00  0.00    +0.000 C 
BRANCH  11  12
ATOM     12  N   UNL     1      45.371   3.527   8.814  0.00  0.00    +0.000 N 
ATOM     13  C   UNL     1      45.884   4.704   8.317  0.00  0.00    +0.000 A 
ATOM     14  C   UNL     1      46.688   4.393   7.243  0.00  0.00    +0.000 A 
ATOM     15  C   UNL     1      46.753   2.976   7.148  0.00  0.00    +0.000 A 
ATOM     16  C   UNL     1      47.371   2.089   6.258  0.00  0.00    +0.000 A 
ATOM     17  N   UNL     1      47.322   0.751   6.471  0.00  0.00    +0.000 NA
ATOM     18  C   UNL     1      46.671   0.293   7.560  0.00  0.00    +0.000 A 
ATOM     19  C   UNL     1      45.979   1.083   8.470  0.00  0.00    +0.000 A 
ATOM     20  C   UNL     1      46.015   2.458   8.218  0.00  0.00    +0.000 A 
ENDBRANCH  11  12
ENDBRANCH   5  11
TORSDOF 4
ENDMDL
MODEL 7
REMARK VINA RESULT:    -5.996      1.926      3.321
REMARK INTER + INTRA:          -7.599
REMARK INTER:                  -7.145
REMARK INTRA:                  -0.454
REMARK UNBOUND:                -0.376
REMARK  Name = 
REMARK  4 active torsions:
REMARK  status: ('A' for Active; 'I' for Inactive)
REMARK    1  A    between atoms: N_1  and  C_2
REMARK    2  A    between atoms: C_2  and  C_3
REMARK    3  A    between atoms: C_7  and  C_8
REMARK    4  A    between atoms: C_8  and  N_9
REMARK                            x       y       z     vdW  Elec       q    Type
REMARK                         _______ _______ _______ _____ _____    ______ ____
ROOT
ATOM      1  C   UNL     1      45.500   3.628   8.389  0.00  0.00    +0.000 A 
ATOM      2  C   UNL     1      44.651   2.586   8.745  0.00  0.00    +0.000 A 
ATOM      3  N   UNL     1      43.959   2.532   9.908  0.00  0.00    +0.000 NA
ATOM      4  C   UNL     1      44.119   3.569  10.757  0.00  0.00    +0.000 A 
ATOM      5  C   UNL     1      44.945   4.661  10.517  0.00  0.00    +0.000 A 
ATOM      6  C   UNL     1      45.646   4.676   9.303  0.00  0.00    +0.000 A 
ENDROOT
BRANCH   1   7
ATOM      7  C   UNL     1      46.208   3.634   7.064  0.00  0.00    +0.000 C 
BRANCH   7   8
ATOM      8  N   UNL     1      47.216   2.584   6.976  0.00  0.00    +0.000 NA
ATOM      9  H   UNL     1      47.301   2.131   7.886  0.00  0.00    +0.000 HD
ATOM     10  H   UNL     1      48.124   3.005   6.786  0.00  0.00    +0.000 HD
ENDBRANCH   7   8
ENDBRANCH   1   7
BRANCH   5  11
ATOM     11  C   UNL     1      45.124   5.729  11.549  0.00  0.00    +0.000 C 
BRANCH  11  12
ATOM     12  N   UNL     1      46.244   5.510  12.463  0.00  0.00    +0.000 N 
ATOM     13  C   UNL     1      46.182   4.653  13.538  0.00  0.00    +0.000 A 
ATOM     14  C   UNL     1      47.083   5.096  14.481  0.00  0.00    +0.000 A 
ATOM     15  C   UNL     1      47.792   6.193  13.920  0.00  0.00    +0.000 A 
ATOM     16  C   UNL     1      48.783   7.058  14.401  0.00  0.00    +0.000 A 
ATOM     17  N   UNL     1      49.342   7.986  13.587  0.00  0.00    +0.000 NA
ATOM     18  C   UNL     1      48.929   8.058  12.306  0.00  0.00    +0.000 A 
ATOM     19  C   UNL     1      47.915   7.287  11.748  0.00  0.00    +0.000 A 
ATOM     20  C   UNL     1      47.329   6.355  12.610  0.00  0.00    +0.000 A 
ENDBRANCH  11  12
ENDBRANCH   5  11
TORSDOF 4
ENDMDL
MODEL 8
REMARK VINA RESULT:    -5.326      2.567      4.593
REMARK INTER + INTRA:          -6.791
REMARK INTER:                  -6.526
REMARK INTRA:                  -0.265
REMARK UNBOUND:                -0.376
REMARK  Name = 
REMARK  4 active torsions:
REMARK  status: ('A' for Active; 'I' for Inactive)
REMARK    1  A    between atoms: N_1  and  C_2
REMARK    2  A    between atoms: C_2  and  C_3
REMARK    3  A    between atoms: C_7  and  C_8
REMARK    4  A    between atoms: C_8  and  N_9
REMARK                            x       y       z     vdW  Elec       q    Type
REMARK                         _______ _______ _______ _____ _____    ______ ____
ROOT
ATOM      1  C   UNL     1      44.325   3.654  10.853  0.00  0.00    +0.000 A 
ATOM      2  C   UNL     1      43.128   4.308  11.124  0.00  0.00    +0.000 A 
ATOM      3  N   UNL     1      42.955   5.185  12.143  0.00  0.00    +0.000 NA
ATOM      4  C   UNL     1      44.027   5.424  12.926  0.00  0.00    +0.000 A 
ATOM      5  C   UNL     1      45.271   4.825  12.759  0.00  0.00    +0.000 A 
ATOM      6  C   UNL     1      45.407   3.921  11.696  0.00  0.00    +0.000 A 
ENDROOT
BRANCH   1   7
ATOM      7  C   UNL     1      44.450   2.720   9.683  0.00  0.00    +0.000 C 
BRANCH   7   8
ATOM      8  N   UNL     1      44.368   3.423   8.408  0.00  0.00    +0.000 NA
ATOM      9  H   UNL     1      44.167   2.747   7.670  0.00  0.00    +0.000 HD
ATOM     10  H   UNL     1      45.281   3.818   8.185  0.00  0.00    +0.000 HD
ENDBRANCH   7   8
ENDBRANCH   1   7
BRANCH   5  11
ATOM     11  C   UNL     1      46.383   5.088  13.724  0.00  0.00    +0.000 C 
BRANCH  11  12
ATOM     12  N   UNL     1      47.190   6.268  13.415  0.00  0.00    +0.000 N 
ATOM     13  C   UNL     1      47.208   6.863  12.174  0.00  0.00    +0.000 A 
ATOM     14  C   UNL     1      48.421   7.501  12.031  0.00  0.00    +0.000 A 
ATOM     15  C   UNL     1      49.119   7.380  13.263  0.00  0.00    +0.000 A 
ATOM     16  C   UNL     1      50.386   7.784  13.705  0.00  0.00    +0.000 A 
ATOM     17  N   UNL     1      50.758   7.596  14.995  0.00  0.00    +0.000 NA
ATOM     18  C   UNL     1      49.885   7.017  15.843  0.00  0.00    +0.000 A 
ATOM     19  C   UNL     1      48.631   6.531  15.492  0.00  0.00    +0.000 A 
ATOM     20  C   UNL     1      48.275   6.707  14.151  0.00  0.00    +0.000 A 
ENDBRANCH  11  12
ENDBRANCH   5  11
TORSDOF 4
ENDMDL
MODEL 9
REMARK VINA RESULT:    -5.238      2.727      6.115
REMARK INTER + INTRA:          -6.685
REMARK INTER:                  -6.131
REMARK INTRA:                  -0.554
REMARK UNBOUND:                -0.376
REMARK  Name = 
REMARK  4 active torsions:
REMARK  status: ('A' for Active; 'I' for Inactive)
REMARK    1  A    between atoms: N_1  and  C_2
REMARK    2  A    between atoms: C_2  and  C_3
REMARK    3  A    between atoms: C_7  and  C_8
REMARK    4  A    between atoms: C_8  and  N_9
REMARK                            x       y       z     vdW  Elec       q    Type
REMARK                         _______ _______ _______ _____ _____    ______ ____
ROOT
ATOM      1  C   UNL     1      48.137   7.798  13.942  0.00  0.00    +0.000 A 
ATOM      2  C   UNL     1      48.421   9.133  13.677  0.00  0.00    +0.000 A 
ATOM      3  N   UNL     1      47.690   9.916  12.847  0.00  0.00    +0.000 NA
ATOM      4  C   UNL     1      46.624   9.341  12.254  0.00  0.00    +0.000 A 
ATOM      5  C   UNL     1      46.245   8.015  12.433  0.00  0.00    +0.000 A 
ATOM      6  C   UNL     1      47.030   7.238  13.298  0.00  0.00    +0.000 A 
ENDROOT
BRANCH   1   7
ATOM      7  C   UNL     1      48.974   7.003  14.903  0.00  0.00    +0.000 C 
BRANCH   7   8
ATOM      8  N   UNL     1      48.259   5.846  15.427  0.00  0.00    +0.000 NA
ATOM      9  H   UNL     1      48.768   4.999  15.172  0.00  0.00    +0.000 HD
ATOM     10  H   UNL     1      47.352   5.776  14.967  0.00  0.00    +0.000 HD
ENDBRANCH   7   8
ENDBRANCH   1   7
BRANCH   5  11
ATOM     11  C   UNL     1      45.093   7.438  11.674  0.00  0.00    +0.000 C 
BRANCH  11  12
ATOM     12  N   UNL     1      45.346   6.120  11.094  0.00  0.00    +0.000 N 
ATOM     13  C   UNL     1      45.969   5.939   9.879  0.00  0.00    +0.000 A 
ATOM     14  C   UNL     1      45.537   4.738   9.360  0.00  0.00    +0.000 A 
ATOM     15  C   UNL     1      44.709   4.119  10.336  0.00  0.00    +0.000 A 
ATOM     16  C   UNL     1      43.969   2.930  10.369  0.00  0.00    +0.000 A 
ATOM     17  N   UNL     1      43.321   2.552  11.497  0.00  0.00    +0.000 NA
ATOM     18  C   UNL     1      43.407   3.340  12.588  0.00  0.00    +0.000 A 
ATOM     19  C   UNL     1      44.065   4.563  12.642  0.00  0.00    +0.000 A 
ATOM     20  C   UNL     1      44.703   4.952  11.459  0.00  0.00    +0.000 A 
ENDBRANCH  11  12
ENDBRANCH   5  11
TORSDOF 4
ENDMDL
