MODEL 1
REMARK VINA RESULT:    -8.409      0.000      0.000
REMARK INTER + INTRA:         -11.489
REMARK INTER:                 -10.867
REMARK INTRA:                  -0.622
REMARK UNBOUND:                -0.622
REMARK  Name = 
REMARK  9 active torsions:
REMARK  status: ('A' for Active; 'I' for Inactive)
REMARK    1  A    between atoms: C_1  and  C_2
REMARK    2  A    between atoms: N_4  and  C_5
REMARK    3  A    between atoms: C_9  and  C_10
REMARK    4  A    between atoms: C_10  and  C_11
REMARK    5  A    between atoms: C_10  and  C_12
REMARK    6  A    between atoms: C_10  and  C_13
REMARK    7  A    between atoms: C_13  and  N_14
REMARK    8  A    between atoms: C_18  and  C_19
REMARK    9  A    between atoms: C_26  and  C_27
REMARK                            x       y       z     vdW  Elec       q    Type
REMARK                         _______ _______ _______ _____ _____    ______ ____
ROOT
ATOM      1  C   UNL     1      44.026   4.612  12.277  0.00  0.00    +0.000 C 
ATOM      2  C   UNL     1      45.094   3.511  12.505  0.00  0.00    +0.000 C 
ATOM      3  C   UNL     1      43.061   4.645  13.480  0.00  0.00    +0.000 C 
ENDROOT
BRANCH   1   8
ATOM      4  C   UNL     1      46.917   7.195  12.147  0.00  0.00    +0.000 A 
ATOM      5  C   UNL     1      46.234   8.325  11.687  0.00  0.00    +0.000 A 
ATOM      6  C   UNL     1      44.857   8.313  11.488  0.00  0.00    +0.000 A 
ATOM      7  C   UNL     1      44.127   7.147  11.711  0.00  0.00    +0.000 A 
ATOM      8  C   UNL     1      44.758   5.973  12.150  0.00  0.00    +0.000 A 
ATOM      9  C   UNL     1      46.145   6.051  12.408  0.00  0.00    +0.000 A 
BRANCH   4  13
ATOM     10  C   UNL     1      48.884  10.285  12.890  0.00  0.00    +0.000 C 
ATOM     11  C   UNL     1      49.835   9.165  12.470  0.00  0.00    +0.000 C 
ATOM     12  C   UNL     1      49.171   8.112  11.561  0.00  0.00    +0.000 C 
ATOM     13  N   UNL     1      48.285   7.227  12.324  0.00  0.00    +0.000 N 
ATOM     14  C   UNL     1      48.893   6.650  13.536  0.00  0.00    +0.000 C 
ATOM     15  C   UNL     1      49.558   7.754  14.390  0.00  0.00    +0.000 C 
ATOM     16  C   UNL     1      50.352   7.137  15.536  0.00  0.00    +0.000 C 
ATOM     17  O   UNL     1      50.467   8.560  13.615  0.00  0.00    +0.000 OA
ENDBRANCH   4  13
ENDBRANCH   1   8
BRANCH   1  18
ATOM     18  C   UNL     1      43.230   4.265  10.982  0.00  0.00    +0.000 C 
BRANCH  18  19
ATOM     19  N   UNL     1      43.813   4.794   9.754  0.00  0.00    +0.000 N 
ATOM     20  C   UNL     1      44.758   4.029   9.086  0.00  0.00    +0.000 A 
ATOM     21  C   UNL     1      44.777   2.627   9.071  0.00  0.00    +0.000 A 
ATOM     22  N   UNL     1      45.665   1.871   8.372  0.00  0.00    +0.000 NA
ATOM     23  C   UNL     1      46.549   2.590   7.632  0.00  0.00    +0.000 A 
ATOM     24  C   UNL     1      46.548   3.975   7.629  0.00  0.00    +0.000 A 
ATOM     25  N   UNL     1      45.666   4.714   8.361  0.00  0.00    +0.000 NA
ATOM     26  H   UNL     1      44.159   5.752   9.772  0.00  0.00    +0.000 HD
BRANCH  23  27
ATOM     27  C   UNL     1      47.516   1.835   6.785  0.00  0.00    +0.000 C 
ATOM     28  N   UNL     1      48.615   2.528   6.340  0.00  0.00    +0.000 N 
ATOM     29  O   UNL     1      47.349   0.658   6.505  0.00  0.00    +0.000 OA
ATOM     30  H   UNL     1      48.759   3.500   6.591  0.00  0.00    +0.000 HD
ATOM     31  H   UNL     1      49.301   2.042   5.780  0.00  0.00    +0.000 HD
ENDBRANCH  23  27
ENDBRANCH  18  19
ENDBRANCH   1  18
TORSDOF 5
ENDMDL
MODEL 2
REMARK VINA RESULT:    -8.282      1.586      2.723
REMARK INTER + INTRA:         -11.324
REMARK INTER:                 -10.207
REMARK INTRA:                  -1.117
REMARK UNBOUND:                -0.622
REMARK  Name = 
REMARK  9 active torsions:
REMARK  status: ('A' for Active; 'I' for Inactive)
REMARK    1  A    between atoms: C_1  and  C_2
REMARK    2  A    between atoms: N_4  and  C_5
REMARK    3  A    between atoms: C_9  and  C_10
REMARK    4  A    between atoms: C_10  and  C_11
REMARK    5  A    between atoms: C_10  and  C_12
REMARK    6  A    between atoms: C_10  and  C_13
REMARK    7  A    between atoms: C_13  and  N_14
REMARK    8  A    between atoms: C_18  and  C_19
REMARK    9  A    between atoms: C_26  and  C_27
REMARK                            x       y       z     vdW  Elec       q    Type
REMARK                         _______ _______ _______ _____ _____    ______ ____
ROOT
ATOM      1  C   UNL     1      43.459   4.758  12.209  0.00  0.00    +0.000 C 
ATOM      2  C   UNL     1      43.034   3.812  13.362  0.00  0.00    +0.000 C 
ATOM      3  C   UNL     1      42.458   5.927  12.109  0.00  0.00    +0.000 C 
ENDROOT
BRANCH   1   8
ATOM      4  C   UNL     1      46.292   7.265  13.066  0.00  0.00    +0.000 A 
ATOM      5  C   UNL     1      47.333   6.385  13.373  0.00  0.00    +0.000 A 
ATOM      6  C   UNL     1      47.185   5.007  13.242  0.00  0.00    +0.000 A 
ATOM      7  C   UNL     1      45.966   4.470  12.831  0.00  0.00    +0.000 A 
ATOM      8  C   UNL     1      44.876   5.300  12.531  0.00  0.00    +0.000 A 
ATOM      9  C   UNL     1      45.093   6.694  12.608  0.00  0.00    +0.000 A 
BRANCH   4  13
ATOM     10  C   UNL     1      49.055   9.245  11.512  0.00  0.00    +0.000 C 
ATOM     11  C   UNL     1      48.374  10.083  12.593  0.00  0.00    +0.000 C 
ATOM     12  C   UNL     1      47.707   9.233  13.692  0.00  0.00    +0.000 C 
ATOM     13  N   UNL     1      46.459   8.627  13.216  0.00  0.00    +0.000 N 
ATOM     14  C   UNL     1      45.532   9.568  12.564  0.00  0.00    +0.000 C 
ATOM     15  C   UNL     1      46.268  10.402  11.491  0.00  0.00    +0.000 C 
ATOM     16  C   UNL     1      45.361  11.505  10.956  0.00  0.00    +0.000 C 
ATOM     17  O   UNL     1      47.453  11.030  12.017  0.00  0.00    +0.000 OA
ENDBRANCH   4  13
ENDBRANCH   1   8
BRANCH   1  18
ATOM     18  C   UNL     1      43.446   3.947  10.877  0.00  0.00    +0.000 C 
BRANCH  18  19
ATOM     19  N   UNL     1      43.997   4.658   9.730  0.00  0.00    +0.000 N 
ATOM     20  C   UNL     1      44.968   4.028   8.964  0.00  0.00    +0.000 A 
ATOM     21  C   UNL     1      45.044   2.642   8.763  0.00  0.00    +0.000 A 
ATOM     22  N   UNL     1      45.957   2.023   7.968  0.00  0.00    +0.000 NA
ATOM     23  C   UNL     1      46.805   2.870   7.328  0.00  0.00    +0.000 A 
ATOM     24  C   UNL     1      46.749   4.241   7.511  0.00  0.00    +0.000 A 
ATOM     25  N   UNL     1      45.842   4.840   8.335  0.00  0.00    +0.000 NA
ATOM     26  H   UNL     1      44.305   5.618   9.874  0.00  0.00    +0.000 HD
BRANCH  23  27
ATOM     27  C   UNL     1      47.797   2.274   6.388  0.00  0.00    +0.000 C 
ATOM     28  N   UNL     1      47.747   2.710   5.086  0.00  0.00    +0.000 N 
ATOM     29  O   UNL     1      48.617   1.446   6.751  0.00  0.00    +0.000 OA
ATOM     30  H   UNL     1      47.077   3.412   4.793  0.00  0.00    +0.000 HD
ATOM     31  H   UNL     1      48.418   2.342   4.426  0.00  0.00    +0.000 HD
ENDBRANCH  23  27
ENDBRANCH  18  19
ENDBRANCH   1  18
TORSDOF 5
ENDMDL
MODEL 3
REMARK VINA RESULT:    -7.567      3.197      7.739
REMARK INTER + INTRA:         -10.401
REMARK INTER:                  -9.419
REMARK INTRA:                  -0.982
REMARK UNBOUND:                -0.622
REMARK  Name = 
REMARK  9 active torsions:
REMARK  status: ('A' for Active; 'I' for Inactive)
REMARK    1  A    between atoms: C_1  and  C_2
REMARK    2  A    between atoms: N_4  and  C_5
REMARK    3  A    between atoms: C_9  and  C_10
REMARK    4  A    between atoms: C_10  and  C_11
REMARK    5  A    between atoms: C_10  and  C_12
REMARK    6  A    between atoms: C_10  and  C_13
REMARK    7  A    between atoms: C_13  and  N_14
REMARK    8  A    between atoms: C_18  and  C_19
REMARK    9  A    between atoms: C_26  and  C_27
REMARK                            x       y       z     vdW  Elec       q    Type
REMARK                         _______ _______ _______ _____ _____    ______ ____
ROOT
ATOM      1  C   UNL     1      49.172   8.535  12.612  0.00  0.00    +0.000 C 
ATOM      2  C   UNL     1      49.977   7.363  11.992  0.00  0.00    +0.000 C 
ATOM      3  C   UNL     1      49.595   9.858  11.943  0.00  0.00    +0.000 C 
ENDROOT
BRANCH   1   8
ATOM      4  C   UNL     1      45.875   6.607  11.931  0.00  0.00    +0.000 A 
ATOM      5  C   UNL     1      44.935   7.622  12.134  0.00  0.00    +0.000 A 
ATOM      6  C   UNL     1      45.323   8.930  12.408  0.00  0.00    +0.000 A 
ATOM      7  C   UNL     1      46.675   9.249  12.524  0.00  0.00    +0.000 A 
ATOM      8  C   UNL     1      47.665   8.271  12.355  0.00  0.00    +0.000 A 
ATOM      9  C   UNL     1      47.229   6.973  12.007  0.00  0.00    +0.000 A 
BRANCH   4  13
ATOM     10  C   UNL     1      42.307   5.511  11.748  0.00  0.00    +0.000 C 
ATOM     11  C   UNL     1      43.212   4.284  11.849  0.00  0.00    +0.000 C 
ATOM     12  C   UNL     1      44.554   4.573  12.549  0.00  0.00    +0.000 C 
ATOM     13  N   UNL     1      45.466   5.315  11.672  0.00  0.00    +0.000 N 
ATOM     14  C   UNL     1      45.624   4.738  10.326  0.00  0.00    +0.000 C 
ATOM     15  C   UNL     1      44.244   4.453   9.690  0.00  0.00    +0.000 C 
ATOM     16  C   UNL     1      44.406   3.680   8.386  0.00  0.00    +0.000 C 
ATOM     17  O   UNL     1      43.403   3.669  10.559  0.00  0.00    +0.000 OA
ENDBRANCH   4  13
ENDBRANCH   1   8
BRANCH   1  18
ATOM     18  C   UNL     1      49.491   8.598  14.137  0.00  0.00    +0.000 C 
BRANCH  18  19
ATOM     19  N   UNL     1      50.237   7.454  14.647  0.00  0.00    +0.000 N 
ATOM     20  C   UNL     1      49.577   6.540  15.456  0.00  0.00    +0.000 A 
ATOM     21  C   UNL     1      48.215   6.226  15.351  0.00  0.00    +0.000 A 
ATOM     22  N   UNL     1      47.575   5.290  16.101  0.00  0.00    +0.000 NA
ATOM     23  C   UNL     1      48.379   4.627  16.972  0.00  0.00    +0.000 A 
ATOM     24  C   UNL     1      49.728   4.918  17.093  0.00  0.00    +0.000 A 
ATOM     25  N   UNL     1      50.344   5.882  16.349  0.00  0.00    +0.000 NA
ATOM     26  H   UNL     1      51.143   7.636  15.076  0.00  0.00    +0.000 HD
BRANCH  23  27
ATOM     27  C   UNL     1      47.767   3.539  17.788  0.00  0.00    +0.000 C 
ATOM     28  N   UNL     1      48.384   3.242  18.978  0.00  0.00    +0.000 N 
ATOM     29  O   UNL     1      46.764   2.945  17.424  0.00  0.00    +0.000 OA
ATOM     30  H   UNL     1      49.206   3.751  19.284  0.00  0.00    +0.000 HD
ATOM     31  H   UNL     1      47.985   2.523  19.565  0.00  0.00    +0.000 HD
ENDBRANCH  23  27
ENDBRANCH  18  19
ENDBRANCH   1  18
TORSDOF 5
ENDMDL
MODEL 4
REMARK VINA RESULT:    -7.272      1.719      2.135
REMARK INTER + INTRA:         -10.020
REMARK INTER:                  -9.081
REMARK INTRA:                  -0.938
REMARK UNBOUND:                -0.622
REMARK  Name = 
REMARK  9 active torsions:
REMARK  status: ('A' for Active; 'I' for Inactive)
REMARK    1  A    between atoms: C_1  and  C_2
REMARK    2  A    between atoms: N_4  and  C_5
REMARK    3  A    between atoms: C_9  and  C_10
REMARK    4  A    between atoms: C_10  and  C_11
REMARK    5  A    between atoms: C_10  and  C_12
REMARK    6  A    between atoms: C_10  and  C_13
REMARK    7  A    between atoms: C_13  and  N_14
REMARK    8  A    between atoms: C_18  and  C_19
REMARK    9  A    between atoms: C_26  and  C_27
REMARK                            x       y       z     vdW  Elec       q    Type
REMARK                         _______ _______ _______ _____ _____    ______ ____
ROOT
ATOM      1  C   UNL     1      43.318   5.163  12.209  0.00  0.00    +0.000 C 
ATOM      2  C   UNL     1      43.019   4.433  13.544  0.00  0.00    +0.000 C 
ATOM      3  C   UNL     1      42.079   5.974  11.779  0.00  0.00    +0.000 C 
ENDROOT
BRANCH   1   8
ATOM      4  C   UNL     1      46.788   6.430  13.395  0.00  0.00    +0.000 A 
ATOM      5  C   UNL     1      46.864   7.650  12.718  0.00  0.00    +0.000 A 
ATOM      6  C   UNL     1      45.804   8.124  11.950  0.00  0.00    +0.000 A 
ATOM      7  C   UNL     1      44.646   7.361  11.809  0.00  0.00    +0.000 A 
ATOM      8  C   UNL     1      44.519   6.117  12.443  0.00  0.00    +0.000 A 
ATOM      9  C   UNL     1      45.589   5.709  13.271  0.00  0.00    +0.000 A 
BRANCH   4  13
ATOM     10  C   UNL     1      48.445   8.372  16.125  0.00  0.00    +0.000 C 
ATOM     11  C   UNL     1      49.330   7.189  15.732  0.00  0.00    +0.000 C 
ATOM     12  C   UNL     1      49.111   6.721  14.280  0.00  0.00    +0.000 C 
ATOM     13  N   UNL     1      47.856   5.975  14.140  0.00  0.00    +0.000 N 
ATOM     14  C   UNL     1      47.671   4.902  15.132  0.00  0.00    +0.000 C 
ATOM     15  C   UNL     1      47.925   5.431  16.563  0.00  0.00    +0.000 C 
ATOM     16  C   UNL     1      47.925   4.283  17.565  0.00  0.00    +0.000 C 
ATOM     17  O   UNL     1      49.195   6.103  16.669  0.00  0.00    +0.000 OA
ENDBRANCH   4  13
ENDBRANCH   1   8
BRANCH   1  18
ATOM     18  C   UNL     1      43.641   4.091  11.124  0.00  0.00    +0.000 C 
BRANCH  18  19
ATOM     19  N   UNL     1      43.962   4.637   9.811  0.00  0.00    +0.000 N 
ATOM     20  C   UNL     1      44.897   3.974   9.029  0.00  0.00    +0.000 A 
ATOM     21  C   UNL     1      45.106   2.588   9.046  0.00  0.00    +0.000 A 
ATOM     22  N   UNL     1      45.980   1.926   8.241  0.00  0.00    +0.000 NA
ATOM     23  C   UNL     1      46.641   2.721   7.360  0.00  0.00    +0.000 A 
ATOM     24  C   UNL     1      46.450   4.092   7.324  0.00  0.00    +0.000 A 
ATOM     25  N   UNL     1      45.589   4.740   8.160  0.00  0.00    +0.000 NA
ATOM     26  H   UNL     1      44.173   5.632   9.753  0.00  0.00    +0.000 HD
BRANCH  23  27
ATOM     27  C   UNL     1      47.571   2.063   6.398  0.00  0.00    +0.000 C 
ATOM     28  N   UNL     1      48.108   0.861   6.788  0.00  0.00    +0.000 N 
ATOM     29  O   UNL     1      47.840   2.560   5.316  0.00  0.00    +0.000 OA
ATOM     30  H   UNL     1      47.866   0.443   7.680  0.00  0.00    +0.000 HD
ATOM     31  H   UNL     1      48.727   0.377   6.152  0.00  0.00    +0.000 HD
ENDBRANCH  23  27
ENDBRANCH  18  19
ENDBRANCH   1  18
TORSDOF 5
ENDMDL
MODEL 5
REMARK VINA RESULT:    -7.254      3.534      6.294
REMARK INTER + INTRA:          -9.997
REMARK INTER:                  -8.767
REMARK INTRA:                  -1.229
REMARK UNBOUND:                -0.622
REMARK  Name = 
REMARK  9 active torsions:
REMARK  status: ('A' for Active; 'I' for Inactive)
REMARK    1  A    between atoms: C_1  and  C_2
REMARK    2  A    between atoms: N_4  and  C_5
REMARK    3  A    between atoms: C_9  and  C_10
REMARK    4  A    between atoms: C_10  and  C_11
REMARK    5  A    between atoms: C_10  and  C_12
REMARK    6  A    between atoms: C_10  and  C_13
REMARK    7  A    between atoms: C_13  and  N_14
REMARK    8  A    between atoms: C_18  and  C_19
REMARK    9  A    between atoms: C_26  and  C_27
REMARK                            x       y       z     vdW  Elec       q    Type
REMARK                         _______ _______ _______ _____ _____    ______ ____
ROOT
ATOM      1  C   UNL     1      49.382   8.307  14.007  0.00  0.00    +0.000 C 
ATOM      2  C   UNL     1      48.722   9.558  13.370  0.00  0.00    +0.000 C 
ATOM      3  C   UNL     1      50.915   8.475  13.994  0.00  0.00    +0.000 C 
ENDROOT
BRANCH   1   8
ATOM      4  C   UNL     1      48.724   6.811  17.525  0.00  0.00    +0.000 A 
ATOM      5  C   UNL     1      48.240   7.936  18.199  0.00  0.00    +0.000 A 
ATOM      6  C   UNL     1      48.043   9.148  17.544  0.00  0.00    +0.000 A 
ATOM      7  C   UNL     1      48.363   9.274  16.193  0.00  0.00    +0.000 A 
ATOM      8  C   UNL     1      48.875   8.189  15.468  0.00  0.00    +0.000 A 
ATOM      9  C   UNL     1      48.991   6.960  16.153  0.00  0.00    +0.000 A 
BRANCH   4  13
ATOM     10  C   UNL     1      47.615   3.463  16.288  0.00  0.00    +0.000 C 
ATOM     11  C   UNL     1      47.987   3.362  17.767  0.00  0.00    +0.000 C 
ATOM     12  C   UNL     1      47.837   4.695  18.525  0.00  0.00    +0.000 C 
ATOM     13  N   UNL     1      48.924   5.623  18.198  0.00  0.00    +0.000 N 
ATOM     14  C   UNL     1      50.274   5.043  18.302  0.00  0.00    +0.000 C 
ATOM     15  C   UNL     1      50.351   3.700  17.540  0.00  0.00    +0.000 C 
ATOM     16  C   UNL     1      51.682   3.008  17.809  0.00  0.00    +0.000 C 
ATOM     17  O   UNL     1      49.302   2.796  17.937  0.00  0.00    +0.000 OA
ENDBRANCH   4  13
ENDBRANCH   1   8
BRANCH   1  18
ATOM     18  C   UNL     1      48.988   7.059  13.161  0.00  0.00    +0.000 C 
BRANCH  18  19
ATOM     19  N   UNL     1      47.860   7.268  12.261  0.00  0.00    +0.000 N 
ATOM     20  C   UNL     1      46.893   6.277  12.169  0.00  0.00    +0.000 A 
ATOM     21  C   UNL     1      46.527   5.426  13.222  0.00  0.00    +0.000 A 
ATOM     22  N   UNL     1      45.541   4.492  13.156  0.00  0.00    +0.000 NA
ATOM     23  C   UNL     1      44.883   4.457  11.968  0.00  0.00    +0.000 A 
ATOM     24  C   UNL     1      45.226   5.288  10.915  0.00  0.00    +0.000 A 
ATOM     25  N   UNL     1      46.238   6.199  10.993  0.00  0.00    +0.000 NA
ATOM     26  H   UNL     1      48.065   7.576  11.312  0.00  0.00    +0.000 HD
BRANCH  23  27
ATOM     27  C   UNL     1      43.745   3.503  11.837  0.00  0.00    +0.000 C 
ATOM     28  N   UNL     1      43.847   2.325  12.536  0.00  0.00    +0.000 N 
ATOM     29  O   UNL     1      42.768   3.753  11.149  0.00  0.00    +0.000 OA
ATOM     30  H   UNL     1      44.652   2.130  13.121  0.00  0.00    +0.000 HD
ATOM     31  H   UNL     1      43.084   1.664  12.485  0.00  0.00    +0.000 HD
ENDBRANCH  23  27
ENDBRANCH  18  19
ENDBRANCH   1  18
TORSDOF 5
ENDMDL
MODEL 6
REMARK VINA RESULT:    -7.221      3.213      5.970
REMARK INTER + INTRA:          -9.953
REMARK INTER:                  -8.916
REMARK INTRA:                  -1.037
REMARK UNBOUND:                -0.622
REMARK  Name = 
REMARK  9 active torsions:
REMARK  status: ('A' for Active; 'I' for Inactive)
REMARK    1  A    between atoms: C_1  and  C_2
REMARK    2  A    between atoms: N_4  and  C_5
REMARK    3  A    between atoms: C_9  and  C_10
REMARK    4  A    between atoms: C_10  and  C_11
REMARK    5  A    between atoms: C_10  and  C_12
REMARK    6  A    between atoms: C_10  and  C_13
REMARK    7  A    between atoms: C_13  and  N_14
REMARK    8  A    between atoms: C_18  and  C_19
REMARK    9  A    between atoms: C_26  and  C_27
REMARK                            x       y       z     vdW  Elec       q    Type
REMARK                         _______ _______ _______ _____ _____    ______ ____
ROOT
ATOM      1  C   UNL     1      48.777   8.309  13.377  0.00  0.00    +0.000 C 
ATOM      2  C   UNL     1      48.574   9.841  13.495  0.00  0.00    +0.000 C 
ATOM      3  C   UNL     1      49.300   7.968  11.967  0.00  0.00    +0.000 C 
ENDROOT
BRANCH   1   8
ATOM      4  C   UNL     1      50.354   6.408  16.368  0.00  0.00    +0.000 A 
ATOM      5  C   UNL     1      51.685   6.823  16.267  0.00  0.00    +0.000 A 
ATOM      6  C   UNL     1      52.085   7.757  15.316  0.00  0.00    +0.000 A 
ATOM      7  C   UNL     1      51.162   8.274  14.410  0.00  0.00    +0.000 A 
ATOM      8  C   UNL     1      49.817   7.878  14.445  0.00  0.00    +0.000 A 
ATOM      9  C   UNL     1      49.439   6.985  15.471  0.00  0.00    +0.000 A 
BRANCH   4  13
ATOM     10  C   UNL     1      47.387   4.156  16.062  0.00  0.00    +0.000 C 
ATOM     11  C   UNL     1      47.896   4.133  17.503  0.00  0.00    +0.000 C 
ATOM     12  C   UNL     1      48.641   5.421  17.905  0.00  0.00    +0.000 C 
ATOM     13  N   UNL     1      49.982   5.472  17.311  0.00  0.00    +0.000 N 
ATOM     14  C   UNL     1      50.783   4.250  17.506  0.00  0.00    +0.000 C 
ATOM     15  C   UNL     1      49.971   2.997  17.105  0.00  0.00    +0.000 C 
ATOM     16  C   UNL     1      50.723   1.728  17.489  0.00  0.00    +0.000 C 
ATOM     17  O   UNL     1      48.687   2.956  17.758  0.00  0.00    +0.000 OA
ENDBRANCH   4  13
ENDBRANCH   1   8
BRANCH   1  18
ATOM     18  C   UNL     1      47.401   7.612  13.604  0.00  0.00    +0.000 C 
BRANCH  18  19
ATOM     19  N   UNL     1      46.549   7.553  12.422  0.00  0.00    +0.000 N 
ATOM     20  C   UNL     1      45.969   6.340  12.082  0.00  0.00    +0.000 A 
ATOM     21  C   UNL     1      45.590   5.356  13.006  0.00  0.00    +0.000 A 
ATOM     22  N   UNL     1      44.969   4.189  12.685  0.00  0.00    +0.000 NA
ATOM     23  C   UNL     1      44.698   4.047  11.361  0.00  0.00    +0.000 A 
ATOM     24  C   UNL     1      45.062   5.005  10.431  0.00  0.00    +0.000 A 
ATOM     25  N   UNL     1      45.710   6.156  10.771  0.00  0.00    +0.000 NA
ATOM     26  H   UNL     1      46.908   7.966  11.562  0.00  0.00    +0.000 HD
BRANCH  23  27
ATOM     27  C   UNL     1      43.961   2.823  10.935  0.00  0.00    +0.000 C 
ATOM     28  N   UNL     1      44.468   2.146   9.852  0.00  0.00    +0.000 N 
ATOM     29  O   UNL     1      42.961   2.434  11.518  0.00  0.00    +0.000 OA
ATOM     30  H   UNL     1      45.309   2.463   9.383  0.00  0.00    +0.000 HD
ATOM     31  H   UNL     1      44.004   1.302   9.548  0.00  0.00    +0.000 HD
ENDBRANCH  23  27
ENDBRANCH  18  19
ENDBRANCH   1  18
TORSDOF 5
ENDMDL
MODEL 7
REMARK VINA RESULT:    -7.184      2.895      5.519
REMARK INTER + INTRA:          -9.905
REMARK INTER:                  -8.603
REMARK INTRA:                  -1.303
REMARK UNBOUND:                -0.622
REMARK  Name = 
REMARK  9 active torsions:
REMARK  status: ('A' for Active; 'I' for Inactive)
REMARK    1  A    between atoms: C_1  and  C_2
REMARK    2  A    between atoms: N_4  and  C_5
REMARK    3  A    between atoms: C_9  and  C_10
REMARK    4  A    between atoms: C_10  and  C_11
REMARK    5  A    between atoms: C_10  and  C_12
REMARK    6  A    between atoms: C_10  and  C_13
REMARK    7  A    between atoms: C_13  and  N_14
REMARK    8  A    between atoms: C_18  and  C_19
REMARK    9  A    between atoms: C_26  and  C_27
REMARK                            x       y       z     vdW  Elec       q    Type
REMARK                         _______ _______ _______ _____ _____    ______ ____
ROOT
ATOM      1  C   UNL     1      48.447   4.470  17.227  0.00  0.00    +0.000 C 
ATOM      2  C   UNL     1      49.103   3.065  17.195  0.00  0.00    +0.000 C 
ATOM      3  C   UNL     1      48.088   4.835  18.683  0.00  0.00    +0.000 C 
ENDROOT
BRANCH   1   8
ATOM      4  C   UNL     1      49.853   7.580  15.384  0.00  0.00    +0.000 A 
ATOM      5  C   UNL     1      51.187   7.549  15.803  0.00  0.00    +0.000 A 
ATOM      6  C   UNL     1      51.676   6.517  16.598  0.00  0.00    +0.000 A 
ATOM      7  C   UNL     1      50.825   5.501  17.029  0.00  0.00    +0.000 A 
ATOM      8  C   UNL     1      49.470   5.490  16.664  0.00  0.00    +0.000 A 
ATOM      9  C   UNL     1      49.034   6.516  15.797  0.00  0.00    +0.000 A 
BRANCH   4  13
ATOM     10  C   UNL     1      50.045   7.684  11.653  0.00  0.00    +0.000 C 
ATOM     11  C   UNL     1      49.714   9.078  12.185  0.00  0.00    +0.000 C 
ATOM     12  C   UNL     1      50.221   9.318  13.620  0.00  0.00    +0.000 C 
ATOM     13  N   UNL     1      49.388   8.620  14.606  0.00  0.00    +0.000 N 
ATOM     14  C   UNL     1      47.941   8.848  14.453  0.00  0.00    +0.000 C 
ATOM     15  C   UNL     1      47.503   8.612  12.989  0.00  0.00    +0.000 C 
ATOM     16  C   UNL     1      46.052   9.034  12.790  0.00  0.00    +0.000 C 
ATOM     17  O   UNL     1      48.307   9.364  12.060  0.00  0.00    +0.000 OA
ENDBRANCH   4  13
ENDBRANCH   1   8
BRANCH   1  18
ATOM     18  C   UNL     1      47.148   4.427  16.367  0.00  0.00    +0.000 C 
BRANCH  18  19
ATOM     19  N   UNL     1      47.253   3.631  15.150  0.00  0.00    +0.000 N 
ATOM     20  C   UNL     1      46.468   3.978  14.061  0.00  0.00    +0.000 A 
ATOM     21  C   UNL     1      46.071   5.287  13.754  0.00  0.00    +0.000 A 
ATOM     22  N   UNL     1      45.349   5.642  12.657  0.00  0.00    +0.000 NA
ATOM     23  C   UNL     1      45.054   4.609  11.825  0.00  0.00    +0.000 A 
ATOM     24  C   UNL     1      45.437   3.308  12.106  0.00  0.00    +0.000 A 
ATOM     25  N   UNL     1      46.136   2.971  13.227  0.00  0.00    +0.000 NA
ATOM     26  H   UNL     1      47.205   2.617  15.244  0.00  0.00    +0.000 HD
BRANCH  23  27
ATOM     27  C   UNL     1      44.320   4.924  10.566  0.00  0.00    +0.000 C 
ATOM     28  N   UNL     1      45.073   5.013   9.421  0.00  0.00    +0.000 N 
ATOM     29  O   UNL     1      43.111   5.090  10.547  0.00  0.00    +0.000 OA
ATOM     30  H   UNL     1      46.075   4.855   9.439  0.00  0.00    +0.000 HD
ATOM     31  H   UNL     1      44.606   5.206   8.547  0.00  0.00    +0.000 HD
ENDBRANCH  23  27
ENDBRANCH  18  19
ENDBRANCH   1  18
TORSDOF 5
ENDMDL
MODEL 8
REMARK VINA RESULT:    -6.634      4.009      6.305
REMARK INTER + INTRA:          -9.195
REMARK INTER:                  -8.308
REMARK INTRA:                  -0.886
REMARK UNBOUND:                -0.622
REMARK  Name = 
REMARK  9 active torsions:
REMARK  status: ('A' for Active; 'I' for Inactive)
REMARK    1  A    between atoms: C_1  and  C_2
REMARK    2  A    between atoms: N_4  and  C_5
REMARK    3  A    between atoms: C_9  and  C_10
REMARK    4  A    between atoms: C_10  and  C_11
REMARK    5  A    between atoms: C_10  and  C_12
REMARK    6  A    between atoms: C_10  and  C_13
REMARK    7  A    between atoms: C_13  and  N_14
REMARK    8  A    between atoms: C_18  and  C_19
REMARK    9  A    between atoms: C_26  and  C_27
REMARK                            x       y       z     vdW  Elec       q    Type
REMARK                         _______ _______ _______ _____ _____    ______ ____
ROOT
ATOM      1  C   UNL     1      48.111   3.544  17.116  0.00  0.00    +0.000 C 
ATOM      2  C   UNL     1      49.224   2.619  16.558  0.00  0.00    +0.000 C 
ATOM      3  C   UNL     1      47.038   2.689  17.819  0.00  0.00    +0.000 C 
ENDROOT
BRANCH   1   8
ATOM      4  C   UNL     1      49.533   6.822  18.627  0.00  0.00    +0.000 A 
ATOM      5  C   UNL     1      49.694   6.443  19.963  0.00  0.00    +0.000 A 
ATOM      6  C   UNL     1      49.434   5.144  20.388  0.00  0.00    +0.000 A 
ATOM      7  C   UNL     1      48.967   4.192  19.483  0.00  0.00    +0.000 A 
ATOM      8  C   UNL     1      48.762   4.517  18.134  0.00  0.00    +0.000 A 
ATOM      9  C   UNL     1      49.107   5.826  17.733  0.00  0.00    +0.000 A 
BRANCH   4  13
ATOM     10  C   UNL     1      48.620   8.235  15.290  0.00  0.00    +0.000 C 
ATOM     11  C   UNL     1      49.602   9.174  15.988  0.00  0.00    +0.000 C 
ATOM     12  C   UNL     1      50.513   8.456  17.003  0.00  0.00    +0.000 C 
ATOM     13  N   UNL     1      49.785   8.120  18.232  0.00  0.00    +0.000 N 
ATOM     14  C   UNL     1      49.027   9.239  18.818  0.00  0.00    +0.000 C 
ATOM     15  C   UNL     1      48.153   9.927  17.745  0.00  0.00    +0.000 C 
ATOM     16  C   UNL     1      47.523  11.198  18.303  0.00  0.00    +0.000 C 
ATOM     17  O   UNL     1      48.920  10.295  16.582  0.00  0.00    +0.000 OA
ENDBRANCH   4  13
ENDBRANCH   1   8
BRANCH   1  18
ATOM     18  C   UNL     1      47.466   4.312  15.923  0.00  0.00    +0.000 C 
BRANCH  18  19
ATOM     19  N   UNL     1      47.283   3.514  14.716  0.00  0.00    +0.000 N 
ATOM     20  C   UNL     1      46.350   3.934  13.779  0.00  0.00    +0.000 A 
ATOM     21  C   UNL     1      46.023   5.275  13.531  0.00  0.00    +0.000 A 
ATOM     22  N   UNL     1      45.153   5.696  12.575  0.00  0.00    +0.000 NA
ATOM     23  C   UNL     1      44.625   4.697  11.821  0.00  0.00    +0.000 A 
ATOM     24  C   UNL     1      44.934   3.366  12.046  0.00  0.00    +0.000 A 
ATOM     25  N   UNL     1      45.788   2.963  13.030  0.00  0.00    +0.000 NA
ATOM     26  H   UNL     1      47.162   2.509  14.830  0.00  0.00    +0.000 HD
BRANCH  23  27
ATOM     27  C   UNL     1      43.710   5.081  10.708  0.00  0.00    +0.000 C 
ATOM     28  N   UNL     1      44.052   4.643   9.453  0.00  0.00    +0.000 N 
ATOM     29  O   UNL     1      42.704   5.746  10.899  0.00  0.00    +0.000 OA
ATOM     30  H   UNL     1      44.878   4.074   9.302  0.00  0.00    +0.000 HD
ATOM     31  H   UNL     1      43.444   4.868   8.678  0.00  0.00    +0.000 HD
ENDBRANCH  23  27
ENDBRANCH  18  19
ENDBRANCH   1  18
TORSDOF 5
ENDMDL
MODEL 9
REMARK VINA RESULT:    -6.237      4.327      6.886
REMARK INTER + INTRA:          -8.682
REMARK INTER:                  -7.817
REMARK INTRA:                  -0.865
REMARK UNBOUND:                -0.622
REMARK  Name = 
REMARK  9 active torsions:
REMARK  status: ('A' for Active; 'I' for Inactive)
REMARK    1  A    between atoms: C_1  and  C_2
REMARK    2  A    between atoms: N_4  and  C_5
REMARK    3  A    between atoms: C_9  and  C_10
REMARK    4  A    between atoms: C_10  and  C_11
REMARK    5  A    between atoms: C_10  and  C_12
REMARK    6  A    between atoms: C_10  and  C_13
REMARK    7  A    between atoms: C_13  and  N_14
REMARK    8  A    between atoms: C_18  and  C_19
REMARK    9  A    between atoms: C_26  and  C_27
REMARK                            x       y       z     vdW  Elec       q    Type
REMARK                         _______ _______ _______ _____ _____    ______ ____
ROOT
ATOM      1  C   UNL     1      48.328   4.404  16.834  0.00  0.00    +0.000 C 
ATOM      2  C   UNL     1      47.167   3.475  17.274  0.00  0.00    +0.000 C 
ATOM      3  C   UNL     1      48.282   5.707  17.658  0.00  0.00    +0.000 C 
ENDROOT
BRANCH   1   8
ATOM      4  C   UNL     1      51.971   3.758  17.998  0.00  0.00    +0.000 A 
ATOM      5  C   UNL     1      52.046   2.369  17.857  0.00  0.00    +0.000 A 
ATOM      6  C   UNL     1      50.991   1.633  17.325  0.00  0.00    +0.000 A 
ATOM      7  C   UNL     1      49.809   2.272  16.954  0.00  0.00    +0.000 A 
ATOM      8  C   UNL     1      49.663   3.660  17.094  0.00  0.00    +0.000 A 
ATOM      9  C   UNL     1      50.784   4.375  17.569  0.00  0.00    +0.000 A 
BRANCH   4  13
ATOM     10  C   UNL     1      54.304   5.917  16.032  0.00  0.00    +0.000 C 
ATOM     11  C   UNL     1      54.895   5.659  17.417  0.00  0.00    +0.000 C 
ATOM     12  C   UNL     1      54.404   4.344  18.053  0.00  0.00    +0.000 C 
ATOM     13  N   UNL     1      53.026   4.465  18.539  0.00  0.00    +0.000 N 
ATOM     14  C   UNL     1      52.777   5.647  19.381  0.00  0.00    +0.000 C 
ATOM     15  C   UNL     1      53.311   6.927  18.696  0.00  0.00    +0.000 C 
ATOM     16  C   UNL     1      53.230   8.115  19.648  0.00  0.00    +0.000 C 
ATOM     17  O   UNL     1      54.686   6.785  18.291  0.00  0.00    +0.000 OA
ENDBRANCH   4  13
ENDBRANCH   1   8
BRANCH   1  18
ATOM     18  C   UNL     1      48.144   4.738  15.322  0.00  0.00    +0.000 C 
BRANCH  18  19
ATOM     19  N   UNL     1      46.838   5.287  14.977  0.00  0.00    +0.000 N 
ATOM     20  C   UNL     1      46.236   4.875  13.797  0.00  0.00    +0.000 A 
ATOM     21  C   UNL     1      46.398   3.605  13.226  0.00  0.00    +0.000 A 
ATOM     22  N   UNL     1      45.767   3.175  12.100  0.00  0.00    +0.000 NA
ATOM     23  C   UNL     1      44.908   4.080  11.562  0.00  0.00    +0.000 A 
ATOM     24  C   UNL     1      44.731   5.339  12.109  0.00  0.00    +0.000 A 
ATOM     25  N   UNL     1      45.396   5.760  13.223  0.00  0.00    +0.000 NA
ATOM     26  H   UNL     1      46.720   6.297  15.038  0.00  0.00    +0.000 HD
BRANCH  23  27
ATOM     27  C   UNL     1      44.128   3.662  10.362  0.00  0.00    +0.000 C 
ATOM     28  N   UNL     1      43.814   4.649   9.460  0.00  0.00    +0.000 N 
ATOM     29  O   UNL     1      43.789   2.503  10.182  0.00  0.00    +0.000 OA
ATOM     30  H   UNL     1      44.114   5.607   9.604  0.00  0.00    +0.000 HD
ATOM     31  H   UNL     1      43.303   4.398   8.625  0.00  0.00    +0.000 HD
ENDBRANCH  23  27
ENDBRANCH  18  19
ENDBRANCH   1  18
TORSDOF 5
ENDMDL
