MODEL 1
REMARK VINA RESULT:    -7.211      0.000      0.000
REMARK INTER + INTRA:          -9.767
REMARK INTER:                  -9.108
REMARK INTRA:                  -0.659
REMARK UNBOUND:                -0.659
REMARK  Name = 
REMARK  5 active torsions:
REMARK  status: ('A' for Active; 'I' for Inactive)
REMARK    1  A    between atoms: N_1  and  C_2
REMARK    2  A    between atoms: C_2  and  C_3
REMARK    3  A    between atoms: C_6  and  C_7
REMARK    4  A    between atoms: C_7  and  N_8
REMARK    5  A    between atoms: C_13  and  C_14
REMARK                            x       y       z     vdW  Elec       q    Type
REMARK                         _______ _______ _______ _____ _____    ______ ____
ROOT
ATOM      1  N   UNL     1      44.578   5.067  10.571  0.00  0.00    +0.000 N 
ATOM      2  C   UNL     1      43.794   4.115  11.182  0.00  0.00    +0.000 A 
ATOM      3  C   UNL     1      44.057   2.899  10.591  0.00  0.00    +0.000 A 
ATOM      4  C   UNL     1      44.956   3.134   9.520  0.00  0.00    +0.000 A 
ATOM      5  C   UNL     1      45.552   2.324   8.539  0.00  0.00    +0.000 A 
ATOM      6  C   UNL     1      46.354   2.946   7.579  0.00  0.00    +0.000 A 
ATOM      7  C   UNL     1      46.548   4.324   7.671  0.00  0.00    +0.000 A 
ATOM      8  N   UNL     1      46.028   5.144   8.626  0.00  0.00    +0.000 NA
ATOM      9  C   UNL     1      45.242   4.498   9.508  0.00  0.00    +0.000 A 
ENDROOT
BRANCH   6  10
ATOM     10  C   UNL     1      46.992   2.215   6.457  0.00  0.00    +0.000 C 
ATOM     11  N   UNL     1      47.405   2.923   5.361  0.00  0.00    +0.000 N 
ATOM     12  O   UNL     1      47.170   1.003   6.502  0.00  0.00    +0.000 OA
ATOM     13  H   UNL     1      47.327   3.921   5.242  0.00  0.00    +0.000 HD
ATOM     14  H   UNL     1      47.861   2.401   4.622  0.00  0.00    +0.000 HD
ENDBRANCH   6  10
BRANCH   1  15
ATOM     15  C   UNL     1      44.672   6.458  10.996  0.00  0.00    +0.000 C 
BRANCH  15  19
ATOM     16  C   UNL     1      47.699   8.502  12.149  0.00  0.00    +0.000 C 
ATOM     17  C   UNL     1      47.750   7.028  11.707  0.00  0.00    +0.000 C 
ATOM     18  C   UNL     1      46.769   6.134  12.464  0.00  0.00    +0.000 C 
ATOM     19  C   UNL     1      45.319   6.639  12.392  0.00  0.00    +0.000 C 
ATOM     20  C   UNL     1      45.258   8.099  12.867  0.00  0.00    +0.000 C 
ATOM     21  C   UNL     1      46.248   9.018  12.150  0.00  0.00    +0.000 C 
BRANCH  16  22
ATOM     22  C   UNL     1      48.388   8.758  13.508  0.00  0.00    +0.000 C 
BRANCH  22  23
ATOM     23  N   UNL     1      48.114  10.101  14.013  0.00  0.00    +0.000 NA
ATOM     24  H   UNL     1      48.846  10.377  14.667  0.00  0.00    +0.000 HD
ATOM     25  H   UNL     1      47.246  10.094  14.549  0.00  0.00    +0.000 HD
ENDBRANCH  22  23
ENDBRANCH  16  22
ENDBRANCH  15  19
ENDBRANCH   1  15
TORSDOF 5
ENDMDL
MODEL 2
REMARK VINA RESULT:    -5.909      4.982      8.344
REMARK INTER + INTRA:          -8.122
REMARK INTER:                  -7.634
REMARK INTRA:                  -0.488
REMARK UNBOUND:                -0.659
REMARK  Name = 
REMARK  5 active torsions:
REMARK  status: ('A' for Active; 'I' for Inactive)
REMARK    1  A    between atoms: N_1  and  C_2
REMARK    2  A    between atoms: C_2  and  C_3
REMARK    3  A    between atoms: C_6  and  C_7
REMARK    4  A    between atoms: C_7  and  N_8
REMARK    5  A    between atoms: C_13  and  C_14
REMARK                            x       y       z     vdW  Elec       q    Type
REMARK                         _______ _______ _______ _____ _____    ______ ____
ROOT
ATOM      1  N   UNL     1      48.186   6.563  14.256  0.00  0.00    +0.000 N 
ATOM      2  C   UNL     1      48.659   7.849  14.386  0.00  0.00    +0.000 A 
ATOM      3  C   UNL     1      49.245   7.965  15.626  0.00  0.00    +0.000 A 
ATOM      4  C   UNL     1      49.036   6.742  16.312  0.00  0.00    +0.000 A 
ATOM      5  C   UNL     1      49.350   6.266  17.596  0.00  0.00    +0.000 A 
ATOM      6  C   UNL     1      48.905   4.989  17.945  0.00  0.00    +0.000 A 
ATOM      7  C   UNL     1      48.210   4.247  16.990  0.00  0.00    +0.000 A 
ATOM      8  N   UNL     1      47.918   4.647  15.722  0.00  0.00    +0.000 NA
ATOM      9  C   UNL     1      48.346   5.894  15.448  0.00  0.00    +0.000 A 
ENDROOT
BRANCH   6  10
ATOM     10  C   UNL     1      49.119   4.393  19.286  0.00  0.00    +0.000 C 
ATOM     11  N   UNL     1      48.428   3.259  19.620  0.00  0.00    +0.000 N 
ATOM     12  O   UNL     1      49.908   4.883  20.086  0.00  0.00    +0.000 OA
ATOM     13  H   UNL     1      47.779   2.769  19.025  0.00  0.00    +0.000 HD
ATOM     14  H   UNL     1      48.613   2.860  20.533  0.00  0.00    +0.000 HD
ENDBRANCH   6  10
BRANCH   1  15
ATOM     15  C   UNL     1      47.605   6.015  13.036  0.00  0.00    +0.000 C 
BRANCH  15  19
ATOM     16  C   UNL     1      44.989   4.233  10.880  0.00  0.00    +0.000 C 
ATOM     17  C   UNL     1      45.677   5.559  10.510  0.00  0.00    +0.000 C 
ATOM     18  C   UNL     1      45.554   6.628  11.595  0.00  0.00    +0.000 C 
ATOM     19  C   UNL     1      46.063   6.153  12.965  0.00  0.00    +0.000 C 
ATOM     20  C   UNL     1      45.352   4.848  13.355  0.00  0.00    +0.000 C 
ATOM     21  C   UNL     1      45.430   3.764  12.279  0.00  0.00    +0.000 C 
BRANCH  16  22
ATOM     22  C   UNL     1      43.450   4.289  10.765  0.00  0.00    +0.000 C 
BRANCH  22  23
ATOM     23  N   UNL     1      42.811   3.167  11.448  0.00  0.00    +0.000 NA
ATOM     24  H   UNL     1      43.078   2.293  10.995  0.00  0.00    +0.000 HD
ATOM     25  H   UNL     1      41.798   3.237  11.348  0.00  0.00    +0.000 HD
ENDBRANCH  22  23
ENDBRANCH  16  22
ENDBRANCH  15  19
ENDBRANCH   1  15
TORSDOF 5
ENDMDL
MODEL 3
REMARK VINA RESULT:    -5.888      4.729      6.191
REMARK INTER + INTRA:          -8.097
REMARK INTER:                  -7.653
REMARK INTRA:                  -0.444
REMARK UNBOUND:                -0.659
REMARK  Name = 
REMARK  5 active torsions:
REMARK  status: ('A' for Active; 'I' for Inactive)
REMARK    1  A    between atoms: N_1  and  C_2
REMARK    2  A    between atoms: C_2  and  C_3
REMARK    3  A    between atoms: C_6  and  C_7
REMARK    4  A    between atoms: C_7  and  N_8
REMARK    5  A    between atoms: C_13  and  C_14
REMARK                            x       y       z     vdW  Elec       q    Type
REMARK                         _______ _______ _______ _____ _____    ______ ____
ROOT
ATOM      1  N   UNL     1      47.492   5.404  14.570  0.00  0.00    +0.000 N 
ATOM      2  C   UNL     1      48.036   6.589  14.128  0.00  0.00    +0.000 A 
ATOM      3  C   UNL     1      47.451   6.905  12.922  0.00  0.00    +0.000 A 
ATOM      4  C   UNL     1      46.598   5.829  12.569  0.00  0.00    +0.000 A 
ATOM      5  C   UNL     1      45.778   5.544  11.465  0.00  0.00    +0.000 A 
ATOM      6  C   UNL     1      45.121   4.311  11.442  0.00  0.00    +0.000 A 
ATOM      7  C   UNL     1      45.283   3.454  12.531  0.00  0.00    +0.000 A 
ATOM      8  N   UNL     1      46.031   3.703  13.641  0.00  0.00    +0.000 NA
ATOM      9  C   UNL     1      46.664   4.891  13.598  0.00  0.00    +0.000 A 
ENDROOT
BRANCH   6  10
ATOM     10  C   UNL     1      44.274   3.863  10.309  0.00  0.00    +0.000 C 
ATOM     11  N   UNL     1      44.131   4.689   9.227  0.00  0.00    +0.000 N 
ATOM     12  O   UNL     1      43.721   2.769  10.318  0.00  0.00    +0.000 OA
ATOM     13  H   UNL     1      44.564   5.592   9.116  0.00  0.00    +0.000 HD
ATOM     14  H   UNL     1      43.568   4.346   8.459  0.00  0.00    +0.000 HD
ENDBRANCH   6  10
BRANCH   1  15
ATOM     15  C   UNL     1      47.768   4.800  15.868  0.00  0.00    +0.000 C 
BRANCH  15  19
ATOM     16  C   UNL     1      48.658   4.641  19.589  0.00  0.00    +0.000 C 
ATOM     17  C   UNL     1      47.613   5.590  18.976  0.00  0.00    +0.000 C 
ATOM     18  C   UNL     1      48.163   6.434  17.826  0.00  0.00    +0.000 C 
ATOM     19  C   UNL     1      48.801   5.588  16.713  0.00  0.00    +0.000 C 
ATOM     20  C   UNL     1      49.870   4.664  17.316  0.00  0.00    +0.000 C 
ATOM     21  C   UNL     1      49.362   3.825  18.490  0.00  0.00    +0.000 C 
BRANCH  16  22
ATOM     22  C   UNL     1      49.680   5.360  20.498  0.00  0.00    +0.000 C 
BRANCH  22  23
ATOM     23  N   UNL     1      50.784   4.482  20.878  0.00  0.00    +0.000 NA
ATOM     24  H   UNL     1      51.543   5.037  21.272  0.00  0.00    +0.000 HD
ATOM     25  H   UNL     1      51.166   4.033  20.046  0.00  0.00    +0.000 HD
ENDBRANCH  22  23
ENDBRANCH  16  22
ENDBRANCH  15  19
ENDBRANCH   1  15
TORSDOF 5
ENDMDL
MODEL 4
REMARK VINA RESULT:    -5.349      2.568      3.260
REMARK INTER + INTRA:          -7.416
REMARK INTER:                  -9.051
REMARK INTRA:                   1.635
REMARK UNBOUND:                -0.659
REMARK  Name = 
REMARK  5 active torsions:
REMARK  status: ('A' for Active; 'I' for Inactive)
REMARK    1  A    between atoms: N_1  and  C_2
REMARK    2  A    between atoms: C_2  and  C_3
REMARK    3  A    between atoms: C_6  and  C_7
REMARK    4  A    between atoms: C_7  and  N_8
REMARK    5  A    between atoms: C_13  and  C_14
REMARK                            x       y       z     vdW  Elec       q    Type
REMARK                         _______ _______ _______ _____ _____    ______ ____
ROOT
ATOM      1  N   UNL     1      44.218   4.704  10.227  0.00  0.00    +0.000 N 
ATOM      2  C   UNL     1      44.984   5.829  10.020  0.00  0.00    +0.000 A 
ATOM      3  C   UNL     1      45.956   5.520   9.094  0.00  0.00    +0.000 A 
ATOM      4  C   UNL     1      45.840   4.137   8.801  0.00  0.00    +0.000 A 
ATOM      5  C   UNL     1      46.551   3.241   7.987  0.00  0.00    +0.000 A 
ATOM      6  C   UNL     1      46.172   1.896   8.012  0.00  0.00    +0.000 A 
ATOM      7  C   UNL     1      45.089   1.529   8.811  0.00  0.00    +0.000 A 
ATOM      8  N   UNL     1      44.344   2.366   9.584  0.00  0.00    +0.000 NA
ATOM      9  C   UNL     1      44.769   3.643   9.544  0.00  0.00    +0.000 A 
ENDROOT
BRANCH   6  10
ATOM     10  C   UNL     1      46.876   0.839   7.245  0.00  0.00    +0.000 C 
ATOM     11  N   UNL     1      46.755  -0.462   7.654  0.00  0.00    +0.000 N 
ATOM     12  O   UNL     1      47.543   1.106   6.252  0.00  0.00    +0.000 OA
ATOM     13  H   UNL     1      46.211  -0.783   8.439  0.00  0.00    +0.000 HD
ATOM     14  H   UNL     1      47.226  -1.164   7.097  0.00  0.00    +0.000 HD
ENDBRANCH   6  10
BRANCH   1  15
ATOM     15  C   UNL     1      43.016   4.662  11.049  0.00  0.00    +0.000 C 
BRANCH  15  19
ATOM     16  C   UNL     1      46.296   4.618  13.027  0.00  0.00    +0.000 C 
ATOM     17  C   UNL     1      45.600   3.372  12.450  0.00  0.00    +0.000 C 
ATOM     18  C   UNL     1      44.141   3.238  12.884  0.00  0.00    +0.000 C 
ATOM     19  C   UNL     1      43.303   4.486  12.562  0.00  0.00    +0.000 C 
ATOM     20  C   UNL     1      43.975   5.728  13.166  0.00  0.00    +0.000 C 
ATOM     21  C   UNL     1      45.446   5.878  12.776  0.00  0.00    +0.000 C 
BRANCH  16  22
ATOM     22  C   UNL     1      46.668   4.478  14.519  0.00  0.00    +0.000 C 
BRANCH  22  23
ATOM     23  N   UNL     1      47.426   3.257  14.780  0.00  0.00    +0.000 NA
ATOM     24  H   UNL     1      47.035   2.488  14.237  0.00  0.00    +0.000 HD
ATOM     25  H   UNL     1      47.321   2.992  15.759  0.00  0.00    +0.000 HD
ENDBRANCH  22  23
ENDBRANCH  16  22
ENDBRANCH  15  19
ENDBRANCH   1  15
TORSDOF 5
ENDMDL
MODEL 5
REMARK VINA RESULT:    -5.305      3.749      5.667
REMARK INTER + INTRA:          -7.359
REMARK INTER:                  -6.901
REMARK INTRA:                  -0.459
REMARK UNBOUND:                -0.659
REMARK  Name = 
REMARK  5 active torsions:
REMARK  status: ('A' for Active; 'I' for Inactive)
REMARK    1  A    between atoms: N_1  and  C_2
REMARK    2  A    between atoms: C_2  and  C_3
REMARK    3  A    between atoms: C_6  and  C_7
REMARK    4  A    between atoms: C_7  and  N_8
REMARK    5  A    between atoms: C_13  and  C_14
REMARK                            x       y       z     vdW  Elec       q    Type
REMARK                         _______ _______ _______ _____ _____    ______ ____
ROOT
ATOM      1  N   UNL     1      47.871   6.379  13.751  0.00  0.00    +0.000 N 
ATOM      2  C   UNL     1      48.470   7.304  12.926  0.00  0.00    +0.000 A 
ATOM      3  C   UNL     1      47.751   7.362  11.754  0.00  0.00    +0.000 A 
ATOM      4  C   UNL     1      46.740   6.370  11.826  0.00  0.00    +0.000 A 
ATOM      5  C   UNL     1      45.738   5.920  10.951  0.00  0.00    +0.000 A 
ATOM      6  C   UNL     1      44.952   4.840  11.361  0.00  0.00    +0.000 A 
ATOM      7  C   UNL     1      45.179   4.298  12.626  0.00  0.00    +0.000 A 
ATOM      8  N   UNL     1      46.107   4.726  13.525  0.00  0.00    +0.000 NA
ATOM      9  C   UNL     1      46.855   5.749  13.069  0.00  0.00    +0.000 A 
ENDROOT
BRANCH   6  10
ATOM     10  C   UNL     1      43.900   4.231  10.509  0.00  0.00    +0.000 C 
ATOM     11  N   UNL     1      43.930   4.463   9.161  0.00  0.00    +0.000 N 
ATOM     12  O   UNL     1      43.025   3.517  10.986  0.00  0.00    +0.000 OA
ATOM     13  H   UNL     1      44.621   5.012   8.674  0.00  0.00    +0.000 HD
ATOM     14  H   UNL     1      43.215   4.013   8.602  0.00  0.00    +0.000 HD
ENDBRANCH   6  10
BRANCH   1  15
ATOM     15  C   UNL     1      48.269   6.118  15.129  0.00  0.00    +0.000 C 
BRANCH  15  19
ATOM     16  C   UNL     1      49.589   6.717  18.674  0.00  0.00    +0.000 C 
ATOM     17  C   UNL     1      48.368   7.425  18.060  0.00  0.00    +0.000 C 
ATOM     18  C   UNL     1      48.671   8.105  16.725  0.00  0.00    +0.000 C 
ATOM     19  C   UNL     1      49.282   7.149  15.689  0.00  0.00    +0.000 C 
ATOM     20  C   UNL     1      50.522   6.466  16.286  0.00  0.00    +0.000 C 
ATOM     21  C   UNL     1      50.263   5.799  17.637  0.00  0.00    +0.000 C 
BRANCH  16  22
ATOM     22  C   UNL     1      50.607   7.690  19.308  0.00  0.00    +0.000 C 
BRANCH  22  23
ATOM     23  N   UNL     1      49.953   8.700  20.137  0.00  0.00    +0.000 NA
ATOM     24  H   UNL     1      50.317   9.623  19.904  0.00  0.00    +0.000 HD
ATOM     25  H   UNL     1      50.188   8.543  21.117  0.00  0.00    +0.000 HD
ENDBRANCH  22  23
ENDBRANCH  16  22
ENDBRANCH  15  19
ENDBRANCH   1  15
TORSDOF 5
ENDMDL
MODEL 6
REMARK VINA RESULT:    -5.285      2.833      4.389
REMARK INTER + INTRA:          -7.335
REMARK INTER:                  -6.816
REMARK INTRA:                  -0.519
REMARK UNBOUND:                -0.659
REMARK  Name = 
REMARK  5 active torsions:
REMARK  status: ('A' for Active; 'I' for Inactive)
REMARK    1  A    between atoms: N_1  and  C_2
REMARK    2  A    between atoms: C_2  and  C_3
REMARK    3  A    between atoms: C_6  and  C_7
REMARK    4  A    between atoms: C_7  and  N_8
REMARK    5  A    between atoms: C_13  and  C_14
REMARK                            x       y       z     vdW  Elec       q    Type
REMARK                         _______ _______ _______ _____ _____    ______ ____
ROOT
ATOM      1  N   UNL     1      47.464   6.160  13.881  0.00  0.00    +0.000 N 
ATOM      2  C   UNL     1      47.478   5.248  14.912  0.00  0.00    +0.000 A 
ATOM      3  C   UNL     1      46.813   4.118  14.492  0.00  0.00    +0.000 A 
ATOM      4  C   UNL     1      46.291   4.387  13.201  0.00  0.00    +0.000 A 
ATOM      5  C   UNL     1      45.504   3.667  12.287  0.00  0.00    +0.000 A 
ATOM      6  C   UNL     1      45.120   4.311  11.108  0.00  0.00    +0.000 A 
ATOM      7  C   UNL     1      45.571   5.613  10.889  0.00  0.00    +0.000 A 
ATOM      8  N   UNL     1      46.368   6.336  11.722  0.00  0.00    +0.000 NA
ATOM      9  C   UNL     1      46.684   5.679  12.854  0.00  0.00    +0.000 A 
ENDROOT
BRANCH   6  10
ATOM     10  C   UNL     1      44.243   3.684  10.089  0.00  0.00    +0.000 C 
ATOM     11  N   UNL     1      43.957   4.383   8.947  0.00  0.00    +0.000 N 
ATOM     12  O   UNL     1      43.789   2.556  10.242  0.00  0.00    +0.000 OA
ATOM     13  H   UNL     1      44.301   5.302   8.719  0.00  0.00    +0.000 HD
ATOM     14  H   UNL     1      43.377   3.920   8.258  0.00  0.00    +0.000 HD
ENDBRANCH   6  10
BRANCH   1  15
ATOM     15  C   UNL     1      48.169   7.436  13.896  0.00  0.00    +0.000 C 
BRANCH  15  19
ATOM     16  C   UNL     1      50.426  10.144  12.399  0.00  0.00    +0.000 C 
ATOM     17  C   UNL     1      49.440   9.278  11.594  0.00  0.00    +0.000 C 
ATOM     18  C   UNL     1      49.642   7.778  11.804  0.00  0.00    +0.000 C 
ATOM     19  C   UNL     1      49.592   7.367  13.285  0.00  0.00    +0.000 C 
ATOM     20  C   UNL     1      50.600   8.205  14.086  0.00  0.00    +0.000 C 
ATOM     21  C   UNL     1      50.447   9.712  13.877  0.00  0.00    +0.000 C 
BRANCH  16  22
ATOM     22  C   UNL     1      51.850  10.169  11.800  0.00  0.00    +0.000 C 
BRANCH  22  23
ATOM     23  N   UNL     1      51.830  10.077  10.343  0.00  0.00    +0.000 NA
ATOM     24  H   UNL     1      52.270  10.905   9.941  0.00  0.00    +0.000 HD
ATOM     25  H   UNL     1      50.865  10.083  10.013  0.00  0.00    +0.000 HD
ENDBRANCH  22  23
ENDBRANCH  16  22
ENDBRANCH  15  19
ENDBRANCH   1  15
TORSDOF 5
ENDMDL
MODEL 7
REMARK VINA RESULT:    -5.160      2.156      3.350
REMARK INTER + INTRA:          -7.177
REMARK INTER:                  -6.628
REMARK INTRA:                  -0.549
REMARK UNBOUND:                -0.659
REMARK  Name = 
REMARK  5 active torsions:
REMARK  status: ('A' for Active; 'I' for Inactive)
REMARK    1  A    between atoms: N_1  and  C_2
REMARK    2  A    between atoms: C_2  and  C_3
REMARK    3  A    between atoms: C_6  and  C_7
REMARK    4  A    between atoms: C_7  and  N_8
REMARK    5  A    between atoms: C_13  and  C_14
REMARK                            x       y       z     vdW  Elec       q    Type
REMARK                         _______ _______ _______ _____ _____    ______ ____
ROOT
ATOM      1  N   UNL     1      46.246   6.349  12.647  0.00  0.00    +0.000 N 
ATOM      2  C   UNL     1      46.138   5.646  13.826  0.00  0.00    +0.000 A 
ATOM      3  C   UNL     1      45.800   4.347  13.520  0.00  0.00    +0.000 A 
ATOM      4  C   UNL     1      45.597   4.279  12.118  0.00  0.00    +0.000 A 
ATOM      5  C   UNL     1      45.206   3.266  11.228  0.00  0.00    +0.000 A 
ATOM      6  C   UNL     1      45.044   3.607   9.883  0.00  0.00    +0.000 A 
ATOM      7  C   UNL     1      45.318   4.919   9.495  0.00  0.00    +0.000 A 
ATOM      8  N   UNL     1      45.740   5.923  10.311  0.00  0.00    +0.000 NA
ATOM      9  C   UNL     1      45.852   5.548  11.600  0.00  0.00    +0.000 A 
ENDROOT
BRANCH   6  10
ATOM     10  C   UNL     1      44.579   2.647   8.852  0.00  0.00    +0.000 C 
ATOM     11  N   UNL     1      44.216   3.126   7.622  0.00  0.00    +0.000 N 
ATOM     12  O   UNL     1      44.531   1.443   9.074  0.00  0.00    +0.000 OA
ATOM     13  H   UNL     1      44.244   4.092   7.336  0.00  0.00    +0.000 HD
ATOM     14  H   UNL     1      43.927   2.445   6.931  0.00  0.00    +0.000 HD
ENDBRANCH   6  10
BRANCH   1  15
ATOM     15  C   UNL     1      46.705   7.728  12.545  0.00  0.00    +0.000 C 
BRANCH  15  19
ATOM     16  C   UNL     1      50.076   8.847  13.979  0.00  0.00    +0.000 C 
ATOM     17  C   UNL     1      49.055   9.780  13.303  0.00  0.00    +0.000 C 
ATOM     18  C   UNL     1      48.639   9.313  11.908  0.00  0.00    +0.000 C 
ATOM     19  C   UNL     1      48.103   7.873  11.893  0.00  0.00    +0.000 C 
ATOM     20  C   UNL     1      49.135   6.933  12.535  0.00  0.00    +0.000 C 
ATOM     21  C   UNL     1      49.596   7.385  13.921  0.00  0.00    +0.000 C 
BRANCH  16  22
ATOM     22  C   UNL     1      51.507   8.992  13.415  0.00  0.00    +0.000 C 
BRANCH  22  23
ATOM     23  N   UNL     1      52.392   7.934  13.896  0.00  0.00    +0.000 NA
ATOM     24  H   UNL     1      51.838   7.186  14.310  0.00  0.00    +0.000 HD
ATOM     25  H   UNL     1      52.981   8.297  14.646  0.00  0.00    +0.000 HD
ENDBRANCH  22  23
ENDBRANCH  16  22
ENDBRANCH  15  19
ENDBRANCH   1  15
TORSDOF 5
ENDMDL
MODEL 8
REMARK VINA RESULT:    -5.080      3.683      6.857
REMARK INTER + INTRA:          -7.076
REMARK INTER:                  -6.688
REMARK INTRA:                  -0.387
REMARK UNBOUND:                -0.659
REMARK  Name = 
REMARK  5 active torsions:
REMARK  status: ('A' for Active; 'I' for Inactive)
REMARK    1  A    between atoms: N_1  and  C_2
REMARK    2  A    between atoms: C_2  and  C_3
REMARK    3  A    between atoms: C_6  and  C_7
REMARK    4  A    between atoms: C_7  and  N_8
REMARK    5  A    between atoms: C_13  and  C_14
REMARK                            x       y       z     vdW  Elec       q    Type
REMARK                         _______ _______ _______ _____ _____    ______ ____
ROOT
ATOM      1  N   UNL     1      46.857   7.815  12.797  0.00  0.00    +0.000 N 
ATOM      2  C   UNL     1      46.053   8.932  12.830  0.00  0.00    +0.000 A 
ATOM      3  C   UNL     1      46.734   9.966  12.228  0.00  0.00    +0.000 A 
ATOM      4  C   UNL     1      48.031   9.492  11.907  0.00  0.00    +0.000 A 
ATOM      5  C   UNL     1      49.176  10.067  11.332  0.00  0.00    +0.000 A 
ATOM      6  C   UNL     1      50.325   9.278  11.238  0.00  0.00    +0.000 A 
ATOM      7  C   UNL     1      50.259   7.957  11.683  0.00  0.00    +0.000 A 
ATOM      8  N   UNL     1      49.164   7.343  12.207  0.00  0.00    +0.000 NA
ATOM      9  C   UNL     1      48.094   8.155  12.301  0.00  0.00    +0.000 A 
ENDROOT
BRANCH   6  10
ATOM     10  C   UNL     1      51.615   9.782  10.706  0.00  0.00    +0.000 C 
ATOM     11  N   UNL     1      51.777  11.131  10.540  0.00  0.00    +0.000 N 
ATOM     12  O   UNL     1      52.535   9.020  10.431  0.00  0.00    +0.000 OA
ATOM     13  H   UNL     1      51.092  11.836  10.760  0.00  0.00    +0.000 HD
ATOM     14  H   UNL     1      52.677  11.447  10.199  0.00  0.00    +0.000 HD
ENDBRANCH   6  10
BRANCH   1  15
ATOM     15  C   UNL     1      46.444   6.486  13.231  0.00  0.00    +0.000 C 
BRANCH  15  19
ATOM     16  C   UNL     1      45.044   3.623  11.106  0.00  0.00    +0.000 C 
ATOM     17  C   UNL     1      45.435   5.010  10.564  0.00  0.00    +0.000 C 
ATOM     18  C   UNL     1      44.757   6.162  11.305  0.00  0.00    +0.000 C 
ATOM     19  C   UNL     1      44.994   6.121  12.823  0.00  0.00    +0.000 C 
ATOM     20  C   UNL     1      44.572   4.750  13.373  0.00  0.00    +0.000 C 
ATOM     21  C   UNL     1      45.209   3.572  12.636  0.00  0.00    +0.000 C 
BRANCH  16  22
ATOM     22  C   UNL     1      43.630   3.174  10.677  0.00  0.00    +0.000 C 
BRANCH  22  23
ATOM     23  N   UNL     1      43.048   2.227  11.624  0.00  0.00    +0.000 NA
ATOM     24  H   UNL     1      42.032   2.311  11.613  0.00  0.00    +0.000 HD
ATOM     25  H   UNL     1      43.340   2.467  12.572  0.00  0.00    +0.000 HD
ENDBRANCH  22  23
ENDBRANCH  16  22
ENDBRANCH  15  19
ENDBRANCH   1  15
TORSDOF 5
ENDMDL
MODEL 9
REMARK VINA RESULT:    -4.932      4.215      7.973
REMARK INTER + INTRA:          -6.889
REMARK INTER:                  -6.394
REMARK INTRA:                  -0.495
REMARK UNBOUND:                -0.659
REMARK  Name = 
REMARK  5 active torsions:
REMARK  status: ('A' for Active; 'I' for Inactive)
REMARK    1  A    between atoms: N_1  and  C_2
REMARK    2  A    between atoms: C_2  and  C_3
REMARK    3  A    between atoms: C_6  and  C_7
REMARK    4  A    between atoms: C_7  and  N_8
REMARK    5  A    between atoms: C_13  and  C_14
REMARK                            x       y       z     vdW  Elec       q    Type
REMARK                         _______ _______ _______ _____ _____    ______ ____
ROOT
ATOM      1  N   UNL     1      47.817   7.366  13.180  0.00  0.00    +0.000 N 
ATOM      2  C   UNL     1      48.353   8.265  12.286  0.00  0.00    +0.000 A 
ATOM      3  C   UNL     1      49.662   8.498  12.646  0.00  0.00    +0.000 A 
ATOM      4  C   UNL     1      49.902   7.795  13.854  0.00  0.00    +0.000 A 
ATOM      5  C   UNL     1      51.001   7.672  14.720  0.00  0.00    +0.000 A 
ATOM      6  C   UNL     1      50.830   6.923  15.887  0.00  0.00    +0.000 A 
ATOM      7  C   UNL     1      49.596   6.310  16.106  0.00  0.00    +0.000 A 
ATOM      8  N   UNL     1      48.517   6.365  15.278  0.00  0.00    +0.000 NA
ATOM      9  C   UNL     1      48.726   7.122  14.184  0.00  0.00    +0.000 A 
ENDROOT
BRANCH   6  10
ATOM     10  C   UNL     1      51.891   6.763  16.912  0.00  0.00    +0.000 C 
ATOM     11  N   UNL     1      52.126   7.792  17.783  0.00  0.00    +0.000 N 
ATOM     12  O   UNL     1      52.543   5.729  17.001  0.00  0.00    +0.000 OA
ATOM     13  H   UNL     1      51.627   8.668  17.805  0.00  0.00    +0.000 HD
ATOM     14  H   UNL     1      52.838   7.645  18.487  0.00  0.00    +0.000 HD
ENDBRANCH   6  10
BRANCH   1  15
ATOM     15  C   UNL     1      46.488   6.778  13.066  0.00  0.00    +0.000 C 
BRANCH  15  19
ATOM     16  C   UNL     1      43.561   4.608  11.885  0.00  0.00    +0.000 C 
ATOM     17  C   UNL     1      44.405   4.336  13.143  0.00  0.00    +0.000 C 
ATOM     18  C   UNL     1      45.906   4.272  12.862  0.00  0.00    +0.000 C 
ATOM     19  C   UNL     1      46.438   5.527  12.152  0.00  0.00    +0.000 C 
ATOM     20  C   UNL     1      45.620   5.783  10.876  0.00  0.00    +0.000 C 
ATOM     21  C   UNL     1      44.111   5.824  11.115  0.00  0.00    +0.000 C 
BRANCH  16  22
ATOM     22  C   UNL     1      43.419   3.377  10.964  0.00  0.00    +0.000 C 
BRANCH  22  23
ATOM     23  N   UNL     1      43.017   2.185  11.706  0.00  0.00    +0.000 NA
ATOM     24  H   UNL     1      42.532   2.459  12.559  0.00  0.00    +0.000 HD
ATOM     25  H   UNL     1      43.847   1.673  12.006  0.00  0.00    +0.000 HD
ENDBRANCH  22  23
ENDBRANCH  16  22
ENDBRANCH  15  19
ENDBRANCH   1  15
TORSDOF 5
ENDMDL
