MODEL 1
REMARK VINA RESULT:    -8.882      0.000      0.000
REMARK INTER + INTRA:         -12.666
REMARK INTER:                 -11.998
REMARK INTRA:                  -0.668
REMARK UNBOUND:                -0.668
REMARK  Name = 
REMARK  7 active torsions:
REMARK  status: ('A' for Active; 'I' for Inactive)
REMARK    1  A    between atoms: C_1  and  C_2
REMARK    2  A    between atoms: C_2  and  N_3
REMARK    3  A    between atoms: C_2  and  C_16
REMARK    4  A    between atoms: C_4  and  C_6
REMARK    5  A    between atoms: C_19  and  C_20
REMARK    6  A    between atoms: C_20  and  S_21
REMARK    7  A    between atoms: S_21  and  C_22
REMARK                            x       y       z     vdW  Elec       q    Type
REMARK                         _______ _______ _______ _____ _____    ______ ____
ROOT
ATOM      1  C   UNL     1      48.097   8.857  12.401  0.00  0.00    +0.000 C 
ATOM      2  C   UNL     1      46.954   8.192  13.170  0.00  0.00    +0.000 C 
ENDROOT
BRANCH   2   3
ATOM      3  C   UNL     1      46.159   7.170  12.371  0.00  0.00    +0.000 A 
ATOM      4  C   UNL     1      46.691   6.738  11.152  0.00  0.00    +0.000 A 
ATOM      5  C   UNL     1      45.993   5.850  10.330  0.00  0.00    +0.000 A 
ATOM      6  C   UNL     1      44.744   5.329  10.705  0.00  0.00    +0.000 A 
ATOM      7  C   UNL     1      44.206   5.763  11.926  0.00  0.00    +0.000 A 
ATOM      8  C   UNL     1      44.900   6.675  12.745  0.00  0.00    +0.000 A 
BRANCH   6   9
ATOM      9  C   UNL     1      43.957   4.387   9.797  0.00  0.00    +0.000 C 
BRANCH   9  10
ATOM     10  S   UNL     1      44.532   2.656   9.956  0.00  0.00    +0.000 S 
BRANCH  10  11
ATOM     11  C   UNL     1      45.592   2.403   8.549  0.00  0.00    +0.000 A 
ATOM     12  C   UNL     1      45.666   3.465   7.648  0.00  0.00    +0.000 A 
ATOM     13  C   UNL     1      46.469   3.349   6.520  0.00  0.00    +0.000 A 
ATOM     14  C   UNL     1      47.182   2.176   6.324  0.00  0.00    +0.000 A 
ATOM     15  C   UNL     1      47.058   1.171   7.275  0.00  0.00    +0.000 A 
ATOM     16  N   UNL     1      46.279   1.253   8.384  0.00  0.00    +0.000 NA
ENDBRANCH  10  11
ENDBRANCH   9  10
ENDBRANCH   6   9
ENDBRANCH   2   3
BRANCH   2  17
ATOM     17  N   UNL     1      47.432   7.581  14.396  0.00  0.00    +0.000 N 
ATOM     18  C   UNL     1      48.571   6.813  14.445  0.00  0.00    +0.000 C 
ATOM     19  O   UNL     1      49.301   6.658  13.469  0.00  0.00    +0.000 OA
ATOM     20  H   UNL     1      46.803   7.590  15.190  0.00  0.00    +0.000 HD
BRANCH  18  21
ATOM     21  C   UNL     1      48.906   6.229  15.746  0.00  0.00    +0.000 A 
ATOM     22  C   UNL     1      49.959   6.745  16.490  0.00  0.00    +0.000 A 
ATOM     23  S   UNL     1      50.210   5.937  17.970  0.00  0.00    +0.000 S 
ATOM     24  C   UNL     1      48.951   4.836  17.646  0.00  0.00    +0.000 A 
ATOM     25  N   UNL     1      48.660   3.829  18.514  0.00  0.00    +0.000 NA
ATOM     26  C   UNL     1      47.715   3.047  18.121  0.00  0.00    +0.000 A 
ATOM     27  N   UNL     1      47.017   3.185  16.946  0.00  0.00    +0.000 N 
ATOM     28  C   UNL     1      47.236   4.225  16.063  0.00  0.00    +0.000 A 
ATOM     29  O   UNL     1      46.533   4.378  15.066  0.00  0.00    +0.000 OA
ATOM     30  C   UNL     1      48.321   5.103  16.441  0.00  0.00    +0.000 A 
ATOM     31  H   UNL     1      46.268   2.553  16.712  0.00  0.00    +0.000 HD
ENDBRANCH  18  21
ENDBRANCH   2  17
TORSDOF 6
ENDMDL
MODEL 2
REMARK VINA RESULT:    -8.071      1.885      2.564
REMARK INTER + INTRA:         -11.570
REMARK INTER:                 -10.656
REMARK INTRA:                  -0.914
REMARK UNBOUND:                -0.668
REMARK  Name = 
REMARK  7 active torsions:
REMARK  status: ('A' for Active; 'I' for Inactive)
REMARK    1  A    between atoms: C_1  and  C_2
REMARK    2  A    between atoms: C_2  and  N_3
REMARK    3  A    between atoms: C_2  and  C_16
REMARK    4  A    between atoms: C_4  and  C_6
REMARK    5  A    between atoms: C_19  and  C_20
REMARK    6  A    between atoms: C_20  and  S_21
REMARK    7  A    between atoms: S_21  and  C_22
REMARK                            x       y       z     vdW  Elec       q    Type
REMARK                         _______ _______ _______ _____ _____    ______ ____
ROOT
ATOM      1  C   UNL     1      48.878   7.856  13.019  0.00  0.00    +0.000 C 
ATOM      2  C   UNL     1      47.733   7.123  13.720  0.00  0.00    +0.000 C 
ENDROOT
BRANCH   2   3
ATOM      3  C   UNL     1      46.828   6.322  12.796  0.00  0.00    +0.000 A 
ATOM      4  C   UNL     1      46.711   6.748  11.469  0.00  0.00    +0.000 A 
ATOM      5  C   UNL     1      45.851   6.105  10.575  0.00  0.00    +0.000 A 
ATOM      6  C   UNL     1      45.093   4.988  10.959  0.00  0.00    +0.000 A 
ATOM      7  C   UNL     1      45.206   4.560  12.292  0.00  0.00    +0.000 A 
ATOM      8  C   UNL     1      46.057   5.222  13.199  0.00  0.00    +0.000 A 
BRANCH   6   9
ATOM      9  C   UNL     1      44.123   4.301  10.000  0.00  0.00    +0.000 C 
BRANCH   9  10
ATOM     10  S   UNL     1      44.430   2.498   9.902  0.00  0.00    +0.000 S 
BRANCH  10  11
ATOM     11  C   UNL     1      45.573   2.309   8.552  0.00  0.00    +0.000 A 
ATOM     12  C   UNL     1      45.733   3.427   7.733  0.00  0.00    +0.000 A 
ATOM     13  C   UNL     1      46.605   3.362   6.653  0.00  0.00    +0.000 A 
ATOM     14  C   UNL     1      47.298   2.184   6.422  0.00  0.00    +0.000 A 
ATOM     15  C   UNL     1      47.086   1.121   7.290  0.00  0.00    +0.000 A 
ATOM     16  N   UNL     1      46.239   1.152   8.351  0.00  0.00    +0.000 NA
ENDBRANCH  10  11
ENDBRANCH   9  10
ENDBRANCH   6   9
ENDBRANCH   2   3
BRANCH   2  17
ATOM     17  N   UNL     1      48.231   6.260  14.776  0.00  0.00    +0.000 N 
ATOM     18  C   UNL     1      48.680   6.747  15.980  0.00  0.00    +0.000 C 
ATOM     19  O   UNL     1      48.618   7.940  16.271  0.00  0.00    +0.000 OA
ATOM     20  H   UNL     1      48.404   5.292  14.534  0.00  0.00    +0.000 HD
BRANCH  18  21
ATOM     21  C   UNL     1      49.191   5.757  16.932  0.00  0.00    +0.000 A 
ATOM     22  C   UNL     1      48.307   4.973  17.660  0.00  0.00    +0.000 A 
ATOM     23  S   UNL     1      49.077   3.885  18.724  0.00  0.00    +0.000 S 
ATOM     24  C   UNL     1      50.620   4.460  18.284  0.00  0.00    +0.000 A 
ATOM     25  N   UNL     1      51.744   3.967  18.871  0.00  0.00    +0.000 NA
ATOM     26  C   UNL     1      52.836   4.524  18.473  0.00  0.00    +0.000 A 
ATOM     27  N   UNL     1      52.914   5.518  17.529  0.00  0.00    +0.000 N 
ATOM     28  C   UNL     1      51.806   6.007  16.863  0.00  0.00    +0.000 A 
ATOM     29  O   UNL     1      51.914   6.828  15.955  0.00  0.00    +0.000 OA
ATOM     30  C   UNL     1      50.551   5.444  17.310  0.00  0.00    +0.000 A 
ATOM     31  H   UNL     1      53.805   5.891  17.243  0.00  0.00    +0.000 HD
ENDBRANCH  18  21
ENDBRANCH   2  17
TORSDOF 6
ENDMDL
MODEL 3
REMARK VINA RESULT:    -8.035      2.789      3.644
REMARK INTER + INTRA:         -11.522
REMARK INTER:                 -10.308
REMARK INTRA:                  -1.214
REMARK UNBOUND:                -0.668
REMARK  Name = 
REMARK  7 active torsions:
REMARK  status: ('A' for Active; 'I' for Inactive)
REMARK    1  A    between atoms: C_1  and  C_2
REMARK    2  A    between atoms: C_2  and  N_3
REMARK    3  A    between atoms: C_2  and  C_16
REMARK    4  A    between atoms: C_4  and  C_6
REMARK    5  A    between atoms: C_19  and  C_20
REMARK    6  A    between atoms: C_20  and  S_21
REMARK    7  A    between atoms: S_21  and  C_22
REMARK                            x       y       z     vdW  Elec       q    Type
REMARK                         _______ _______ _______ _____ _____    ______ ____
ROOT
ATOM      1  C   UNL     1      47.422   4.076  16.137  0.00  0.00    +0.000 C 
ATOM      2  C   UNL     1      47.799   5.043  15.012  0.00  0.00    +0.000 C 
ENDROOT
BRANCH   2   3
ATOM      3  C   UNL     1      46.923   4.951  13.772  0.00  0.00    +0.000 A 
ATOM      4  C   UNL     1      46.346   3.712  13.471  0.00  0.00    +0.000 A 
ATOM      5  C   UNL     1      45.582   3.531  12.317  0.00  0.00    +0.000 A 
ATOM      6  C   UNL     1      45.333   4.586  11.426  0.00  0.00    +0.000 A 
ATOM      7  C   UNL     1      45.914   5.829  11.722  0.00  0.00    +0.000 A 
ATOM      8  C   UNL     1      46.702   6.008  12.876  0.00  0.00    +0.000 A 
BRANCH   6   9
ATOM      9  C   UNL     1      44.530   4.387  10.142  0.00  0.00    +0.000 C 
BRANCH   9  10
ATOM     10  S   UNL     1      44.388   2.616   9.700  0.00  0.00    +0.000 S 
BRANCH  10  11
ATOM     11  C   UNL     1      45.620   2.366   8.441  0.00  0.00    +0.000 A 
ATOM     12  C   UNL     1      45.907   3.475   7.645  0.00  0.00    +0.000 A 
ATOM     13  C   UNL     1      46.856   3.364   6.636  0.00  0.00    +0.000 A 
ATOM     14  C   UNL     1      47.497   2.150   6.451  0.00  0.00    +0.000 A 
ATOM     15  C   UNL     1      47.158   1.098   7.293  0.00  0.00    +0.000 A 
ATOM     16  N   UNL     1      46.234   1.174   8.284  0.00  0.00    +0.000 NA
ENDBRANCH  10  11
ENDBRANCH   9  10
ENDBRANCH   6   9
ENDBRANCH   2   3
BRANCH   2  17
ATOM     17  N   UNL     1      47.823   6.415  15.486  0.00  0.00    +0.000 N 
ATOM     18  C   UNL     1      48.992   7.109  15.685  0.00  0.00    +0.000 C 
ATOM     19  O   UNL     1      50.092   6.638  15.402  0.00  0.00    +0.000 OA
ATOM     20  H   UNL     1      46.952   6.795  15.836  0.00  0.00    +0.000 HD
BRANCH  18  21
ATOM     21  C   UNL     1      48.859   8.473  16.205  0.00  0.00    +0.000 A 
ATOM     22  C   UNL     1      49.315   9.549  15.457  0.00  0.00    +0.000 A 
ATOM     23  S   UNL     1      49.087  11.057  16.220  0.00  0.00    +0.000 S 
ATOM     24  C   UNL     1      48.415  10.318  17.601  0.00  0.00    +0.000 A 
ATOM     25  N   UNL     1      48.035  11.060  18.676  0.00  0.00    +0.000 NA
ATOM     26  C   UNL     1      47.585  10.367  19.665  0.00  0.00    +0.000 A 
ATOM     27  N   UNL     1      47.461   8.999  19.675  0.00  0.00    +0.000 N 
ATOM     28  C   UNL     1      47.776   8.210  18.585  0.00  0.00    +0.000 A 
ATOM     29  O   UNL     1      47.566   6.999  18.587  0.00  0.00    +0.000 OA
ATOM     30  C   UNL     1      48.330   8.941  17.467  0.00  0.00    +0.000 A 
ATOM     31  H   UNL     1      47.073   8.520  20.473  0.00  0.00    +0.000 HD
ENDBRANCH  18  21
ENDBRANCH   2  17
TORSDOF 6
ENDMDL
MODEL 4
REMARK VINA RESULT:    -7.892      2.525      3.065
REMARK INTER + INTRA:         -11.328
REMARK INTER:                 -10.336
REMARK INTRA:                  -0.992
REMARK UNBOUND:                -0.668
REMARK  Name = 
REMARK  7 active torsions:
REMARK  status: ('A' for Active; 'I' for Inactive)
REMARK    1  A    between atoms: C_1  and  C_2
REMARK    2  A    between atoms: C_2  and  N_3
REMARK    3  A    between atoms: C_2  and  C_16
REMARK    4  A    between atoms: C_4  and  C_6
REMARK    5  A    between atoms: C_19  and  C_20
REMARK    6  A    between atoms: C_20  and  S_21
REMARK    7  A    between atoms: S_21  and  C_22
REMARK                            x       y       z     vdW  Elec       q    Type
REMARK                         _______ _______ _______ _____ _____    ______ ____
ROOT
ATOM      1  C   UNL     1      49.380   8.240  14.318  0.00  0.00    +0.000 C 
ATOM      2  C   UNL     1      48.750   7.091  15.108  0.00  0.00    +0.000 C 
ENDROOT
BRANCH   2   3
ATOM      3  C   UNL     1      47.797   6.215  14.308  0.00  0.00    +0.000 A 
ATOM      4  C   UNL     1      47.303   6.721  13.101  0.00  0.00    +0.000 A 
ATOM      5  C   UNL     1      46.375   6.006  12.341  0.00  0.00    +0.000 A 
ATOM      6  C   UNL     1      45.922   4.738  12.738  0.00  0.00    +0.000 A 
ATOM      7  C   UNL     1      46.412   4.229  13.951  0.00  0.00    +0.000 A 
ATOM      8  C   UNL     1      47.332   4.960  14.728  0.00  0.00    +0.000 A 
BRANCH   6   9
ATOM      9  C   UNL     1      44.879   3.964  11.933  0.00  0.00    +0.000 C 
BRANCH   9  10
ATOM     10  S   UNL     1      44.469   4.815  10.364  0.00  0.00    +0.000 S 
BRANCH  10  11
ATOM     11  C   UNL     1      45.336   3.893   9.112  0.00  0.00    +0.000 A 
ATOM     12  C   UNL     1      45.313   2.506   9.258  0.00  0.00    +0.000 A 
ATOM     13  C   UNL     1      45.968   1.711   8.325  0.00  0.00    +0.000 A 
ATOM     14  C   UNL     1      46.625   2.322   7.269  0.00  0.00    +0.000 A 
ATOM     15  C   UNL     1      46.593   3.709   7.195  0.00  0.00    +0.000 A 
ATOM     16  N   UNL     1      45.965   4.512   8.091  0.00  0.00    +0.000 NA
ENDBRANCH  10  11
ENDBRANCH   9  10
ENDBRANCH   6   9
ENDBRANCH   2   3
BRANCH   2  17
ATOM     17  N   UNL     1      49.767   6.260  15.725  0.00  0.00    +0.000 N 
ATOM     18  C   UNL     1      49.738   5.922  17.057  0.00  0.00    +0.000 C 
ATOM     19  O   UNL     1      48.808   6.237  17.795  0.00  0.00    +0.000 OA
ATOM     20  H   UNL     1      50.603   6.077  15.182  0.00  0.00    +0.000 HD
BRANCH  18  21
ATOM     21  C   UNL     1      50.856   5.109  17.546  0.00  0.00    +0.000 A 
ATOM     22  C   UNL     1      51.970   5.723  18.102  0.00  0.00    +0.000 A 
ATOM     23  S   UNL     1      53.173   4.626  18.607  0.00  0.00    +0.000 S 
ATOM     24  C   UNL     1      52.267   3.293  18.055  0.00  0.00    +0.000 A 
ATOM     25  N   UNL     1      52.756   2.026  18.149  0.00  0.00    +0.000 NA
ATOM     26  C   UNL     1      51.984   1.122  17.653  0.00  0.00    +0.000 A 
ATOM     27  N   UNL     1      50.757   1.361  17.084  0.00  0.00    +0.000 N 
ATOM     28  C   UNL     1      50.193   2.622  17.021  0.00  0.00    +0.000 A 
ATOM     29  O   UNL     1      49.054   2.794  16.594  0.00  0.00    +0.000 OA
ATOM     30  C   UNL     1      51.045   3.676  17.525  0.00  0.00    +0.000 A 
ATOM     31  H   UNL     1      50.190   0.603  16.740  0.00  0.00    +0.000 HD
ENDBRANCH  18  21
ENDBRANCH   2  17
TORSDOF 6
ENDMDL
MODEL 5
REMARK VINA RESULT:    -7.849      2.149      2.653
REMARK INTER + INTRA:         -11.270
REMARK INTER:                 -10.171
REMARK INTRA:                  -1.099
REMARK UNBOUND:                -0.668
REMARK  Name = 
REMARK  7 active torsions:
REMARK  status: ('A' for Active; 'I' for Inactive)
REMARK    1  A    between atoms: C_1  and  C_2
REMARK    2  A    between atoms: C_2  and  N_3
REMARK    3  A    between atoms: C_2  and  C_16
REMARK    4  A    between atoms: C_4  and  C_6
REMARK    5  A    between atoms: C_19  and  C_20
REMARK    6  A    between atoms: C_20  and  S_21
REMARK    7  A    between atoms: S_21  and  C_22
REMARK                            x       y       z     vdW  Elec       q    Type
REMARK                         _______ _______ _______ _____ _____    ______ ____
ROOT
ATOM      1  C   UNL     1      49.749   7.410  13.381  0.00  0.00    +0.000 C 
ATOM      2  C   UNL     1      48.309   7.502  13.889  0.00  0.00    +0.000 C 
ENDROOT
BRANCH   2   3
ATOM      3  C   UNL     1      47.323   6.585  13.178  0.00  0.00    +0.000 A 
ATOM      4  C   UNL     1      46.922   5.420  13.841  0.00  0.00    +0.000 A 
ATOM      5  C   UNL     1      46.071   4.497  13.231  0.00  0.00    +0.000 A 
ATOM      6  C   UNL     1      45.556   4.711  11.943  0.00  0.00    +0.000 A 
ATOM      7  C   UNL     1      45.960   5.877  11.273  0.00  0.00    +0.000 A 
ATOM      8  C   UNL     1      46.836   6.798  11.880  0.00  0.00    +0.000 A 
BRANCH   6   9
ATOM      9  C   UNL     1      44.654   3.688  11.253  0.00  0.00    +0.000 C 
BRANCH   9  10
ATOM     10  S   UNL     1      44.205   4.217   9.558  0.00  0.00    +0.000 S 
BRANCH  10  11
ATOM     11  C   UNL     1      45.399   3.420   8.507  0.00  0.00    +0.000 A 
ATOM     12  C   UNL     1      45.561   2.049   8.706  0.00  0.00    +0.000 A 
ATOM     13  C   UNL     1      46.476   1.350   7.928  0.00  0.00    +0.000 A 
ATOM     14  C   UNL     1      47.202   2.037   6.969  0.00  0.00    +0.000 A 
ATOM     15  C   UNL     1      46.974   3.400   6.830  0.00  0.00    +0.000 A 
ATOM     16  N   UNL     1      46.090   4.112   7.576  0.00  0.00    +0.000 NA
ENDBRANCH  10  11
ENDBRANCH   9  10
ENDBRANCH   6   9
ENDBRANCH   2   3
BRANCH   2  17
ATOM     17  N   UNL     1      48.241   7.268  15.320  0.00  0.00    +0.000 N 
ATOM     18  C   UNL     1      48.565   8.233  16.243  0.00  0.00    +0.000 C 
ATOM     19  O   UNL     1      48.859   9.381  15.918  0.00  0.00    +0.000 OA
ATOM     20  H   UNL     1      48.115   6.310  15.623  0.00  0.00    +0.000 HD
BRANCH  18  21
ATOM     21  C   UNL     1      48.487   7.837  17.652  0.00  0.00    +0.000 A 
ATOM     22  C   UNL     1      47.828   8.648  18.566  0.00  0.00    +0.000 A 
ATOM     23  S   UNL     1      47.845   8.037  20.158  0.00  0.00    +0.000 S 
ATOM     24  C   UNL     1      48.777   6.689  19.689  0.00  0.00    +0.000 A 
ATOM     25  N   UNL     1      49.185   5.768  20.603  0.00  0.00    +0.000 NA
ATOM     26  C   UNL     1      49.919   4.828  20.117  0.00  0.00    +0.000 A 
ATOM     27  N   UNL     1      50.271   4.709  18.794  0.00  0.00    +0.000 N 
ATOM     28  C   UNL     1      49.830   5.586  17.820  0.00  0.00    +0.000 A 
ATOM     29  O   UNL     1      50.082   5.402  16.632  0.00  0.00    +0.000 OA
ATOM     30  C   UNL     1      49.041   6.686  18.328  0.00  0.00    +0.000 A 
ATOM     31  H   UNL     1      50.825   3.931  18.474  0.00  0.00    +0.000 HD
ENDBRANCH  18  21
ENDBRANCH   2  17
TORSDOF 6
ENDMDL
MODEL 6
REMARK VINA RESULT:    -7.835      2.872      4.165
REMARK INTER + INTRA:         -11.250
REMARK INTER:                 -10.098
REMARK INTRA:                  -1.152
REMARK UNBOUND:                -0.668
REMARK  Name = 
REMARK  7 active torsions:
REMARK  status: ('A' for Active; 'I' for Inactive)
REMARK    1  A    between atoms: C_1  and  C_2
REMARK    2  A    between atoms: C_2  and  N_3
REMARK    3  A    between atoms: C_2  and  C_16
REMARK    4  A    between atoms: C_4  and  C_6
REMARK    5  A    between atoms: C_19  and  C_20
REMARK    6  A    between atoms: C_20  and  S_21
REMARK    7  A    between atoms: S_21  and  C_22
REMARK                            x       y       z     vdW  Elec       q    Type
REMARK                         _______ _______ _______ _____ _____    ______ ____
ROOT
ATOM      1  C   UNL     1      47.481   3.412  16.407  0.00  0.00    +0.000 C 
ATOM      2  C   UNL     1      47.922   4.742  15.793  0.00  0.00    +0.000 C 
ENDROOT
BRANCH   2   3
ATOM      3  C   UNL     1      47.229   5.102  14.486  0.00  0.00    +0.000 A 
ATOM      4  C   UNL     1      46.258   4.221  14.000  0.00  0.00    +0.000 A 
ATOM      5  C   UNL     1      45.623   4.448  12.776  0.00  0.00    +0.000 A 
ATOM      6  C   UNL     1      45.908   5.581  11.999  0.00  0.00    +0.000 A 
ATOM      7  C   UNL     1      46.885   6.465  12.483  0.00  0.00    +0.000 A 
ATOM      8  C   UNL     1      47.541   6.226  13.707  0.00  0.00    +0.000 A 
BRANCH   6   9
ATOM      9  C   UNL     1      45.245   5.818  10.643  0.00  0.00    +0.000 C 
BRANCH   9  10
ATOM     10  S   UNL     1      44.271   4.365  10.103  0.00  0.00    +0.000 S 
BRANCH  10  11
ATOM     11  C   UNL     1      45.298   3.559   8.893  0.00  0.00    +0.000 A 
ATOM     12  C   UNL     1      45.422   2.176   9.030  0.00  0.00    +0.000 A 
ATOM     13  C   UNL     1      46.208   1.469   8.128  0.00  0.00    +0.000 A 
ATOM     14  C   UNL     1      46.846   2.161   7.111  0.00  0.00    +0.000 A 
ATOM     15  C   UNL     1      46.664   3.536   7.043  0.00  0.00    +0.000 A 
ATOM     16  N   UNL     1      45.906   4.255   7.910  0.00  0.00    +0.000 NA
ENDBRANCH  10  11
ENDBRANCH   9  10
ENDBRANCH   6   9
ENDBRANCH   2   3
BRANCH   2  17
ATOM     17  N   UNL     1      47.768   5.833  16.737  0.00  0.00    +0.000 N 
ATOM     18  C   UNL     1      48.745   6.172  17.642  0.00  0.00    +0.000 C 
ATOM     19  O   UNL     1      49.845   5.622  17.659  0.00  0.00    +0.000 OA
ATOM     20  H   UNL     1      46.842   6.231  16.832  0.00  0.00    +0.000 HD
BRANCH  18  21
ATOM     21  C   UNL     1      48.430   7.270  18.560  0.00  0.00    +0.000 A 
ATOM     22  C   UNL     1      48.319   7.027  19.922  0.00  0.00    +0.000 A 
ATOM     23  S   UNL     1      47.938   8.416  20.835  0.00  0.00    +0.000 S 
ATOM     24  C   UNL     1      47.860   9.382  19.433  0.00  0.00    +0.000 A 
ATOM     25  N   UNL     1      47.530  10.700  19.509  0.00  0.00    +0.000 NA
ATOM     26  C   UNL     1      47.466  11.297  18.369  0.00  0.00    +0.000 A 
ATOM     27  N   UNL     1      47.720  10.705  17.156  0.00  0.00    +0.000 N 
ATOM     28  C   UNL     1      48.118   9.386  17.035  0.00  0.00    +0.000 A 
ATOM     29  O   UNL     1      48.430   8.909  15.947  0.00  0.00    +0.000 OA
ATOM     30  C   UNL     1      48.158   8.663  18.286  0.00  0.00    +0.000 A 
ATOM     31  H   UNL     1      47.680  11.237  16.302  0.00  0.00    +0.000 HD
ENDBRANCH  18  21
ENDBRANCH   2  17
TORSDOF 6
ENDMDL
MODEL 7
REMARK VINA RESULT:    -7.538      4.710      8.684
REMARK INTER + INTRA:         -10.850
REMARK INTER:                  -9.884
REMARK INTRA:                  -0.966
REMARK UNBOUND:                -0.668
REMARK  Name = 
REMARK  7 active torsions:
REMARK  status: ('A' for Active; 'I' for Inactive)
REMARK    1  A    between atoms: C_1  and  C_2
REMARK    2  A    between atoms: C_2  and  N_3
REMARK    3  A    between atoms: C_2  and  C_16
REMARK    4  A    between atoms: C_4  and  C_6
REMARK    5  A    between atoms: C_19  and  C_20
REMARK    6  A    between atoms: C_20  and  S_21
REMARK    7  A    between atoms: S_21  and  C_22
REMARK                            x       y       z     vdW  Elec       q    Type
REMARK                         _______ _______ _______ _____ _____    ______ ____
ROOT
ATOM      1  C   UNL     1      47.908   6.230  18.506  0.00  0.00    +0.000 C 
ATOM      2  C   UNL     1      48.730   5.964  17.244  0.00  0.00    +0.000 C 
ENDROOT
BRANCH   2   3
ATOM      3  C   UNL     1      49.593   4.712  17.298  0.00  0.00    +0.000 A 
ATOM      4  C   UNL     1      48.956   3.474  17.160  0.00  0.00    +0.000 A 
ATOM      5  C   UNL     1      49.669   2.278  17.262  0.00  0.00    +0.000 A 
ATOM      6  C   UNL     1      51.056   2.264  17.475  0.00  0.00    +0.000 A 
ATOM      7  C   UNL     1      51.698   3.504  17.617  0.00  0.00    +0.000 A 
ATOM      8  C   UNL     1      50.976   4.711  17.536  0.00  0.00    +0.000 A 
BRANCH   6   9
ATOM      9  C   UNL     1      51.838   0.960  17.625  0.00  0.00    +0.000 C 
BRANCH   9  10
ATOM     10  S   UNL     1      53.639   1.263  17.756  0.00  0.00    +0.000 S 
BRANCH  10  11
ATOM     11  C   UNL     1      54.387  -0.316  17.418  0.00  0.00    +0.000 A 
ATOM     12  C   UNL     1      54.524  -1.168  18.515  0.00  0.00    +0.000 A 
ATOM     13  C   UNL     1      55.101  -2.420  18.338  0.00  0.00    +0.000 A 
ATOM     14  C   UNL     1      55.522  -2.790  17.071  0.00  0.00    +0.000 A 
ATOM     15  C   UNL     1      55.342  -1.885  16.033  0.00  0.00    +0.000 A 
ATOM     16  N   UNL     1      54.785  -0.654  16.174  0.00  0.00    +0.000 NA
ENDBRANCH  10  11
ENDBRANCH   9  10
ENDBRANCH   6   9
ENDBRANCH   2   3
BRANCH   2  17
ATOM     17  N   UNL     1      47.882   5.915  16.066  0.00  0.00    +0.000 N 
ATOM     18  C   UNL     1      48.319   6.309  14.824  0.00  0.00    +0.000 C 
ATOM     19  O   UNL     1      49.480   6.655  14.614  0.00  0.00    +0.000 OA
ATOM     20  H   UNL     1      46.895   5.747  16.217  0.00  0.00    +0.000 HD
BRANCH  18  21
ATOM     21  C   UNL     1      47.337   6.242  13.738  0.00  0.00    +0.000 A 
ATOM     22  C   UNL     1      46.928   7.404  13.099  0.00  0.00    +0.000 A 
ATOM     23  S   UNL     1      45.777   7.138  11.869  0.00  0.00    +0.000 S 
ATOM     24  C   UNL     1      45.749   5.463  12.182  0.00  0.00    +0.000 A 
ATOM     25  N   UNL     1      44.920   4.635  11.489  0.00  0.00    +0.000 NA
ATOM     26  C   UNL     1      44.972   3.402  11.860  0.00  0.00    +0.000 A 
ATOM     27  N   UNL     1      45.790   2.912  12.849  0.00  0.00    +0.000 N 
ATOM     28  C   UNL     1      46.691   3.704  13.537  0.00  0.00    +0.000 A 
ATOM     29  O   UNL     1      47.476   3.222  14.349  0.00  0.00    +0.000 OA
ATOM     30  C   UNL     1      46.635   5.105  13.186  0.00  0.00    +0.000 A 
ATOM     31  H   UNL     1      45.802   1.929  13.070  0.00  0.00    +0.000 HD
ENDBRANCH  18  21
ENDBRANCH   2  17
TORSDOF 6
ENDMDL
MODEL 8
REMARK VINA RESULT:    -7.258      3.082      4.309
REMARK INTER + INTRA:         -10.471
REMARK INTER:                  -9.326
REMARK INTRA:                  -1.144
REMARK UNBOUND:                -0.668
REMARK  Name = 
REMARK  7 active torsions:
REMARK  status: ('A' for Active; 'I' for Inactive)
REMARK    1  A    between atoms: C_1  and  C_2
REMARK    2  A    between atoms: C_2  and  N_3
REMARK    3  A    between atoms: C_2  and  C_16
REMARK    4  A    between atoms: C_4  and  C_6
REMARK    5  A    between atoms: C_19  and  C_20
REMARK    6  A    between atoms: C_20  and  S_21
REMARK    7  A    between atoms: S_21  and  C_22
REMARK                            x       y       z     vdW  Elec       q    Type
REMARK                         _______ _______ _______ _____ _____    ______ ____
ROOT
ATOM      1  C   UNL     1      45.626   9.432  12.331  0.00  0.00    +0.000 C 
ATOM      2  C   UNL     1      46.407   8.347  13.076  0.00  0.00    +0.000 C 
ENDROOT
BRANCH   2   3
ATOM      3  C   UNL     1      46.114   6.925  12.622  0.00  0.00    +0.000 A 
ATOM      4  C   UNL     1      45.575   6.746  11.343  0.00  0.00    +0.000 A 
ATOM      5  C   UNL     1      45.219   5.479  10.878  0.00  0.00    +0.000 A 
ATOM      6  C   UNL     1      45.414   4.328  11.658  0.00  0.00    +0.000 A 
ATOM      7  C   UNL     1      45.950   4.504  12.943  0.00  0.00    +0.000 A 
ATOM      8  C   UNL     1      46.290   5.785  13.421  0.00  0.00    +0.000 A 
BRANCH   6   9
ATOM      9  C   UNL     1      44.993   2.942  11.172  0.00  0.00    +0.000 C 
BRANCH   9  10
ATOM     10  S   UNL     1      44.281   3.004   9.486  0.00  0.00    +0.000 S 
BRANCH  10  11
ATOM     11  C   UNL     1      45.614   2.513   8.416  0.00  0.00    +0.000 A 
ATOM     12  C   UNL     1      46.152   3.523   7.617  0.00  0.00    +0.000 A 
ATOM     13  C   UNL     1      47.196   3.224   6.750  0.00  0.00    +0.000 A 
ATOM     14  C   UNL     1      47.678   1.926   6.705  0.00  0.00    +0.000 A 
ATOM     15  C   UNL     1      47.090   0.983   7.538  0.00  0.00    +0.000 A 
ATOM     16  N   UNL     1      46.069   1.242   8.394  0.00  0.00    +0.000 NA
ENDBRANCH  10  11
ENDBRANCH   9  10
ENDBRANCH   6   9
ENDBRANCH   2   3
BRANCH   2  17
ATOM     17  N   UNL     1      47.837   8.591  13.008  0.00  0.00    +0.000 N 
ATOM     18  C   UNL     1      48.656   8.491  14.107  0.00  0.00    +0.000 C 
ATOM     19  O   UNL     1      48.245   8.114  15.202  0.00  0.00    +0.000 OA
ATOM     20  H   UNL     1      48.192   9.011  12.158  0.00  0.00    +0.000 HD
BRANCH  18  21
ATOM     21  C   UNL     1      50.072   8.805  13.892  0.00  0.00    +0.000 A 
ATOM     22  C   UNL     1      50.788   9.485  14.868  0.00  0.00    +0.000 A 
ATOM     23  S   UNL     1      52.415   9.773  14.446  0.00  0.00    +0.000 S 
ATOM     24  C   UNL     1      52.205   9.041  12.921  0.00  0.00    +0.000 A 
ATOM     25  N   UNL     1      53.226   8.989  12.023  0.00  0.00    +0.000 NA
ATOM     26  C   UNL     1      52.914   8.447  10.897  0.00  0.00    +0.000 A 
ATOM     27  N   UNL     1      51.679   7.933  10.586  0.00  0.00    +0.000 N 
ATOM     28  C   UNL     1      50.630   7.909  11.487  0.00  0.00    +0.000 A 
ATOM     29  O   UNL     1      49.566   7.358  11.216  0.00  0.00    +0.000 OA
ATOM     30  C   UNL     1      50.920   8.549  12.750  0.00  0.00    +0.000 A 
ATOM     31  H   UNL     1      51.509   7.496   9.694  0.00  0.00    +0.000 HD
ENDBRANCH  18  21
ENDBRANCH   2  17
TORSDOF 6
ENDMDL
MODEL 9
REMARK VINA RESULT:    -7.132      2.136      2.588
REMARK INTER + INTRA:         -10.301
REMARK INTER:                  -9.227
REMARK INTRA:                  -1.074
REMARK UNBOUND:                -0.668
REMARK  Name = 
REMARK  7 active torsions:
REMARK  status: ('A' for Active; 'I' for Inactive)
REMARK    1  A    between atoms: C_1  and  C_2
REMARK    2  A    between atoms: C_2  and  N_3
REMARK    3  A    between atoms: C_2  and  C_16
REMARK    4  A    between atoms: C_4  and  C_6
REMARK    5  A    between atoms: C_19  and  C_20
REMARK    6  A    between atoms: C_20  and  S_21
REMARK    7  A    between atoms: S_21  and  C_22
REMARK                            x       y       z     vdW  Elec       q    Type
REMARK                         _______ _______ _______ _____ _____    ______ ____
ROOT
ATOM      1  C   UNL     1      47.451   9.405  12.176  0.00  0.00    +0.000 C 
ATOM      2  C   UNL     1      47.337   8.365  13.293  0.00  0.00    +0.000 C 
ENDROOT
BRANCH   2   3
ATOM      3  C   UNL     1      46.550   7.116  12.924  0.00  0.00    +0.000 A 
ATOM      4  C   UNL     1      47.089   5.877  13.283  0.00  0.00    +0.000 A 
ATOM      5  C   UNL     1      46.459   4.683  12.925  0.00  0.00    +0.000 A 
ATOM      6  C   UNL     1      45.246   4.674  12.218  0.00  0.00    +0.000 A 
ATOM      7  C   UNL     1      44.706   5.917  11.853  0.00  0.00    +0.000 A 
ATOM      8  C   UNL     1      45.351   7.121  12.195  0.00  0.00    +0.000 A 
BRANCH   6   9
ATOM      9  C   UNL     1      44.570   3.373  11.790  0.00  0.00    +0.000 C 
BRANCH   9  10
ATOM     10  S   UNL     1      43.782   3.530  10.144  0.00  0.00    +0.000 S 
BRANCH  10  11
ATOM     11  C   UNL     1      45.031   2.997   8.994  0.00  0.00    +0.000 A 
ATOM     12  C   UNL     1      45.591   4.000   8.201  0.00  0.00    +0.000 A 
ATOM     13  C   UNL     1      46.572   3.668   7.275  0.00  0.00    +0.000 A 
ATOM     14  C   UNL     1      46.971   2.346   7.167  0.00  0.00    +0.000 A 
ATOM     15  C   UNL     1      46.368   1.412   8.000  0.00  0.00    +0.000 A 
ATOM     16  N   UNL     1      45.406   1.703   8.912  0.00  0.00    +0.000 NA
ENDBRANCH  10  11
ENDBRANCH   9  10
ENDBRANCH   6   9
ENDBRANCH   2   3
BRANCH   2  17
ATOM     17  N   UNL     1      48.647   7.982  13.788  0.00  0.00    +0.000 N 
ATOM     18  C   UNL     1      49.052   8.233  15.078  0.00  0.00    +0.000 C 
ATOM     19  O   UNL     1      48.304   8.728  15.917  0.00  0.00    +0.000 OA
ATOM     20  H   UNL     1      49.327   7.678  13.102  0.00  0.00    +0.000 HD
BRANCH  18  21
ATOM     21  C   UNL     1      50.417   7.824  15.421  0.00  0.00    +0.000 A 
ATOM     22  C   UNL     1      51.502   8.519  14.903  0.00  0.00    +0.000 A 
ATOM     23  S   UNL     1      53.010   7.899  15.401  0.00  0.00    +0.000 S 
ATOM     24  C   UNL     1      52.265   6.648  16.288  0.00  0.00    +0.000 A 
ATOM     25  N   UNL     1      53.009   5.714  16.940  0.00  0.00    +0.000 NA
ATOM     26  C   UNL     1      52.316   4.804  17.532  0.00  0.00    +0.000 A 
ATOM     27  N   UNL     1      50.943   4.747  17.550  0.00  0.00    +0.000 N 
ATOM     28  C   UNL     1      50.147   5.707  16.953  0.00  0.00    +0.000 A 
ATOM     29  O   UNL     1      48.923   5.684  17.065  0.00  0.00    +0.000 OA
ATOM     30  C   UNL     1      50.882   6.724  16.236  0.00  0.00    +0.000 A 
ATOM     31  H   UNL     1      50.462   4.022  18.057  0.00  0.00    +0.000 HD
ENDBRANCH  18  21
ENDBRANCH   2  17
TORSDOF 6
ENDMDL
