MODEL 1
REMARK VINA RESULT:    -8.006      0.000      0.000
REMARK INTER + INTRA:         -12.654
REMARK INTER:                 -11.751
REMARK INTRA:                  -0.903
REMARK UNBOUND:                -0.903
REMARK  Name = 
REMARK  9 active torsions:
REMARK  status: ('A' for Active; 'I' for Inactive)
REMARK    1  A    between atoms: C_1  and  C_2
REMARK    2  A    between atoms: C_2  and  N_3
REMARK    3  A    between atoms: C_2  and  C_20
REMARK    4  A    between atoms: N_3  and  C_4
REMARK    5  A    between atoms: C_4  and  C_5
REMARK    6  A    between atoms: C_8  and  C_9
REMARK    7  A    between atoms: C_9  and  N_10
REMARK    8  A    between atoms: N_10  and  C_11
REMARK    9  A    between atoms: C_11  and  C_12
REMARK                            x       y       z     vdW  Elec       q    Type
REMARK                         _______ _______ _______ _____ _____    ______ ____
ROOT
ATOM      1  C   UNL     1      47.895   6.828  13.974  0.00  0.00    +0.000 C 
ENDROOT
BRANCH   1   2
ATOM      2  C   UNL     1      46.830   6.253  13.061  0.00  0.00    +0.000 A 
ATOM      3  C   UNL     1      46.775   6.640  11.724  0.00  0.00    +0.000 A 
ATOM      4  C   UNL     1      45.738   6.160  10.925  0.00  0.00    +0.000 A 
ATOM      5  C   UNL     1      44.785   5.293  11.466  0.00  0.00    +0.000 A 
ATOM      6  C   UNL     1      44.927   4.956  12.806  0.00  0.00    +0.000 A 
ATOM      7  N   UNL     1      45.912   5.418  13.611  0.00  0.00    +0.000 NA
BRANCH   5   8
ATOM      8  C   UNL     1      43.633   4.773  10.649  0.00  0.00    +0.000 C 
BRANCH   8   9
ATOM      9  N   UNL     1      44.060   4.373   9.313  0.00  0.00    +0.000 NA
ATOM     10  H   UNL     1      44.870   4.927   9.027  0.00  0.00    +0.000 HD
BRANCH   9  11
ATOM     11  C   UNL     1      44.460   2.955   9.283  0.00  0.00    +0.000 C 
BRANCH  11  12
ATOM     12  C   UNL     1      45.547   2.669   8.256  0.00  0.00    +0.000 A 
ATOM     13  N   UNL     1      45.810   3.630   7.343  0.00  0.00    +0.000 NA
ATOM     14  C   UNL     1      46.752   3.341   6.425  0.00  0.00    +0.000 A 
ATOM     15  C   UNL     1      47.444   2.153   6.394  0.00  0.00    +0.000 A 
ATOM     16  C   UNL     1      47.111   1.248   7.373  0.00  0.00    +0.000 A 
ATOM     17  N   UNL     1      46.182   1.479   8.316  0.00  0.00    +0.000 NA
ENDBRANCH  11  12
ENDBRANCH   9  11
ENDBRANCH   8   9
ENDBRANCH   5   8
ENDBRANCH   1   2
BRANCH   1  18
ATOM     18  N   UNL     1      48.505   5.856  14.894  0.00  0.00    +0.000 NA
ATOM     19  H   UNL     1      49.484   5.705  14.645  0.00  0.00    +0.000 HD
BRANCH  18  21
ATOM     20  C   UNL     1      48.738   7.794  16.508  0.00  0.00    +0.000 C 
ATOM     21  C   UNL     1      48.403   6.307  16.279  0.00  0.00    +0.000 C 
BRANCH  21  22
ATOM     22  C   UNL     1      49.289   5.461  17.172  0.00  0.00    +0.000 A 
ATOM     23  C   UNL     1      50.174   5.992  18.098  0.00  0.00    +0.000 A 
ATOM     24  S   UNL     1      51.386   4.876  18.561  0.00  0.00    +0.000 S 
ATOM     25  C   UNL     1      50.665   3.629  17.653  0.00  0.00    +0.000 A 
ATOM     26  N   UNL     1      51.251   2.411  17.514  0.00  0.00    +0.000 NA
ATOM     27  C   UNL     1      50.526   1.546  16.886  0.00  0.00    +0.000 A 
ATOM     28  N   UNL     1      49.255   1.776  16.417  0.00  0.00    +0.000 N 
ATOM     29  C   UNL     1      48.640   3.006  16.495  0.00  0.00    +0.000 A 
ATOM     30  O   UNL     1      47.497   3.183  16.076  0.00  0.00    +0.000 OA
ATOM     31  C   UNL     1      49.453   4.029  17.120  0.00  0.00    +0.000 A 
ATOM     32  H   UNL     1      48.713   1.031  16.010  0.00  0.00    +0.000 HD
ENDBRANCH  21  22
ENDBRANCH  18  21
ENDBRANCH   1  18
TORSDOF 8
ENDMDL
MODEL 2
REMARK VINA RESULT:    -7.807      1.469      1.893
REMARK INTER + INTRA:         -12.362
REMARK INTER:                 -11.479
REMARK INTRA:                  -0.883
REMARK UNBOUND:                -0.903
REMARK  Name = 
REMARK  9 active torsions:
REMARK  status: ('A' for Active; 'I' for Inactive)
REMARK    1  A    between atoms: C_1  and  C_2
REMARK    2  A    between atoms: C_2  and  N_3
REMARK    3  A    between atoms: C_2  and  C_20
REMARK    4  A    between atoms: N_3  and  C_4
REMARK    5  A    between atoms: C_4  and  C_5
REMARK    6  A    between atoms: C_8  and  C_9
REMARK    7  A    between atoms: C_9  and  N_10
REMARK    8  A    between atoms: N_10  and  C_11
REMARK    9  A    between atoms: C_11  and  C_12
REMARK                            x       y       z     vdW  Elec       q    Type
REMARK                         _______ _______ _______ _____ _____    ______ ____
ROOT
ATOM      1  C   UNL     1      47.893   5.547  14.477  0.00  0.00    +0.000 C 
ENDROOT
BRANCH   1   2
ATOM      2  C   UNL     1      46.671   5.115  13.691  0.00  0.00    +0.000 A 
ATOM      3  C   UNL     1      46.516   3.782  13.320  0.00  0.00    +0.000 A 
ATOM      4  C   UNL     1      45.426   3.424  12.528  0.00  0.00    +0.000 A 
ATOM      5  C   UNL     1      44.503   4.395  12.132  0.00  0.00    +0.000 A 
ATOM      6  C   UNL     1      44.736   5.697  12.557  0.00  0.00    +0.000 A 
ATOM      7  N   UNL     1      45.793   6.078  13.312  0.00  0.00    +0.000 NA
BRANCH   5   8
ATOM      8  C   UNL     1      43.327   4.061  11.254  0.00  0.00    +0.000 C 
BRANCH   8   9
ATOM      9  N   UNL     1      43.724   3.233  10.120  0.00  0.00    +0.000 NA
ATOM     10  H   UNL     1      42.899   2.805   9.695  0.00  0.00    +0.000 HD
BRANCH   9  11
ATOM     11  C   UNL     1      44.393   4.036   9.080  0.00  0.00    +0.000 C 
BRANCH  11  12
ATOM     12  C   UNL     1      45.449   3.251   8.316  0.00  0.00    +0.000 A 
ATOM     13  N   UNL     1      46.143   3.907   7.359  0.00  0.00    +0.000 NA
ATOM     14  C   UNL     1      47.049   3.184   6.675  0.00  0.00    +0.000 A 
ATOM     15  C   UNL     1      47.298   1.852   6.916  0.00  0.00    +0.000 A 
ATOM     16  C   UNL     1      46.549   1.282   7.917  0.00  0.00    +0.000 A 
ATOM     17  N   UNL     1      45.632   1.952   8.636  0.00  0.00    +0.000 NA
ENDBRANCH  11  12
ENDBRANCH   9  11
ENDBRANCH   8   9
ENDBRANCH   5   8
ENDBRANCH   1   2
BRANCH   1  18
ATOM     18  N   UNL     1      47.723   5.521  15.938  0.00  0.00    +0.000 NA
ATOM     19  H   UNL     1      46.762   5.767  16.183  0.00  0.00    +0.000 HD
BRANCH  18  21
ATOM     20  C   UNL     1      46.867   3.409  17.043  0.00  0.00    +0.000 C 
ATOM     21  C   UNL     1      48.059   4.209  16.482  0.00  0.00    +0.000 C 
BRANCH  21  22
ATOM     22  C   UNL     1      49.112   4.343  17.565  0.00  0.00    +0.000 A 
ATOM     23  C   UNL     1      49.155   5.396  18.466  0.00  0.00    +0.000 A 
ATOM     24  S   UNL     1      50.694   5.575  19.193  0.00  0.00    +0.000 S 
ATOM     25  C   UNL     1      51.280   4.168  18.432  0.00  0.00    +0.000 A 
ATOM     26  N   UNL     1      52.580   3.786  18.531  0.00  0.00    +0.000 NA
ATOM     27  C   UNL     1      52.837   2.643  17.987  0.00  0.00    +0.000 A 
ATOM     28  N   UNL     1      51.906   1.830  17.387  0.00  0.00    +0.000 N 
ATOM     29  C   UNL     1      50.588   2.195  17.224  0.00  0.00    +0.000 A 
ATOM     30  O   UNL     1      49.771   1.444  16.691  0.00  0.00    +0.000 OA
ATOM     31  C   UNL     1      50.275   3.509  17.747  0.00  0.00    +0.000 A 
ATOM     32  H   UNL     1      52.159   0.913  17.057  0.00  0.00    +0.000 HD
ENDBRANCH  21  22
ENDBRANCH  18  21
ENDBRANCH   1  18
TORSDOF 8
ENDMDL
MODEL 3
REMARK VINA RESULT:    -7.737      1.945      2.452
REMARK INTER + INTRA:         -12.259
REMARK INTER:                 -11.342
REMARK INTRA:                  -0.917
REMARK UNBOUND:                -0.903
REMARK  Name = 
REMARK  9 active torsions:
REMARK  status: ('A' for Active; 'I' for Inactive)
REMARK    1  A    between atoms: C_1  and  C_2
REMARK    2  A    between atoms: C_2  and  N_3
REMARK    3  A    between atoms: C_2  and  C_20
REMARK    4  A    between atoms: N_3  and  C_4
REMARK    5  A    between atoms: C_4  and  C_5
REMARK    6  A    between atoms: C_8  and  C_9
REMARK    7  A    between atoms: C_9  and  N_10
REMARK    8  A    between atoms: N_10  and  C_11
REMARK    9  A    between atoms: C_11  and  C_12
REMARK                            x       y       z     vdW  Elec       q    Type
REMARK                         _______ _______ _______ _____ _____    ______ ____
ROOT
ATOM      1  C   UNL     1      48.163   6.402  14.008  0.00  0.00    +0.000 C 
ENDROOT
BRANCH   1   2
ATOM      2  C   UNL     1      46.960   6.069  13.148  0.00  0.00    +0.000 A 
ATOM      3  C   UNL     1      46.827   6.636  11.884  0.00  0.00    +0.000 A 
ATOM      4  C   UNL     1      45.673   6.378  11.146  0.00  0.00    +0.000 A 
ATOM      5  C   UNL     1      44.679   5.548  11.673  0.00  0.00    +0.000 A 
ATOM      6  C   UNL     1      44.904   5.020  12.938  0.00  0.00    +0.000 A 
ATOM      7  N   UNL     1      46.006   5.266  13.685  0.00  0.00    +0.000 NA
BRANCH   5   8
ATOM      8  C   UNL     1      43.404   5.265  10.925  0.00  0.00    +0.000 C 
BRANCH   8   9
ATOM      9  N   UNL     1      43.670   4.663   9.623  0.00  0.00    +0.000 NA
ATOM     10  H   UNL     1      44.352   5.227   9.111  0.00  0.00    +0.000 HD
BRANCH   9  11
ATOM     11  C   UNL     1      44.233   3.308   9.765  0.00  0.00    +0.000 C 
BRANCH  11  12
ATOM     12  C   UNL     1      45.291   2.995   8.717  0.00  0.00    +0.000 A 
ATOM     13  N   UNL     1      45.736   1.721   8.641  0.00  0.00    +0.000 NA
ATOM     14  C   UNL     1      46.696   1.476   7.729  0.00  0.00    +0.000 A 
ATOM     15  C   UNL     1      47.209   2.437   6.889  0.00  0.00    +0.000 A 
ATOM     16  C   UNL     1      46.681   3.696   7.037  0.00  0.00    +0.000 A 
ATOM     17  N   UNL     1      45.722   4.003   7.928  0.00  0.00    +0.000 NA
ENDBRANCH  11  12
ENDBRANCH   9  11
ENDBRANCH   8   9
ENDBRANCH   5   8
ENDBRANCH   1   2
BRANCH   1  18
ATOM     18  N   UNL     1      47.978   6.150  15.446  0.00  0.00    +0.000 NA
ATOM     19  H   UNL     1      48.131   5.160  15.649  0.00  0.00    +0.000 HD
BRANCH  18  21
ATOM     20  C   UNL     1      50.355   6.517  16.241  0.00  0.00    +0.000 C 
ATOM     21  C   UNL     1      48.883   6.972  16.244  0.00  0.00    +0.000 C 
BRANCH  21  22
ATOM     22  C   UNL     1      48.396   7.047  17.678  0.00  0.00    +0.000 A 
ATOM     23  C   UNL     1      48.056   8.232  18.311  0.00  0.00    +0.000 A 
ATOM     24  S   UNL     1      48.063   8.090  20.017  0.00  0.00    +0.000 S 
ATOM     25  C   UNL     1      48.372   6.418  19.933  0.00  0.00    +0.000 A 
ATOM     26  N   UNL     1      48.607   5.674  21.045  0.00  0.00    +0.000 NA
ATOM     27  C   UNL     1      48.716   4.407  20.819  0.00  0.00    +0.000 A 
ATOM     28  N   UNL     1      48.575   3.812  19.589  0.00  0.00    +0.000 N 
ATOM     29  C   UNL     1      48.380   4.528  18.429  0.00  0.00    +0.000 A 
ATOM     30  O   UNL     1      48.247   3.970  17.340  0.00  0.00    +0.000 OA
ATOM     31  C   UNL     1      48.335   5.963  18.627  0.00  0.00    +0.000 A 
ATOM     32  H   UNL     1      48.588   2.809  19.497  0.00  0.00    +0.000 HD
ENDBRANCH  21  22
ENDBRANCH  18  21
ENDBRANCH   1  18
TORSDOF 8
ENDMDL
MODEL 4
REMARK VINA RESULT:    -7.560      2.202      3.560
REMARK INTER + INTRA:         -11.999
REMARK INTER:                 -11.126
REMARK INTRA:                  -0.873
REMARK UNBOUND:                -0.903
REMARK  Name = 
REMARK  9 active torsions:
REMARK  status: ('A' for Active; 'I' for Inactive)
REMARK    1  A    between atoms: C_1  and  C_2
REMARK    2  A    between atoms: C_2  and  N_3
REMARK    3  A    between atoms: C_2  and  C_20
REMARK    4  A    between atoms: N_3  and  C_4
REMARK    5  A    between atoms: C_4  and  C_5
REMARK    6  A    between atoms: C_8  and  C_9
REMARK    7  A    between atoms: C_9  and  N_10
REMARK    8  A    between atoms: N_10  and  C_11
REMARK    9  A    between atoms: C_11  and  C_12
REMARK                            x       y       z     vdW  Elec       q    Type
REMARK                         _______ _______ _______ _____ _____    ______ ____
ROOT
ATOM      1  C   UNL     1      47.800   5.464  14.453  0.00  0.00    +0.000 C 
ENDROOT
BRANCH   1   2
ATOM      2  C   UNL     1      46.724   5.283  13.400  0.00  0.00    +0.000 A 
ATOM      3  C   UNL     1      46.726   6.079  12.257  0.00  0.00    +0.000 A 
ATOM      4  C   UNL     1      45.682   5.950  11.343  0.00  0.00    +0.000 A 
ATOM      5  C   UNL     1      44.663   5.021  11.574  0.00  0.00    +0.000 A 
ATOM      6  C   UNL     1      44.751   4.266  12.737  0.00  0.00    +0.000 A 
ATOM      7  N   UNL     1      45.742   4.380  13.651  0.00  0.00    +0.000 NA
BRANCH   5   8
ATOM      8  C   UNL     1      43.501   4.868  10.630  0.00  0.00    +0.000 C 
BRANCH   8   9
ATOM      9  N   UNL     1      43.933   4.384   9.323  0.00  0.00    +0.000 NA
ATOM     10  H   UNL     1      44.688   4.974   8.966  0.00  0.00    +0.000 HD
BRANCH   9  11
ATOM     11  C   UNL     1      44.450   3.006   9.408  0.00  0.00    +0.000 C 
BRANCH  11  12
ATOM     12  C   UNL     1      45.499   2.703   8.347  0.00  0.00    +0.000 A 
ATOM     13  N   UNL     1      46.083   1.484   8.378  0.00  0.00    +0.000 NA
ATOM     14  C   UNL     1      47.031   1.252   7.451  0.00  0.00    +0.000 A 
ATOM     15  C   UNL     1      47.402   2.169   6.495  0.00  0.00    +0.000 A 
ATOM     16  C   UNL     1      46.739   3.372   6.541  0.00  0.00    +0.000 A 
ATOM     17  N   UNL     1      45.783   3.663   7.441  0.00  0.00    +0.000 NA
ENDBRANCH  11  12
ENDBRANCH   9  11
ENDBRANCH   8   9
ENDBRANCH   5   8
ENDBRANCH   1   2
BRANCH   1  18
ATOM     18  N   UNL     1      47.330   5.317  15.840  0.00  0.00    +0.000 NA
ATOM     19  H   UNL     1      46.553   4.654  15.877  0.00  0.00    +0.000 HD
BRANCH  18  21
ATOM     20  C   UNL     1      48.440   3.360  17.004  0.00  0.00    +0.000 C 
ATOM     21  C   UNL     1      48.410   4.874  16.716  0.00  0.00    +0.000 C 
BRANCH  21  22
ATOM     22  C   UNL     1      48.358   5.623  18.034  0.00  0.00    +0.000 A 
ATOM     23  C   UNL     1      48.217   5.000  19.264  0.00  0.00    +0.000 A 
ATOM     24  S   UNL     1      47.662   6.070  20.480  0.00  0.00    +0.000 S 
ATOM     25  C   UNL     1      47.745   7.403  19.425  0.00  0.00    +0.000 A 
ATOM     26  N   UNL     1      47.302   8.635  19.788  0.00  0.00    +0.000 NA
ATOM     27  C   UNL     1      47.534   9.558  18.915  0.00  0.00    +0.000 A 
ATOM     28  N   UNL     1      48.201   9.369  17.728  0.00  0.00    +0.000 N 
ATOM     29  C   UNL     1      48.627   8.132  17.298  0.00  0.00    +0.000 A 
ATOM     30  O   UNL     1      49.230   7.991  16.235  0.00  0.00    +0.000 OA
ATOM     31  C   UNL     1      48.312   7.053  18.213  0.00  0.00    +0.000 A 
ATOM     32  H   UNL     1      48.422  10.149  17.131  0.00  0.00    +0.000 HD
ENDBRANCH  21  22
ENDBRANCH  18  21
ENDBRANCH   1  18
TORSDOF 8
ENDMDL
MODEL 5
REMARK VINA RESULT:    -7.473      1.047      1.474
REMARK INTER + INTRA:         -11.871
REMARK INTER:                 -11.018
REMARK INTRA:                  -0.853
REMARK UNBOUND:                -0.903
REMARK  Name = 
REMARK  9 active torsions:
REMARK  status: ('A' for Active; 'I' for Inactive)
REMARK    1  A    between atoms: C_1  and  C_2
REMARK    2  A    between atoms: C_2  and  N_3
REMARK    3  A    between atoms: C_2  and  C_20
REMARK    4  A    between atoms: N_3  and  C_4
REMARK    5  A    between atoms: C_4  and  C_5
REMARK    6  A    between atoms: C_8  and  C_9
REMARK    7  A    between atoms: C_9  and  N_10
REMARK    8  A    between atoms: N_10  and  C_11
REMARK    9  A    between atoms: C_11  and  C_12
REMARK                            x       y       z     vdW  Elec       q    Type
REMARK                         _______ _______ _______ _____ _____    ______ ____
ROOT
ATOM      1  C   UNL     1      47.813   6.685  13.890  0.00  0.00    +0.000 C 
ENDROOT
BRANCH   1   2
ATOM      2  C   UNL     1      46.604   5.917  13.392  0.00  0.00    +0.000 A 
ATOM      3  C   UNL     1      46.632   4.525  13.346  0.00  0.00    +0.000 A 
ATOM      4  C   UNL     1      45.541   3.846  12.808  0.00  0.00    +0.000 A 
ATOM      5  C   UNL     1      44.436   4.561  12.339  0.00  0.00    +0.000 A 
ATOM      6  C   UNL     1      44.495   5.946  12.433  0.00  0.00    +0.000 A 
ATOM      7  N   UNL     1      45.547   6.635  12.935  0.00  0.00    +0.000 NA
BRANCH   5   8
ATOM      8  C   UNL     1      43.248   3.872  11.723  0.00  0.00    +0.000 C 
BRANCH   8   9
ATOM      9  N   UNL     1      43.620   3.136  10.520  0.00  0.00    +0.000 NA
ATOM     10  H   UNL     1      42.790   2.710  10.102  0.00  0.00    +0.000 HD
BRANCH   9  11
ATOM     11  C   UNL     1      44.215   4.030   9.510  0.00  0.00    +0.000 C 
BRANCH  11  12
ATOM     12  C   UNL     1      45.216   3.320   8.609  0.00  0.00    +0.000 A 
ATOM     13  N   UNL     1      45.457   2.013   8.853  0.00  0.00    +0.000 NA
ATOM     14  C   UNL     1      46.370   1.416   8.064  0.00  0.00    +0.000 A 
ATOM     15  C   UNL     1      47.031   2.059   7.043  0.00  0.00    +0.000 A 
ATOM     16  C   UNL     1      46.705   3.383   6.870  0.00  0.00    +0.000 A 
ATOM     17  N   UNL     1      45.802   4.034   7.624  0.00  0.00    +0.000 NA
ENDBRANCH  11  12
ENDBRANCH   9  11
ENDBRANCH   8   9
ENDBRANCH   5   8
ENDBRANCH   1   2
BRANCH   1  18
ATOM     18  N   UNL     1      48.677   5.936  14.816  0.00  0.00    +0.000 NA
ATOM     19  H   UNL     1      49.613   5.838  14.419  0.00  0.00    +0.000 HD
BRANCH  18  21
ATOM     20  C   UNL     1      48.976   8.119  16.065  0.00  0.00    +0.000 C 
ATOM     21  C   UNL     1      48.749   6.595  16.116  0.00  0.00    +0.000 C 
BRANCH  21  22
ATOM     22  C   UNL     1      49.838   5.965  16.964  0.00  0.00    +0.000 A 
ATOM     23  C   UNL     1      50.919   6.670  17.470  0.00  0.00    +0.000 A 
ATOM     24  S   UNL     1      52.220   5.647  17.910  0.00  0.00    +0.000 S 
ATOM     25  C   UNL     1      51.308   4.249  17.573  0.00  0.00    +0.000 A 
ATOM     26  N   UNL     1      51.853   3.005  17.631  0.00  0.00    +0.000 NA
ATOM     27  C   UNL     1      51.004   2.049  17.454  0.00  0.00    +0.000 A 
ATOM     28  N   UNL     1      49.654   2.220  17.261  0.00  0.00    +0.000 N 
ATOM     29  C   UNL     1      49.065   3.460  17.151  0.00  0.00    +0.000 A 
ATOM     30  O   UNL     1      47.852   3.586  16.989  0.00  0.00    +0.000 OA
ATOM     31  C   UNL     1      49.998   4.563  17.261  0.00  0.00    +0.000 A 
ATOM     32  H   UNL     1      49.035   1.426  17.214  0.00  0.00    +0.000 HD
ENDBRANCH  21  22
ENDBRANCH  18  21
ENDBRANCH   1  18
TORSDOF 8
ENDMDL
MODEL 6
REMARK VINA RESULT:    -7.211      1.902      2.608
REMARK INTER + INTRA:         -11.488
REMARK INTER:                 -10.459
REMARK INTRA:                  -1.029
REMARK UNBOUND:                -0.903
REMARK  Name = 
REMARK  9 active torsions:
REMARK  status: ('A' for Active; 'I' for Inactive)
REMARK    1  A    between atoms: C_1  and  C_2
REMARK    2  A    between atoms: C_2  and  N_3
REMARK    3  A    between atoms: C_2  and  C_20
REMARK    4  A    between atoms: N_3  and  C_4
REMARK    5  A    between atoms: C_4  and  C_5
REMARK    6  A    between atoms: C_8  and  C_9
REMARK    7  A    between atoms: C_9  and  N_10
REMARK    8  A    between atoms: N_10  and  C_11
REMARK    9  A    between atoms: C_11  and  C_12
REMARK                            x       y       z     vdW  Elec       q    Type
REMARK                         _______ _______ _______ _____ _____    ______ ____
ROOT
ATOM      1  C   UNL     1      47.245   4.034  15.574  0.00  0.00    +0.000 C 
ENDROOT
BRANCH   1   2
ATOM      2  C   UNL     1      46.715   4.376  14.195  0.00  0.00    +0.000 A 
ATOM      3  C   UNL     1      46.798   5.683  13.720  0.00  0.00    +0.000 A 
ATOM      4  C   UNL     1      46.231   5.989  12.485  0.00  0.00    +0.000 A 
ATOM      5  C   UNL     1      45.606   4.987  11.737  0.00  0.00    +0.000 A 
ATOM      6  C   UNL     1      45.580   3.712  12.288  0.00  0.00    +0.000 A 
ATOM      7  N   UNL     1      46.107   3.388  13.492  0.00  0.00    +0.000 NA
BRANCH   5   8
ATOM      8  C   UNL     1      44.955   5.277  10.411  0.00  0.00    +0.000 C 
BRANCH   8   9
ATOM      9  N   UNL     1      44.282   4.098   9.876  0.00  0.00    +0.000 NA
ATOM     10  H   UNL     1      43.285   4.134  10.102  0.00  0.00    +0.000 HD
BRANCH   9  11
ATOM     11  C   UNL     1      44.401   4.036   8.408  0.00  0.00    +0.000 C 
BRANCH  11  12
ATOM     12  C   UNL     1      45.559   3.162   7.946  0.00  0.00    +0.000 A 
ATOM     13  N   UNL     1      46.486   3.727   7.141  0.00  0.00    +0.000 NA
ATOM     14  C   UNL     1      47.482   2.925   6.720  0.00  0.00    +0.000 A 
ATOM     15  C   UNL     1      47.597   1.602   7.080  0.00  0.00    +0.000 A 
ATOM     16  C   UNL     1      46.611   1.127   7.911  0.00  0.00    +0.000 A 
ATOM     17  N   UNL     1      45.593   1.878   8.366  0.00  0.00    +0.000 NA
ENDBRANCH  11  12
ENDBRANCH   9  11
ENDBRANCH   8   9
ENDBRANCH   5   8
ENDBRANCH   1   2
BRANCH   1  18
ATOM     18  N   UNL     1      47.520   5.198  16.432  0.00  0.00    +0.000 NA
ATOM     19  H   UNL     1      46.652   5.703  16.623  0.00  0.00    +0.000 HD
BRANCH  18  21
ATOM     20  C   UNL     1      48.036   5.810  18.835  0.00  0.00    +0.000 C 
ATOM     21  C   UNL     1      48.150   4.791  17.684  0.00  0.00    +0.000 C 
BRANCH  21  22
ATOM     22  C   UNL     1      49.614   4.471  17.455  0.00  0.00    +0.000 A 
ATOM     23  C   UNL     1      50.193   3.254  17.779  0.00  0.00    +0.000 A 
ATOM     24  S   UNL     1      51.896   3.353  17.914  0.00  0.00    +0.000 S 
ATOM     25  C   UNL     1      51.899   4.976  17.398  0.00  0.00    +0.000 A 
ATOM     26  N   UNL     1      53.034   5.724  17.387  0.00  0.00    +0.000 NA
ATOM     27  C   UNL     1      52.886   6.897  16.868  0.00  0.00    +0.000 A 
ATOM     28  N   UNL     1      51.719   7.378  16.327  0.00  0.00    +0.000 N 
ATOM     29  C   UNL     1      50.535   6.674  16.357  0.00  0.00    +0.000 A 
ATOM     30  O   UNL     1      49.505   7.124  15.855  0.00  0.00    +0.000 OA
ATOM     31  C   UNL     1      50.637   5.383  17.005  0.00  0.00    +0.000 A 
ATOM     32  H   UNL     1      51.695   8.271  15.862  0.00  0.00    +0.000 HD
ENDBRANCH  21  22
ENDBRANCH  18  21
ENDBRANCH   1  18
TORSDOF 8
ENDMDL
MODEL 7
REMARK VINA RESULT:    -6.740      3.435      9.249
REMARK INTER + INTRA:         -10.796
REMARK INTER:                  -9.876
REMARK INTRA:                  -0.919
REMARK UNBOUND:                -0.903
REMARK  Name = 
REMARK  9 active torsions:
REMARK  status: ('A' for Active; 'I' for Inactive)
REMARK    1  A    between atoms: C_1  and  C_2
REMARK    2  A    between atoms: C_2  and  N_3
REMARK    3  A    between atoms: C_2  and  C_20
REMARK    4  A    between atoms: N_3  and  C_4
REMARK    5  A    between atoms: C_4  and  C_5
REMARK    6  A    between atoms: C_8  and  C_9
REMARK    7  A    between atoms: C_9  and  N_10
REMARK    8  A    between atoms: N_10  and  C_11
REMARK    9  A    between atoms: C_11  and  C_12
REMARK                            x       y       z     vdW  Elec       q    Type
REMARK                         _______ _______ _______ _____ _____    ______ ____
ROOT
ATOM      1  C   UNL     1      47.773   5.372  16.443  0.00  0.00    +0.000 C 
ENDROOT
BRANCH   1   2
ATOM      2  C   UNL     1      48.782   4.296  16.793  0.00  0.00    +0.000 A 
ATOM      3  C   UNL     1      49.995   4.641  17.383  0.00  0.00    +0.000 A 
ATOM      4  C   UNL     1      50.938   3.643  17.621  0.00  0.00    +0.000 A 
ATOM      5  C   UNL     1      50.652   2.318  17.281  0.00  0.00    +0.000 A 
ATOM      6  C   UNL     1      49.413   2.068  16.705  0.00  0.00    +0.000 A 
ATOM      7  N   UNL     1      48.484   3.017  16.447  0.00  0.00    +0.000 NA
BRANCH   5   8
ATOM      8  C   UNL     1      51.652   1.212  17.492  0.00  0.00    +0.000 C 
BRANCH   8   9
ATOM      9  N   UNL     1      52.637   1.568  18.507  0.00  0.00    +0.000 NA
ATOM     10  H   UNL     1      52.483   1.012  19.351  0.00  0.00    +0.000 HD
BRANCH   9  11
ATOM     11  C   UNL     1      54.008   1.292  18.039  0.00  0.00    +0.000 C 
BRANCH  11  12
ATOM     12  C   UNL     1      54.328  -0.195  17.990  0.00  0.00    +0.000 A 
ATOM     13  N   UNL     1      54.716  -0.711  16.803  0.00  0.00    +0.000 NA
ATOM     14  C   UNL     1      54.962  -2.034  16.777  0.00  0.00    +0.000 A 
ATOM     15  C   UNL     1      54.852  -2.850  17.880  0.00  0.00    +0.000 A 
ATOM     16  C   UNL     1      54.464  -2.226  19.041  0.00  0.00    +0.000 A 
ATOM     17  N   UNL     1      54.206  -0.909  19.129  0.00  0.00    +0.000 NA
ENDBRANCH  11  12
ENDBRANCH   9  11
ENDBRANCH   8   9
ENDBRANCH   5   8
ENDBRANCH   1   2
BRANCH   1  18
ATOM     18  N   UNL     1      46.993   5.108  15.224  0.00  0.00    +0.000 NA
ATOM     19  H   UNL     1      46.037   5.453  15.340  0.00  0.00    +0.000 HD
BRANCH  18  21
ATOM     20  C   UNL     1      48.228   7.120  14.307  0.00  0.00    +0.000 C 
ATOM     21  C   UNL     1      47.612   5.729  14.058  0.00  0.00    +0.000 C 
BRANCH  21  22
ATOM     22  C   UNL     1      46.611   5.832  12.924  0.00  0.00    +0.000 A 
ATOM     23  C   UNL     1      46.393   6.992  12.197  0.00  0.00    +0.000 A 
ATOM     24  S   UNL     1      44.890   6.981  11.378  0.00  0.00    +0.000 S 
ATOM     25  C   UNL     1      44.576   5.378  11.859  0.00  0.00    +0.000 A 
ATOM     26  N   UNL     1      43.392   4.766  11.593  0.00  0.00    +0.000 NA
ATOM     27  C   UNL     1      43.355   3.520  11.929  0.00  0.00    +0.000 A 
ATOM     28  N   UNL     1      44.404   2.819  12.473  0.00  0.00    +0.000 N 
ATOM     29  C   UNL     1      45.606   3.407  12.801  0.00  0.00    +0.000 A 
ATOM     30  O   UNL     1      46.534   2.754  13.278  0.00  0.00    +0.000 OA
ATOM     31  C   UNL     1      45.661   4.826  12.516  0.00  0.00    +0.000 A 
ATOM     32  H   UNL     1      44.334   1.827  12.633  0.00  0.00    +0.000 HD
ENDBRANCH  21  22
ENDBRANCH  18  21
ENDBRANCH   1  18
TORSDOF 8
ENDMDL
MODEL 8
REMARK VINA RESULT:    -6.555      2.555      4.178
REMARK INTER + INTRA:         -10.524
REMARK INTER:                  -9.603
REMARK INTRA:                  -0.921
REMARK UNBOUND:                -0.903
REMARK  Name = 
REMARK  9 active torsions:
REMARK  status: ('A' for Active; 'I' for Inactive)
REMARK    1  A    between atoms: C_1  and  C_2
REMARK    2  A    between atoms: C_2  and  N_3
REMARK    3  A    between atoms: C_2  and  C_20
REMARK    4  A    between atoms: N_3  and  C_4
REMARK    5  A    between atoms: C_4  and  C_5
REMARK    6  A    between atoms: C_8  and  C_9
REMARK    7  A    between atoms: C_9  and  N_10
REMARK    8  A    between atoms: N_10  and  C_11
REMARK    9  A    between atoms: C_11  and  C_12
REMARK                            x       y       z     vdW  Elec       q    Type
REMARK                         _______ _______ _______ _____ _____    ______ ____
ROOT
ATOM      1  C   UNL     1      47.685   5.074  15.055  0.00  0.00    +0.000 C 
ENDROOT
BRANCH   1   2
ATOM      2  C   UNL     1      46.729   5.028  13.879  0.00  0.00    +0.000 A 
ATOM      3  C   UNL     1      46.689   6.082  12.970  0.00  0.00    +0.000 A 
ATOM      4  C   UNL     1      45.746   6.053  11.945  0.00  0.00    +0.000 A 
ATOM      5  C   UNL     1      44.869   4.971  11.833  0.00  0.00    +0.000 A 
ATOM      6  C   UNL     1      44.989   3.962  12.781  0.00  0.00    +0.000 A 
ATOM      7  N   UNL     1      45.883   3.969  13.797  0.00  0.00    +0.000 NA
BRANCH   5   8
ATOM      8  C   UNL     1      43.815   4.911  10.760  0.00  0.00    +0.000 C 
BRANCH   8   9
ATOM      9  N   UNL     1      44.007   3.761   9.884  0.00  0.00    +0.000 NA
ATOM     10  H   UNL     1      43.115   3.283   9.737  0.00  0.00    +0.000 HD
BRANCH   9  11
ATOM     11  C   UNL     1      44.512   4.175   8.563  0.00  0.00    +0.000 C 
BRANCH  11  12
ATOM     12  C   UNL     1      45.571   3.230   8.013  0.00  0.00    +0.000 A 
ATOM     13  N   UNL     1      46.429   3.722   7.091  0.00  0.00    +0.000 NA
ATOM     14  C   UNL     1      47.335   2.858   6.596  0.00  0.00    +0.000 A 
ATOM     15  C   UNL     1      47.429   1.544   6.992  0.00  0.00    +0.000 A 
ATOM     16  C   UNL     1      46.521   1.146   7.943  0.00  0.00    +0.000 A 
ATOM     17  N   UNL     1      45.593   1.961   8.476  0.00  0.00    +0.000 NA
ENDBRANCH  11  12
ENDBRANCH   9  11
ENDBRANCH   8   9
ENDBRANCH   5   8
ENDBRANCH   1   2
BRANCH   1  18
ATOM     18  N   UNL     1      48.719   6.117  14.965  0.00  0.00    +0.000 NA
ATOM     19  H   UNL     1      48.332   6.955  14.526  0.00  0.00    +0.000 HD
BRANCH  18  21
ATOM     20  C   UNL     1      48.558   5.736  17.464  0.00  0.00    +0.000 C 
ATOM     21  C   UNL     1      49.254   6.442  16.283  0.00  0.00    +0.000 C 
BRANCH  21  22
ATOM     22  C   UNL     1      49.208   7.941  16.512  0.00  0.00    +0.000 A 
ATOM     23  C   UNL     1      48.568   8.532  17.590  0.00  0.00    +0.000 A 
ATOM     24  S   UNL     1      48.221  10.187  17.319  0.00  0.00    +0.000 S 
ATOM     25  C   UNL     1      49.049  10.175  15.831  0.00  0.00    +0.000 A 
ATOM     26  N   UNL     1      49.054  11.252  15.003  0.00  0.00    +0.000 NA
ATOM     27  C   UNL     1      49.815  11.119  13.968  0.00  0.00    +0.000 A 
ATOM     28  N   UNL     1      50.598  10.021  13.703  0.00  0.00    +0.000 N 
ATOM     29  C   UNL     1      50.591   8.890  14.488  0.00  0.00    +0.000 A 
ATOM     30  O   UNL     1      51.310   7.924  14.235  0.00  0.00    +0.000 OA
ATOM     31  C   UNL     1      49.687   8.966  15.617  0.00  0.00    +0.000 A 
ATOM     32  H   UNL     1      51.233  10.017  12.921  0.00  0.00    +0.000 HD
ENDBRANCH  21  22
ENDBRANCH  18  21
ENDBRANCH   1  18
TORSDOF 8
ENDMDL
MODEL 9
REMARK VINA RESULT:    -6.507      2.986      8.456
REMARK INTER + INTRA:         -10.454
REMARK INTER:                  -9.628
REMARK INTRA:                  -0.826
REMARK UNBOUND:                -0.903
REMARK  Name = 
REMARK  9 active torsions:
REMARK  status: ('A' for Active; 'I' for Inactive)
REMARK    1  A    between atoms: C_1  and  C_2
REMARK    2  A    between atoms: C_2  and  N_3
REMARK    3  A    between atoms: C_2  and  C_20
REMARK    4  A    between atoms: N_3  and  C_4
REMARK    5  A    between atoms: C_4  and  C_5
REMARK    6  A    between atoms: C_8  and  C_9
REMARK    7  A    between atoms: C_9  and  N_10
REMARK    8  A    between atoms: N_10  and  C_11
REMARK    9  A    between atoms: C_11  and  C_12
REMARK                            x       y       z     vdW  Elec       q    Type
REMARK                         _______ _______ _______ _____ _____    ______ ____
ROOT
ATOM      1  C   UNL     1      48.169   7.509  12.494  0.00  0.00    +0.000 C 
ENDROOT
BRANCH   1   2
ATOM      2  C   UNL     1      48.941   7.307  13.783  0.00  0.00    +0.000 A 
ATOM      3  C   UNL     1      50.255   7.755  13.887  0.00  0.00    +0.000 A 
ATOM      4  C   UNL     1      50.970   7.485  15.052  0.00  0.00    +0.000 A 
ATOM      5  C   UNL     1      50.360   6.789  16.099  0.00  0.00    +0.000 A 
ATOM      6  C   UNL     1      49.043   6.390  15.908  0.00  0.00    +0.000 A 
ATOM      7  N   UNL     1      48.329   6.622  14.783  0.00  0.00    +0.000 NA
BRANCH   5   8
ATOM      8  C   UNL     1      51.102   6.450  17.364  0.00  0.00    +0.000 C 
BRANCH   8   9
ATOM      9  N   UNL     1      51.972   5.294  17.182  0.00  0.00    +0.000 NA
ATOM     10  H   UNL     1      52.938   5.546  17.406  0.00  0.00    +0.000 HD
BRANCH   9  11
ATOM     11  C   UNL     1      51.584   4.187  18.075  0.00  0.00    +0.000 C 
BRANCH  11  12
ATOM     12  C   UNL     1      50.156   3.715  17.843  0.00  0.00    +0.000 A 
ATOM     13  N   UNL     1      49.209   4.144  18.708  0.00  0.00    +0.000 NA
ATOM     14  C   UNL     1      47.959   3.688  18.502  0.00  0.00    +0.000 A 
ATOM     15  C   UNL     1      47.618   2.843  17.470  0.00  0.00    +0.000 A 
ATOM     16  C   UNL     1      48.650   2.477  16.640  0.00  0.00    +0.000 A 
ATOM     17  N   UNL     1      49.917   2.900  16.794  0.00  0.00    +0.000 NA
ENDBRANCH  11  12
ENDBRANCH   9  11
ENDBRANCH   8   9
ENDBRANCH   5   8
ENDBRANCH   1   2
BRANCH   1  18
ATOM     18  N   UNL     1      47.209   6.439  12.180  0.00  0.00    +0.000 NA
ATOM     19  H   UNL     1      46.908   5.977  13.040  0.00  0.00    +0.000 HD
BRANCH  18  21
ATOM     20  C   UNL     1      45.531   8.325  11.967  0.00  0.00    +0.000 C 
ATOM     21  C   UNL     1      46.052   6.965  11.462  0.00  0.00    +0.000 C 
BRANCH  21  22
ATOM     22  C   UNL     1      44.916   5.962  11.491  0.00  0.00    +0.000 A 
ATOM     23  C   UNL     1      43.961   5.915  12.495  0.00  0.00    +0.000 A 
ATOM     24  S   UNL     1      43.153   4.407  12.562  0.00  0.00    +0.000 S 
ATOM     25  C   UNL     1      43.956   3.851  11.167  0.00  0.00    +0.000 A 
ATOM     26  N   UNL     1      43.816   2.577  10.717  0.00  0.00    +0.000 NA
ATOM     27  C   UNL     1      44.404   2.348   9.590  0.00  0.00    +0.000 A 
ATOM     28  N   UNL     1      45.089   3.285   8.854  0.00  0.00    +0.000 N 
ATOM     29  C   UNL     1      45.295   4.574   9.292  0.00  0.00    +0.000 A 
ATOM     30  O   UNL     1      45.904   5.397   8.608  0.00  0.00    +0.000 OA
ATOM     31  C   UNL     1      44.721   4.851  10.592  0.00  0.00    +0.000 A 
ATOM     32  H   UNL     1      45.453   3.059   7.942  0.00  0.00    +0.000 HD
ENDBRANCH  21  22
ENDBRANCH  18  21
ENDBRANCH   1  18
TORSDOF 8
ENDMDL
