MODEL 1
REMARK VINA RESULT:    -7.776      0.000      0.000
REMARK INTER + INTRA:         -12.440
REMARK INTER:                 -11.412
REMARK INTRA:                  -1.028
REMARK UNBOUND:                -1.028
REMARK  Name = 
REMARK  9 active torsions:
REMARK  status: ('A' for Active; 'I' for Inactive)
REMARK    1  A    between atoms: C_1  and  O_2
REMARK    2  A    between atoms: O_2  and  C_3
REMARK    3  A    between atoms: C_10  and  C_11
REMARK    4  A    between atoms: N_13  and  C_14
REMARK    5  A    between atoms: C_14  and  C_15
REMARK    6  A    between atoms: C_18  and  C_19
REMARK    7  A    between atoms: C_19  and  S_20
REMARK    8  A    between atoms: S_20  and  C_21
REMARK    9  A    between atoms: C_21  and  C_22
REMARK                            x       y       z     vdW  Elec       q    Type
REMARK                         _______ _______ _______ _____ _____    ______ ____
ROOT
ATOM      1  C   UNL     1      47.628   7.657  13.405  0.00  0.00    +0.000 C 
ENDROOT
BRANCH   1   2
ATOM      2  C   UNL     1      46.457   6.842  12.916  0.00  0.00    +0.000 A 
ATOM      3  C   UNL     1      45.521   7.390  12.031  0.00  0.00    +0.000 A 
ATOM      4  C   UNL     1      44.499   6.599  11.489  0.00  0.00    +0.000 A 
ATOM      5  C   UNL     1      44.392   5.236  11.807  0.00  0.00    +0.000 A 
ATOM      6  C   UNL     1      45.281   4.713  12.758  0.00  0.00    +0.000 A 
ATOM      7  C   UNL     1      46.296   5.507  13.310  0.00  0.00    +0.000 A 
BRANCH   5   8
ATOM      8  C   UNL     1      43.355   4.351  11.138  0.00  0.00    +0.000 C 
BRANCH   8   9
ATOM      9  S   UNL     1      44.133   2.953  10.248  0.00  0.00    +0.000 S 
BRANCH   9  10
ATOM     10  C   UNL     1      44.802   3.824   8.782  0.00  0.00    +0.000 C 
BRANCH  10  11
ATOM     11  C   UNL     1      45.756   2.958   7.976  0.00  0.00    +0.000 A 
ATOM     12  C   UNL     1      46.393   3.468   6.843  0.00  0.00    +0.000 A 
ATOM     13  C   UNL     1      47.274   2.657   6.131  0.00  0.00    +0.000 A 
ATOM     14  C   UNL     1      47.506   1.360   6.567  0.00  0.00    +0.000 A 
ATOM     15  C   UNL     1      46.843   0.927   7.703  0.00  0.00    +0.000 A 
ATOM     16  N   UNL     1      45.983   1.694   8.417  0.00  0.00    +0.000 NA
ENDBRANCH  10  11
ENDBRANCH   9  10
ENDBRANCH   8   9
ENDBRANCH   5   8
ENDBRANCH   1   2
BRANCH   1  19
ATOM     17  C   UNL     1      48.862   7.135  15.458  0.00  0.00    +0.000 C 
ATOM     18  O   UNL     1      49.785   6.647  14.804  0.00  0.00    +0.000 OA
ATOM     19  N   UNL     1      47.753   7.646  14.840  0.00  0.00    +0.000 N 
ATOM     20  H   UNL     1      46.988   8.025  15.386  0.00  0.00    +0.000 HD
BRANCH  17  28
ATOM     21  C   UNL     1      48.870   4.728  17.925  0.00  0.00    +0.000 A 
ATOM     22  N   UNL     1      48.821   4.017  19.069  0.00  0.00    +0.000 NA
ATOM     23  C   UNL     1      48.834   4.684  20.227  0.00  0.00    +0.000 A 
ATOM     24  N   UNL     1      48.900   6.002  20.388  0.00  0.00    +0.000 NA
ATOM     25  C   UNL     1      48.928   6.674  19.224  0.00  0.00    +0.000 A 
ATOM     26  S   UNL     1      49.023   8.368  19.240  0.00  0.00    +0.000 S 
ATOM     27  C   UNL     1      48.998   8.434  17.544  0.00  0.00    +0.000 A 
ATOM     28  C   UNL     1      48.919   7.189  16.931  0.00  0.00    +0.000 A 
ATOM     29  C   UNL     1      48.898   6.133  17.941  0.00  0.00    +0.000 A 
BRANCH  21  31
ATOM     30  C   UNL     1      47.565   3.715  16.282  0.00  0.00    +0.000 C 
ATOM     31  O   UNL     1      48.881   4.033  16.734  0.00  0.00    +0.000 OA
ENDBRANCH  21  31
ENDBRANCH  17  28
ENDBRANCH   1  19
TORSDOF 8
ENDMDL
MODEL 2
REMARK VINA RESULT:    -7.683      1.829      2.863
REMARK INTER + INTRA:         -12.304
REMARK INTER:                 -11.229
REMARK INTRA:                  -1.074
REMARK UNBOUND:                -1.028
REMARK  Name = 
REMARK  9 active torsions:
REMARK  status: ('A' for Active; 'I' for Inactive)
REMARK    1  A    between atoms: C_1  and  O_2
REMARK    2  A    between atoms: O_2  and  C_3
REMARK    3  A    between atoms: C_10  and  C_11
REMARK    4  A    between atoms: N_13  and  C_14
REMARK    5  A    between atoms: C_14  and  C_15
REMARK    6  A    between atoms: C_18  and  C_19
REMARK    7  A    between atoms: C_19  and  S_20
REMARK    8  A    between atoms: S_20  and  C_21
REMARK    9  A    between atoms: C_21  and  C_22
REMARK                            x       y       z     vdW  Elec       q    Type
REMARK                         _______ _______ _______ _____ _____    ______ ____
ROOT
ATOM      1  C   UNL     1      48.576   6.654  14.371  0.00  0.00    +0.000 C 
ENDROOT
BRANCH   1   2
ATOM      2  C   UNL     1      47.485   5.978  13.579  0.00  0.00    +0.000 A 
ATOM      3  C   UNL     1      46.920   4.775  14.019  0.00  0.00    +0.000 A 
ATOM      4  C   UNL     1      45.831   4.206  13.345  0.00  0.00    +0.000 A 
ATOM      5  C   UNL     1      45.268   4.830  12.220  0.00  0.00    +0.000 A 
ATOM      6  C   UNL     1      45.890   5.991  11.735  0.00  0.00    +0.000 A 
ATOM      7  C   UNL     1      46.989   6.553  12.402  0.00  0.00    +0.000 A 
BRANCH   5   8
ATOM      8  C   UNL     1      44.022   4.276  11.553  0.00  0.00    +0.000 C 
BRANCH   8   9
ATOM      9  S   UNL     1      44.187   4.249   9.730  0.00  0.00    +0.000 S 
BRANCH   9  10
ATOM     10  C   UNL     1      44.624   2.491   9.463  0.00  0.00    +0.000 C 
BRANCH  10  11
ATOM     11  C   UNL     1      45.633   2.307   8.341  0.00  0.00    +0.000 A 
ATOM     12  C   UNL     1      45.912   3.352   7.458  0.00  0.00    +0.000 A 
ATOM     13  C   UNL     1      46.853   3.160   6.448  0.00  0.00    +0.000 A 
ATOM     14  C   UNL     1      47.499   1.936   6.344  0.00  0.00    +0.000 A 
ATOM     15  C   UNL     1      47.174   0.950   7.261  0.00  0.00    +0.000 A 
ATOM     16  N   UNL     1      46.267   1.108   8.255  0.00  0.00    +0.000 NA
ENDBRANCH  10  11
ENDBRANCH   9  10
ENDBRANCH   8   9
ENDBRANCH   5   8
ENDBRANCH   1   2
BRANCH   1  19
ATOM     17  C   UNL     1      48.911   6.179  16.753  0.00  0.00    +0.000 C 
ATOM     18  O   UNL     1      49.833   5.405  16.490  0.00  0.00    +0.000 OA
ATOM     19  N   UNL     1      48.230   6.828  15.758  0.00  0.00    +0.000 N 
ATOM     20  H   UNL     1      47.458   7.444  15.982  0.00  0.00    +0.000 HD
BRANCH  17  28
ATOM     21  C   UNL     1      47.697   8.950  18.403  0.00  0.00    +0.000 A 
ATOM     22  N   UNL     1      47.284   9.876  19.291  0.00  0.00    +0.000 NA
ATOM     23  C   UNL     1      47.151   9.509  20.568  0.00  0.00    +0.000 A 
ATOM     24  N   UNL     1      47.377   8.303  21.080  0.00  0.00    +0.000 NA
ATOM     25  C   UNL     1      47.805   7.415  20.165  0.00  0.00    +0.000 A 
ATOM     26  S   UNL     1      48.132   5.819  20.640  0.00  0.00    +0.000 S 
ATOM     27  C   UNL     1      48.590   5.392  19.062  0.00  0.00    +0.000 A 
ATOM     28  C   UNL     1      48.507   6.435  18.148  0.00  0.00    +0.000 A 
ATOM     29  C   UNL     1      48.015   7.643  18.808  0.00  0.00    +0.000 A 
BRANCH  21  31
ATOM     30  C   UNL     1      48.892  10.232  16.868  0.00  0.00    +0.000 C 
ATOM     31  O   UNL     1      47.808   9.329  17.081  0.00  0.00    +0.000 OA
ENDBRANCH  21  31
ENDBRANCH  17  28
ENDBRANCH   1  19
TORSDOF 8
ENDMDL
MODEL 3
REMARK VINA RESULT:    -6.916      2.061      2.449
REMARK INTER + INTRA:         -11.179
REMARK INTER:                 -10.089
REMARK INTRA:                  -1.090
REMARK UNBOUND:                -1.028
REMARK  Name = 
REMARK  9 active torsions:
REMARK  status: ('A' for Active; 'I' for Inactive)
REMARK    1  A    between atoms: C_1  and  O_2
REMARK    2  A    between atoms: O_2  and  C_3
REMARK    3  A    between atoms: C_10  and  C_11
REMARK    4  A    between atoms: N_13  and  C_14
REMARK    5  A    between atoms: C_14  and  C_15
REMARK    6  A    between atoms: C_18  and  C_19
REMARK    7  A    between atoms: C_19  and  S_20
REMARK    8  A    between atoms: S_20  and  C_21
REMARK    9  A    between atoms: C_21  and  C_22
REMARK                            x       y       z     vdW  Elec       q    Type
REMARK                         _______ _______ _______ _____ _____    ______ ____
ROOT
ATOM      1  C   UNL     1      48.807   7.582  12.499  0.00  0.00    +0.000 C 
ENDROOT
BRANCH   1   2
ATOM      2  C   UNL     1      47.426   7.013  12.715  0.00  0.00    +0.000 A 
ATOM      3  C   UNL     1      46.295   7.666  12.212  0.00  0.00    +0.000 A 
ATOM      4  C   UNL     1      45.026   7.081  12.313  0.00  0.00    +0.000 A 
ATOM      5  C   UNL     1      44.854   5.821  12.909  0.00  0.00    +0.000 A 
ATOM      6  C   UNL     1      45.978   5.210  13.486  0.00  0.00    +0.000 A 
ATOM      7  C   UNL     1      47.247   5.802  13.395  0.00  0.00    +0.000 A 
BRANCH   5   8
ATOM      8  C   UNL     1      43.500   5.135  12.923  0.00  0.00    +0.000 C 
BRANCH   8   9
ATOM      9  S   UNL     1      42.979   4.635  11.241  0.00  0.00    +0.000 S 
BRANCH   9  10
ATOM     10  C   UNL     1      44.009   3.140  11.004  0.00  0.00    +0.000 C 
BRANCH  10  11
ATOM     11  C   UNL     1      44.872   3.221   9.756  0.00  0.00    +0.000 A 
ATOM     12  C   UNL     1      45.281   2.058   9.098  0.00  0.00    +0.000 A 
ATOM     13  C   UNL     1      46.058   2.161   7.947  0.00  0.00    +0.000 A 
ATOM     14  C   UNL     1      46.406   3.419   7.472  0.00  0.00    +0.000 A 
ATOM     15  C   UNL     1      45.958   4.525   8.174  0.00  0.00    +0.000 A 
ATOM     16  N   UNL     1      45.199   4.456   9.294  0.00  0.00    +0.000 NA
ENDBRANCH  10  11
ENDBRANCH   9  10
ENDBRANCH   8   9
ENDBRANCH   5   8
ENDBRANCH   1   2
BRANCH   1  19
ATOM     17  C   UNL     1      49.897   7.644  14.695  0.00  0.00    +0.000 C 
ATOM     18  O   UNL     1      49.207   8.606  15.033  0.00  0.00    +0.000 OA
ATOM     19  N   UNL     1      49.767   7.086  13.451  0.00  0.00    +0.000 N 
ATOM     20  H   UNL     1      50.355   6.310  13.172  0.00  0.00    +0.000 HD
BRANCH  17  28
ATOM     21  C   UNL     1      49.691   5.333  17.243  0.00  0.00    +0.000 A 
ATOM     22  N   UNL     1      49.883   4.525  18.305  0.00  0.00    +0.000 NA
ATOM     23  C   UNL     1      51.115   4.434  18.813  0.00  0.00    +0.000 A 
ATOM     24  N   UNL     1      52.206   5.055  18.376  0.00  0.00    +0.000 NA
ATOM     25  C   UNL     1      51.968   5.864  17.329  0.00  0.00    +0.000 A 
ATOM     26  S   UNL     1      53.252   6.730  16.634  0.00  0.00    +0.000 S 
ATOM     27  C   UNL     1      52.215   7.449  15.498  0.00  0.00    +0.000 A 
ATOM     28  C   UNL     1      50.887   7.056  15.616  0.00  0.00    +0.000 A 
ATOM     29  C   UNL     1      50.746   6.088  16.702  0.00  0.00    +0.000 A 
BRANCH  21  31
ATOM     30  C   UNL     1      47.580   4.350  17.172  0.00  0.00    +0.000 C 
ATOM     31  O   UNL     1      48.421   5.405  16.710  0.00  0.00    +0.000 OA
ENDBRANCH  21  31
ENDBRANCH  17  28
ENDBRANCH   1  19
TORSDOF 8
ENDMDL
MODEL 4
REMARK VINA RESULT:    -6.866      3.697      8.936
REMARK INTER + INTRA:         -11.106
REMARK INTER:                  -9.065
REMARK INTRA:                  -2.040
REMARK UNBOUND:                -1.028
REMARK  Name = 
REMARK  9 active torsions:
REMARK  status: ('A' for Active; 'I' for Inactive)
REMARK    1  A    between atoms: C_1  and  O_2
REMARK    2  A    between atoms: O_2  and  C_3
REMARK    3  A    between atoms: C_10  and  C_11
REMARK    4  A    between atoms: N_13  and  C_14
REMARK    5  A    between atoms: C_14  and  C_15
REMARK    6  A    between atoms: C_18  and  C_19
REMARK    7  A    between atoms: C_19  and  S_20
REMARK    8  A    between atoms: S_20  and  C_21
REMARK    9  A    between atoms: C_21  and  C_22
REMARK                            x       y       z     vdW  Elec       q    Type
REMARK                         _______ _______ _______ _____ _____    ______ ____
ROOT
ATOM      1  C   UNL     1      47.184   3.325  16.787  0.00  0.00    +0.000 C 
ENDROOT
BRANCH   1   2
ATOM      2  C   UNL     1      48.472   3.586  17.528  0.00  0.00    +0.000 A 
ATOM      3  C   UNL     1      49.666   2.977  17.126  0.00  0.00    +0.000 A 
ATOM      4  C   UNL     1      50.881   3.306  17.743  0.00  0.00    +0.000 A 
ATOM      5  C   UNL     1      50.936   4.263  18.770  0.00  0.00    +0.000 A 
ATOM      6  C   UNL     1      49.725   4.807  19.225  0.00  0.00    +0.000 A 
ATOM      7  C   UNL     1      48.508   4.468  18.616  0.00  0.00    +0.000 A 
BRANCH   5   8
ATOM      8  C   UNL     1      52.262   4.703  19.365  0.00  0.00    +0.000 C 
BRANCH   8   9
ATOM      9  S   UNL     1      53.466   5.163  18.065  0.00  0.00    +0.000 S 
BRANCH   9  10
ATOM     10  C   UNL     1      53.150   6.962  17.942  0.00  0.00    +0.000 C 
BRANCH  10  11
ATOM     11  C   UNL     1      51.737   7.274  17.479  0.00  0.00    +0.000 A 
ATOM     12  C   UNL     1      51.243   6.734  16.289  0.00  0.00    +0.000 A 
ATOM     13  C   UNL     1      49.939   7.025  15.896  0.00  0.00    +0.000 A 
ATOM     14  C   UNL     1      49.153   7.841  16.699  0.00  0.00    +0.000 A 
ATOM     15  C   UNL     1      49.710   8.333  17.867  0.00  0.00    +0.000 A 
ATOM     16  N   UNL     1      50.973   8.065  18.277  0.00  0.00    +0.000 NA
ENDBRANCH  10  11
ENDBRANCH   9  10
ENDBRANCH   8   9
ENDBRANCH   5   8
ENDBRANCH   1   2
BRANCH   1  19
ATOM     17  C   UNL     1      46.925   4.257  14.534  0.00  0.00    +0.000 C 
ATOM     18  O   UNL     1      47.338   3.211  14.031  0.00  0.00    +0.000 OA
ATOM     19  N   UNL     1      46.831   4.397  15.892  0.00  0.00    +0.000 N 
ATOM     20  H   UNL     1      46.512   5.269  16.298  0.00  0.00    +0.000 HD
BRANCH  17  28
ATOM     21  C   UNL     1      44.107   4.945  12.674  0.00  0.00    +0.000 A 
ATOM     22  N   UNL     1      43.172   5.430  11.832  0.00  0.00    +0.000 NA
ATOM     23  C   UNL     1      43.405   6.605  11.241  0.00  0.00    +0.000 A 
ATOM     24  N   UNL     1      44.476   7.377  11.395  0.00  0.00    +0.000 NA
ATOM     25  C   UNL     1      45.391   6.849  12.227  0.00  0.00    +0.000 A 
ATOM     26  S   UNL     1      46.819   7.707  12.550  0.00  0.00    +0.000 S 
ATOM     27  C   UNL     1      47.385   6.474  13.571  0.00  0.00    +0.000 A 
ATOM     28  C   UNL     1      46.516   5.396  13.691  0.00  0.00    +0.000 A 
ATOM     29  C   UNL     1      45.311   5.634  12.900  0.00  0.00    +0.000 A 
BRANCH  21  31
ATOM     30  C   UNL     1      43.520   2.710  12.372  0.00  0.00    +0.000 C 
ATOM     31  O   UNL     1      43.849   3.743  13.299  0.00  0.00    +0.000 OA
ENDBRANCH  21  31
ENDBRANCH  17  28
ENDBRANCH   1  19
TORSDOF 8
ENDMDL
MODEL 5
REMARK VINA RESULT:    -6.734      3.951      8.914
REMARK INTER + INTRA:         -10.911
REMARK INTER:                  -9.707
REMARK INTRA:                  -1.204
REMARK UNBOUND:                -1.028
REMARK  Name = 
REMARK  9 active torsions:
REMARK  status: ('A' for Active; 'I' for Inactive)
REMARK    1  A    between atoms: C_1  and  O_2
REMARK    2  A    between atoms: O_2  and  C_3
REMARK    3  A    between atoms: C_10  and  C_11
REMARK    4  A    between atoms: N_13  and  C_14
REMARK    5  A    between atoms: C_14  and  C_15
REMARK    6  A    between atoms: C_18  and  C_19
REMARK    7  A    between atoms: C_19  and  S_20
REMARK    8  A    between atoms: S_20  and  C_21
REMARK    9  A    between atoms: C_21  and  C_22
REMARK                            x       y       z     vdW  Elec       q    Type
REMARK                         _______ _______ _______ _____ _____    ______ ____
ROOT
ATOM      1  C   UNL     1      47.385   3.362  16.724  0.00  0.00    +0.000 C 
ENDROOT
BRANCH   1   2
ATOM      2  C   UNL     1      48.863   3.341  17.027  0.00  0.00    +0.000 A 
ATOM      3  C   UNL     1      49.521   4.495  17.468  0.00  0.00    +0.000 A 
ATOM      4  C   UNL     1      50.867   4.447  17.857  0.00  0.00    +0.000 A 
ATOM      5  C   UNL     1      51.588   3.242  17.826  0.00  0.00    +0.000 A 
ATOM      6  C   UNL     1      50.948   2.108  17.304  0.00  0.00    +0.000 A 
ATOM      7  C   UNL     1      49.605   2.159  16.903  0.00  0.00    +0.000 A 
BRANCH   5   8
ATOM      8  C   UNL     1      53.011   3.163  18.349  0.00  0.00    +0.000 C 
BRANCH   8   9
ATOM      9  S   UNL     1      53.766   4.824  18.506  0.00  0.00    +0.000 S 
BRANCH   9  10
ATOM     10  C   UNL     1      54.738   4.894  16.955  0.00  0.00    +0.000 C 
BRANCH  10  11
ATOM     11  C   UNL     1      54.259   5.989  16.018  0.00  0.00    +0.000 A 
ATOM     12  C   UNL     1      53.042   6.636  16.243  0.00  0.00    +0.000 A 
ATOM     13  C   UNL     1      52.634   7.647  15.376  0.00  0.00    +0.000 A 
ATOM     14  C   UNL     1      53.450   7.997  14.308  0.00  0.00    +0.000 A 
ATOM     15  C   UNL     1      54.645   7.315  14.153  0.00  0.00    +0.000 A 
ATOM     16  N   UNL     1      55.069   6.330  14.982  0.00  0.00    +0.000 NA
ENDBRANCH  10  11
ENDBRANCH   9  10
ENDBRANCH   8   9
ENDBRANCH   5   8
ENDBRANCH   1   2
BRANCH   1  19
ATOM     17  C   UNL     1      46.932   4.269  14.492  0.00  0.00    +0.000 C 
ATOM     18  O   UNL     1      47.196   3.183  13.974  0.00  0.00    +0.000 OA
ATOM     19  N   UNL     1      47.013   4.443  15.847  0.00  0.00    +0.000 N 
ATOM     20  H   UNL     1      46.816   5.345  16.263  0.00  0.00    +0.000 HD
BRANCH  17  28
ATOM     21  C   UNL     1      44.091   4.994  12.680  0.00  0.00    +0.000 A 
ATOM     22  N   UNL     1      43.146   5.494  11.858  0.00  0.00    +0.000 NA
ATOM     23  C   UNL     1      43.377   6.677  11.280  0.00  0.00    +0.000 A 
ATOM     24  N   UNL     1      44.452   7.443  11.431  0.00  0.00    +0.000 NA
ATOM     25  C   UNL     1      45.376   6.899  12.243  0.00  0.00    +0.000 A 
ATOM     26  S   UNL     1      46.812   7.747  12.558  0.00  0.00    +0.000 S 
ATOM     27  C   UNL     1      47.387   6.498  13.554  0.00  0.00    +0.000 A 
ATOM     28  C   UNL     1      46.516   5.422  13.671  0.00  0.00    +0.000 A 
ATOM     29  C   UNL     1      45.300   5.675  12.900  0.00  0.00    +0.000 A 
BRANCH  21  31
ATOM     30  C   UNL     1      43.611   2.738  12.350  0.00  0.00    +0.000 C 
ATOM     31  O   UNL     1      43.837   3.785  13.293  0.00  0.00    +0.000 OA
ENDBRANCH  21  31
ENDBRANCH  17  28
ENDBRANCH   1  19
TORSDOF 8
ENDMDL
MODEL 6
REMARK VINA RESULT:    -6.523      4.426      9.352
REMARK INTER + INTRA:         -10.602
REMARK INTER:                  -9.690
REMARK INTRA:                  -0.912
REMARK UNBOUND:                -1.028
REMARK  Name = 
REMARK  9 active torsions:
REMARK  status: ('A' for Active; 'I' for Inactive)
REMARK    1  A    between atoms: C_1  and  O_2
REMARK    2  A    between atoms: O_2  and  C_3
REMARK    3  A    between atoms: C_10  and  C_11
REMARK    4  A    between atoms: N_13  and  C_14
REMARK    5  A    between atoms: C_14  and  C_15
REMARK    6  A    between atoms: C_18  and  C_19
REMARK    7  A    between atoms: C_19  and  S_20
REMARK    8  A    between atoms: S_20  and  C_21
REMARK    9  A    between atoms: C_21  and  C_22
REMARK                            x       y       z     vdW  Elec       q    Type
REMARK                         _______ _______ _______ _____ _____    ______ ____
ROOT
ATOM      1  C   UNL     1      47.262   3.313  16.804  0.00  0.00    +0.000 C 
ENDROOT
BRANCH   1   2
ATOM      2  C   UNL     1      48.550   3.609  17.532  0.00  0.00    +0.000 A 
ATOM      3  C   UNL     1      49.731   2.936  17.201  0.00  0.00    +0.000 A 
ATOM      4  C   UNL     1      50.949   3.290  17.798  0.00  0.00    +0.000 A 
ATOM      5  C   UNL     1      51.020   4.335  18.733  0.00  0.00    +0.000 A 
ATOM      6  C   UNL     1      49.820   4.949  19.123  0.00  0.00    +0.000 A 
ATOM      7  C   UNL     1      48.600   4.586  18.534  0.00  0.00    +0.000 A 
BRANCH   5   8
ATOM      8  C   UNL     1      52.352   4.795  19.300  0.00  0.00    +0.000 C 
BRANCH   8   9
ATOM      9  S   UNL     1      53.753   4.267  18.245  0.00  0.00    +0.000 S 
BRANCH   9  10
ATOM     10  C   UNL     1      54.371   2.836  19.206  0.00  0.00    +0.000 C 
BRANCH  10  11
ATOM     11  C   UNL     1      54.492   1.577  18.363  0.00  0.00    +0.000 A 
ATOM     12  C   UNL     1      54.994   1.640  17.061  0.00  0.00    +0.000 A 
ATOM     13  C   UNL     1      55.108   0.468  16.316  0.00  0.00    +0.000 A 
ATOM     14  C   UNL     1      54.727  -0.739  16.886  0.00  0.00    +0.000 A 
ATOM     15  C   UNL     1      54.245  -0.722  18.184  0.00  0.00    +0.000 A 
ATOM     16  N   UNL     1      54.125   0.400  18.933  0.00  0.00    +0.000 NA
ENDBRANCH  10  11
ENDBRANCH   9  10
ENDBRANCH   8   9
ENDBRANCH   5   8
ENDBRANCH   1   2
BRANCH   1  19
ATOM     17  C   UNL     1      46.908   4.248  14.565  0.00  0.00    +0.000 C 
ATOM     18  O   UNL     1      47.316   3.209  14.043  0.00  0.00    +0.000 OA
ATOM     19  N   UNL     1      46.861   4.383  15.926  0.00  0.00    +0.000 N 
ATOM     20  H   UNL     1      46.547   5.249  16.347  0.00  0.00    +0.000 HD
BRANCH  17  28
ATOM     21  C   UNL     1      44.100   4.820  12.649  0.00  0.00    +0.000 A 
ATOM     22  N   UNL     1      43.159   5.271  11.796  0.00  0.00    +0.000 NA
ATOM     23  C   UNL     1      43.337   6.474  11.242  0.00  0.00    +0.000 A 
ATOM     24  N   UNL     1      44.355   7.304  11.445  0.00  0.00    +0.000 NA
ATOM     25  C   UNL     1      45.279   6.808  12.286  0.00  0.00    +0.000 A 
ATOM     26  S   UNL     1      46.645   7.740  12.670  0.00  0.00    +0.000 S 
ATOM     27  C   UNL     1      47.258   6.515  13.673  0.00  0.00    +0.000 A 
ATOM     28  C   UNL     1      46.452   5.384  13.742  0.00  0.00    +0.000 A 
ATOM     29  C   UNL     1      45.255   5.572  12.926  0.00  0.00    +0.000 A 
BRANCH  21  31
ATOM     30  C   UNL     1      43.506   2.595  12.290  0.00  0.00    +0.000 C 
ATOM     31  O   UNL     1      43.900   3.588  13.236  0.00  0.00    +0.000 OA
ENDBRANCH  21  31
ENDBRANCH  17  28
ENDBRANCH   1  19
TORSDOF 8
ENDMDL
MODEL 7
REMARK VINA RESULT:    -6.447      2.614      3.133
REMARK INTER + INTRA:         -10.491
REMARK INTER:                  -9.326
REMARK INTRA:                  -1.165
REMARK UNBOUND:                -1.028
REMARK  Name = 
REMARK  9 active torsions:
REMARK  status: ('A' for Active; 'I' for Inactive)
REMARK    1  A    between atoms: C_1  and  O_2
REMARK    2  A    between atoms: O_2  and  C_3
REMARK    3  A    between atoms: C_10  and  C_11
REMARK    4  A    between atoms: N_13  and  C_14
REMARK    5  A    between atoms: C_14  and  C_15
REMARK    6  A    between atoms: C_18  and  C_19
REMARK    7  A    between atoms: C_19  and  S_20
REMARK    8  A    between atoms: S_20  and  C_21
REMARK    9  A    between atoms: C_21  and  C_22
REMARK                            x       y       z     vdW  Elec       q    Type
REMARK                         _______ _______ _______ _____ _____    ______ ____
ROOT
ATOM      1  C   UNL     1      48.679   7.001  13.017  0.00  0.00    +0.000 C 
ENDROOT
BRANCH   1   2
ATOM      2  C   UNL     1      47.297   6.399  13.073  0.00  0.00    +0.000 A 
ATOM      3  C   UNL     1      46.180   7.126  12.643  0.00  0.00    +0.000 A 
ATOM      4  C   UNL     1      44.914   6.528  12.588  0.00  0.00    +0.000 A 
ATOM      5  C   UNL     1      44.731   5.184  12.949  0.00  0.00    +0.000 A 
ATOM      6  C   UNL     1      45.837   4.486  13.459  0.00  0.00    +0.000 A 
ATOM      7  C   UNL     1      47.102   5.088  13.526  0.00  0.00    +0.000 A 
BRANCH   5   8
ATOM      8  C   UNL     1      43.384   4.502  12.787  0.00  0.00    +0.000 C 
BRANCH   8   9
ATOM      9  S   UNL     1      43.427   3.226  11.475  0.00  0.00    +0.000 S 
BRANCH   9  10
ATOM     10  C   UNL     1      43.875   4.254  10.027  0.00  0.00    +0.000 C 
BRANCH  10  11
ATOM     11  C   UNL     1      44.883   3.571   9.118  0.00  0.00    +0.000 A 
ATOM     12  C   UNL     1      45.108   2.196   9.212  0.00  0.00    +0.000 A 
ATOM     13  C   UNL     1      46.027   1.594   8.356  0.00  0.00    +0.000 A 
ATOM     14  C   UNL     1      46.696   2.372   7.421  0.00  0.00    +0.000 A 
ATOM     15  C   UNL     1      46.415   3.727   7.383  0.00  0.00    +0.000 A 
ATOM     16  N   UNL     1      45.525   4.340   8.200  0.00  0.00    +0.000 NA
ENDBRANCH  10  11
ENDBRANCH   9  10
ENDBRANCH   8   9
ENDBRANCH   5   8
ENDBRANCH   1   2
BRANCH   1  19
ATOM     17  C   UNL     1      48.911   8.621  14.844  0.00  0.00    +0.000 C 
ATOM     18  O   UNL     1      48.263   9.457  14.213  0.00  0.00    +0.000 OA
ATOM     19  N   UNL     1      49.171   7.385  14.316  0.00  0.00    +0.000 N 
ATOM     20  H   UNL     1      49.725   6.711  14.831  0.00  0.00    +0.000 HD
BRANCH  17  28
ATOM     21  C   UNL     1      51.971   8.169  16.365  0.00  0.00    +0.000 A 
ATOM     22  N   UNL     1      53.017   8.052  17.207  0.00  0.00    +0.000 NA
ATOM     23  C   UNL     1      52.863   8.475  18.465  0.00  0.00    +0.000 A 
ATOM     24  N   UNL     1      51.773   9.021  18.996  0.00  0.00    +0.000 NA
ATOM     25  C   UNL     1      50.749   9.102  18.128  0.00  0.00    +0.000 A 
ATOM     26  S   UNL     1      49.280   9.785  18.633  0.00  0.00    +0.000 S 
ATOM     27  C   UNL     1      48.579   9.523  17.109  0.00  0.00    +0.000 A 
ATOM     28  C   UNL     1      49.431   8.919  16.191  0.00  0.00    +0.000 A 
ATOM     29  C   UNL     1      50.739   8.688  16.799  0.00  0.00    +0.000 A 
BRANCH  21  31
ATOM     30  C   UNL     1      52.655   8.789  14.225  0.00  0.00    +0.000 C 
ATOM     31  O   UNL     1      52.144   7.752  15.062  0.00  0.00    +0.000 OA
ENDBRANCH  21  31
ENDBRANCH  17  28
ENDBRANCH   1  19
TORSDOF 8
ENDMDL
MODEL 8
REMARK VINA RESULT:    -6.123      2.221      3.829
REMARK INTER + INTRA:         -10.014
REMARK INTER:                  -8.931
REMARK INTRA:                  -1.083
REMARK UNBOUND:                -1.028
REMARK  Name = 
REMARK  9 active torsions:
REMARK  status: ('A' for Active; 'I' for Inactive)
REMARK    1  A    between atoms: C_1  and  O_2
REMARK    2  A    between atoms: O_2  and  C_3
REMARK    3  A    between atoms: C_10  and  C_11
REMARK    4  A    between atoms: N_13  and  C_14
REMARK    5  A    between atoms: C_14  and  C_15
REMARK    6  A    between atoms: C_18  and  C_19
REMARK    7  A    between atoms: C_19  and  S_20
REMARK    8  A    between atoms: S_20  and  C_21
REMARK    9  A    between atoms: C_21  and  C_22
REMARK                            x       y       z     vdW  Elec       q    Type
REMARK                         _______ _______ _______ _____ _____    ______ ____
ROOT
ATOM      1  C   UNL     1      47.983   5.274  14.994  0.00  0.00    +0.000 C 
ENDROOT
BRANCH   1   2
ATOM      2  C   UNL     1      46.864   5.340  13.984  0.00  0.00    +0.000 A 
ATOM      3  C   UNL     1      46.872   6.304  12.969  0.00  0.00    +0.000 A 
ATOM      4  C   UNL     1      45.893   6.294  11.965  0.00  0.00    +0.000 A 
ATOM      5  C   UNL     1      44.889   5.313  11.942  0.00  0.00    +0.000 A 
ATOM      6  C   UNL     1      44.837   4.402  13.008  0.00  0.00    +0.000 A 
ATOM      7  C   UNL     1      45.809   4.420  14.019  0.00  0.00    +0.000 A 
BRANCH   5   8
ATOM      8  C   UNL     1      43.894   5.232  10.798  0.00  0.00    +0.000 C 
BRANCH   8   9
ATOM      9  S   UNL     1      44.124   3.709   9.809  0.00  0.00    +0.000 S 
BRANCH   9  10
ATOM     10  C   UNL     1      45.234   4.332   8.492  0.00  0.00    +0.000 C 
BRANCH  10  11
ATOM     11  C   UNL     1      45.995   3.216   7.796  0.00  0.00    +0.000 A 
ATOM     12  C   UNL     1      46.695   3.463   6.613  0.00  0.00    +0.000 A 
ATOM     13  C   UNL     1      47.397   2.425   6.005  0.00  0.00    +0.000 A 
ATOM     14  C   UNL     1      47.391   1.166   6.590  0.00  0.00    +0.000 A 
ATOM     15  C   UNL     1      46.680   1.000   7.767  0.00  0.00    +0.000 A 
ATOM     16  N   UNL     1      45.992   1.991   8.383  0.00  0.00    +0.000 NA
ENDBRANCH  10  11
ENDBRANCH   9  10
ENDBRANCH   8   9
ENDBRANCH   5   8
ENDBRANCH   1   2
BRANCH   1  19
ATOM     17  C   UNL     1      49.683   6.703  16.032  0.00  0.00    +0.000 C 
ATOM     18  O   UNL     1      50.270   5.717  16.479  0.00  0.00    +0.000 OA
ATOM     19  N   UNL     1      48.537   6.569  15.296  0.00  0.00    +0.000 N 
ATOM     20  H   UNL     1      48.047   7.386  14.952  0.00  0.00    +0.000 HD
BRANCH  17  28
ATOM     21  C   UNL     1      50.289   9.407  13.982  0.00  0.00    +0.000 A 
ATOM     22  N   UNL     1      50.672  10.569  13.416  0.00  0.00    +0.000 NA
ATOM     23  C   UNL     1      51.186  11.515  14.206  0.00  0.00    +0.000 A 
ATOM     24  N   UNL     1      51.361  11.448  15.522  0.00  0.00    +0.000 NA
ATOM     25  C   UNL     1      50.985  10.267  16.043  0.00  0.00    +0.000 A 
ATOM     26  S   UNL     1      51.128  10.009  17.715  0.00  0.00    +0.000 S 
ATOM     27  C   UNL     1      50.518   8.431  17.572  0.00  0.00    +0.000 A 
ATOM     28  C   UNL     1      50.195   8.065  16.271  0.00  0.00    +0.000 A 
ATOM     29  C   UNL     1      50.456   9.177  15.359  0.00  0.00    +0.000 A 
BRANCH  21  31
ATOM     30  C   UNL     1      50.155   8.581  11.807  0.00  0.00    +0.000 C 
ATOM     31  O   UNL     1      49.737   8.443  13.165  0.00  0.00    +0.000 OA
ENDBRANCH  21  31
ENDBRANCH  17  28
ENDBRANCH   1  19
TORSDOF 8
ENDMDL
MODEL 9
REMARK VINA RESULT:    -5.572      1.774      2.243
REMARK INTER + INTRA:          -9.206
REMARK INTER:                  -8.380
REMARK INTRA:                  -0.826
REMARK UNBOUND:                -1.028
REMARK  Name = 
REMARK  9 active torsions:
REMARK  status: ('A' for Active; 'I' for Inactive)
REMARK    1  A    between atoms: C_1  and  O_2
REMARK    2  A    between atoms: O_2  and  C_3
REMARK    3  A    between atoms: C_10  and  C_11
REMARK    4  A    between atoms: N_13  and  C_14
REMARK    5  A    between atoms: C_14  and  C_15
REMARK    6  A    between atoms: C_18  and  C_19
REMARK    7  A    between atoms: C_19  and  S_20
REMARK    8  A    between atoms: S_20  and  C_21
REMARK    9  A    between atoms: C_21  and  C_22
REMARK                            x       y       z     vdW  Elec       q    Type
REMARK                         _______ _______ _______ _____ _____    ______ ____
ROOT
ATOM      1  C   UNL     1      48.265   6.298  14.266  0.00  0.00    +0.000 C 
ENDROOT
BRANCH   1   2
ATOM      2  C   UNL     1      47.017   5.757  13.613  0.00  0.00    +0.000 A 
ATOM      3  C   UNL     1      46.125   6.611  12.955  0.00  0.00    +0.000 A 
ATOM      4  C   UNL     1      45.027   6.096  12.252  0.00  0.00    +0.000 A 
ATOM      5  C   UNL     1      44.799   4.712  12.177  0.00  0.00    +0.000 A 
ATOM      6  C   UNL     1      45.648   3.867  12.908  0.00  0.00    +0.000 A 
ATOM      7  C   UNL     1      46.739   4.384  13.622  0.00  0.00    +0.000 A 
BRANCH   5   8
ATOM      8  C   UNL     1      43.676   4.144  11.327  0.00  0.00    +0.000 C 
BRANCH   8   9
ATOM      9  S   UNL     1      44.097   4.175   9.546  0.00  0.00    +0.000 S 
BRANCH   9  10
ATOM     10  C   UNL     1      44.669   2.451   9.310  0.00  0.00    +0.000 C 
BRANCH  10  11
ATOM     11  C   UNL     1      45.689   2.325   8.192  0.00  0.00    +0.000 A 
ATOM     12  C   UNL     1      45.861   3.356   7.266  0.00  0.00    +0.000 A 
ATOM     13  C   UNL     1      46.814   3.220   6.259  0.00  0.00    +0.000 A 
ATOM     14  C   UNL     1      47.581   2.064   6.201  0.00  0.00    +0.000 A 
ATOM     15  C   UNL     1      47.358   1.088   7.159  0.00  0.00    +0.000 A 
ATOM     16  N   UNL     1      46.441   1.194   8.150  0.00  0.00    +0.000 NA
ENDBRANCH  10  11
ENDBRANCH   9  10
ENDBRANCH   8   9
ENDBRANCH   5   8
ENDBRANCH   1   2
BRANCH   1  19
ATOM     17  C   UNL     1      48.884   7.602  16.248  0.00  0.00    +0.000 C 
ATOM     18  O   UNL     1      49.964   7.016  16.322  0.00  0.00    +0.000 OA
ATOM     19  N   UNL     1      47.981   7.296  15.265  0.00  0.00    +0.000 N 
ATOM     20  H   UNL     1      47.085   7.767  15.225  0.00  0.00    +0.000 HD
BRANCH  17  28
ATOM     21  C   UNL     1      47.978   7.570  19.574  0.00  0.00    +0.000 A 
ATOM     22  N   UNL     1      47.544   7.837  20.821  0.00  0.00    +0.000 NA
ATOM     23  C   UNL     1      47.284   9.108  21.139  0.00  0.00    +0.000 A 
ATOM     24  N   UNL     1      47.415  10.171  20.351  0.00  0.00    +0.000 NA
ATOM     25  C   UNL     1      47.832   9.858  19.112  0.00  0.00    +0.000 A 
ATOM     26  S   UNL     1      48.066  11.096  17.974  0.00  0.00    +0.000 S 
ATOM     27  C   UNL     1      48.532   9.978  16.783  0.00  0.00    +0.000 A 
ATOM     28  C   UNL     1      48.522   8.657  17.214  0.00  0.00    +0.000 A 
ATOM     29  C   UNL     1      48.123   8.590  18.618  0.00  0.00    +0.000 A 
BRANCH  21  31
ATOM     30  C   UNL     1      47.125   5.553  18.777  0.00  0.00    +0.000 C 
ATOM     31  O   UNL     1      48.268   6.259  19.259  0.00  0.00    +0.000 OA
ENDBRANCH  21  31
ENDBRANCH  17  28
ENDBRANCH   1  19
TORSDOF 8
ENDMDL
