MODEL 1
REMARK VINA RESULT:    -8.614      0.000      0.000
REMARK INTER + INTRA:         -14.369
REMARK INTER:                 -12.894
REMARK INTRA:                  -1.475
REMARK UNBOUND:                -1.475
REMARK  Name = 
REMARK  9 active torsions:
REMARK  status: ('A' for Active; 'I' for Inactive)
REMARK    1  A    between atoms: C_2  and  C_22
REMARK    2  A    between atoms: N_3  and  CA_4
REMARK    3  A    between atoms: CA_4  and  C_5
REMARK    4  A    between atoms: CA_4  and  C_7
REMARK    5  A    between atoms: C_5  and  O_6
REMARK    6  A    between atoms: C_10  and  C_11
REMARK    7  A    between atoms: C_11  and  N_12
REMARK    8  A    between atoms: N_12  and  C_13
REMARK    9  A    between atoms: C_13  and  C_14
REMARK                            x       y       z     vdW  Elec       q    Type
REMARK                         _______ _______ _______ _____ _____    ______ ____
ROOT
ATOM      1  CA  UNL     1      47.064   7.477  13.210  0.00  0.00    +0.000 C 
ENDROOT
BRANCH   1   2
ATOM      2  C   UNL     1      46.158   6.468  12.516  0.00  0.00    +0.000 A 
ATOM      3  C   UNL     1      45.350   5.628  13.303  0.00  0.00    +0.000 A 
ATOM      4  C   UNL     1      44.498   4.685  12.722  0.00  0.00    +0.000 A 
ATOM      5  C   UNL     1      44.412   4.560  11.331  0.00  0.00    +0.000 A 
ATOM      6  C   UNL     1      45.202   5.406  10.539  0.00  0.00    +0.000 A 
ATOM      7  C   UNL     1      46.062   6.353  11.123  0.00  0.00    +0.000 A 
BRANCH   5   8
ATOM      8  C   UNL     1      43.499   3.519  10.715  0.00  0.00    +0.000 C 
BRANCH   8   9
ATOM      9  N   UNL     1      43.870   3.238   9.327  0.00  0.00    +0.000 NA
ATOM     10  H   UNL     1      44.408   4.022   8.963  0.00  0.00    +0.000 HD
BRANCH   9  11
ATOM     11  C   UNL     1      44.670   2.019   9.214  0.00  0.00    +0.000 C 
BRANCH  11  12
ATOM     12  C   UNL     1      45.751   2.166   8.165  0.00  0.00    +0.000 A 
ATOM     13  C   UNL     1      46.640   1.117   7.888  0.00  0.00    +0.000 A 
ATOM     14  C   UNL     1      47.608   1.251   6.889  0.00  0.00    +0.000 A 
ATOM     15  C   UNL     1      47.699   2.433   6.156  0.00  0.00    +0.000 A 
ATOM     16  C   UNL     1      46.829   3.487   6.427  0.00  0.00    +0.000 A 
ATOM     17  C   UNL     1      45.861   3.353   7.423  0.00  0.00    +0.000 A 
ENDBRANCH  11  12
ENDBRANCH   9  11
ENDBRANCH   8   9
ENDBRANCH   5   8
ENDBRANCH   1   2
BRANCH   1  20
ATOM     18  O   UNL     1      49.784   7.029  14.162  0.00  0.00    +0.000 OA
ATOM     19  C   UNL     1      48.825   6.823  14.899  0.00  0.00    +0.000 C 
ATOM     20  N   UNL     1      47.527   6.978  14.497  0.00  0.00    +0.000 N 
ATOM     21  H   UNL     1      46.806   6.959  15.210  0.00  0.00    +0.000 HD
BRANCH  19  22
ATOM     22  C   UNL     1      49.000   6.308  16.266  0.00  0.00    +0.000 A 
ATOM     23  C   UNL     1      49.687   7.047  17.218  0.00  0.00    +0.000 A 
ATOM     24  S   UNL     1      49.775   6.285  18.744  0.00  0.00    +0.000 S 
ATOM     25  C   UNL     1      48.861   4.954  18.198  0.00  0.00    +0.000 A 
ATOM     26  N   UNL     1      48.525   3.939  19.034  0.00  0.00    +0.000 NA
ATOM     27  C   UNL     1      47.798   3.020  18.489  0.00  0.00    +0.000 A 
ATOM     28  N   UNL     1      47.396   3.011  17.184  0.00  0.00    +0.000 N 
ATOM     29  C   UNL     1      47.800   3.964  16.278  0.00  0.00    +0.000 A 
ATOM     30  O   UNL     1      47.593   3.826  15.077  0.00  0.00    +0.000 OA
ATOM     31  C   UNL     1      48.544   5.069  16.853  0.00  0.00    +0.000 A 
ATOM     32  H   UNL     1      46.880   2.233  16.802  0.00  0.00    +0.000 HD
ENDBRANCH  19  22
ENDBRANCH   1  20
BRANCH   1  33
ATOM     33  C   UNL     1      46.570   8.940  13.215  0.00  0.00    +0.000 C 
BRANCH  33  34
ATOM     34  O   UNL     1      45.142   9.010  13.157  0.00  0.00    +0.000 OA
ATOM     35  H   UNL     1      44.920   9.880  12.780  0.00  0.00    +0.000 HD
ENDBRANCH  33  34
ENDBRANCH   1  33
TORSDOF 9
ENDMDL
MODEL 2
REMARK VINA RESULT:    -8.365      1.811      2.621
REMARK INTER + INTRA:         -13.996
REMARK INTER:                 -12.443
REMARK INTRA:                  -1.553
REMARK UNBOUND:                -1.475
REMARK  Name = 
REMARK  9 active torsions:
REMARK  status: ('A' for Active; 'I' for Inactive)
REMARK    1  A    between atoms: C_2  and  C_22
REMARK    2  A    between atoms: N_3  and  CA_4
REMARK    3  A    between atoms: CA_4  and  C_5
REMARK    4  A    between atoms: CA_4  and  C_7
REMARK    5  A    between atoms: C_5  and  O_6
REMARK    6  A    between atoms: C_10  and  C_11
REMARK    7  A    between atoms: C_11  and  N_12
REMARK    8  A    between atoms: N_12  and  C_13
REMARK    9  A    between atoms: C_13  and  C_14
REMARK                            x       y       z     vdW  Elec       q    Type
REMARK                         _______ _______ _______ _____ _____    ______ ____
ROOT
ATOM      1  CA  UNL     1      47.730   6.842  13.700  0.00  0.00    +0.000 C 
ENDROOT
BRANCH   1   2
ATOM      2  C   UNL     1      46.610   6.070  13.013  0.00  0.00    +0.000 A 
ATOM      3  C   UNL     1      46.295   6.376  11.677  0.00  0.00    +0.000 A 
ATOM      4  C   UNL     1      45.279   5.701  10.996  0.00  0.00    +0.000 A 
ATOM      5  C   UNL     1      44.552   4.683  11.622  0.00  0.00    +0.000 A 
ATOM      6  C   UNL     1      44.873   4.359  12.950  0.00  0.00    +0.000 A 
ATOM      7  C   UNL     1      45.892   5.041  13.637  0.00  0.00    +0.000 A 
BRANCH   5   8
ATOM      8  C   UNL     1      43.440   3.972  10.878  0.00  0.00    +0.000 C 
BRANCH   8   9
ATOM      9  N   UNL     1      43.861   3.586   9.530  0.00  0.00    +0.000 NA
ATOM     10  H   UNL     1      44.380   4.357   9.112  0.00  0.00    +0.000 HD
BRANCH   9  11
ATOM     11  C   UNL     1      44.708   2.395   9.545  0.00  0.00    +0.000 C 
BRANCH  11  12
ATOM     12  C   UNL     1      45.678   2.396   8.384  0.00  0.00    +0.000 A 
ATOM     13  C   UNL     1      45.861   3.541   7.593  0.00  0.00    +0.000 A 
ATOM     14  C   UNL     1      46.790   3.542   6.549  0.00  0.00    +0.000 A 
ATOM     15  C   UNL     1      47.546   2.402   6.283  0.00  0.00    +0.000 A 
ATOM     16  C   UNL     1      47.368   1.255   7.054  0.00  0.00    +0.000 A 
ATOM     17  C   UNL     1      46.443   1.254   8.098  0.00  0.00    +0.000 A 
ENDBRANCH  11  12
ENDBRANCH   9  11
ENDBRANCH   8   9
ENDBRANCH   5   8
ENDBRANCH   1   2
BRANCH   1  20
ATOM     18  O   UNL     1      50.110   6.568  15.362  0.00  0.00    +0.000 OA
ATOM     19  C   UNL     1      48.993   6.398  15.841  0.00  0.00    +0.000 C 
ATOM     20  N   UNL     1      47.844   6.476  15.103  0.00  0.00    +0.000 N 
ATOM     21  H   UNL     1      46.963   6.499  15.604  0.00  0.00    +0.000 HD
BRANCH  19  22
ATOM     22  C   UNL     1      48.810   6.015  17.249  0.00  0.00    +0.000 A 
ATOM     23  C   UNL     1      49.089   4.724  17.675  0.00  0.00    +0.000 A 
ATOM     24  S   UNL     1      48.822   4.480  19.344  0.00  0.00    +0.000 S 
ATOM     25  C   UNL     1      48.360   6.106  19.568  0.00  0.00    +0.000 A 
ATOM     26  N   UNL     1      48.044   6.585  20.798  0.00  0.00    +0.000 NA
ATOM     27  C   UNL     1      47.752   7.843  20.818  0.00  0.00    +0.000 A 
ATOM     28  N   UNL     1      47.726   8.660  19.724  0.00  0.00    +0.000 N 
ATOM     29  C   UNL     1      47.939   8.193  18.447  0.00  0.00    +0.000 A 
ATOM     30  O   UNL     1      47.714   8.897  17.469  0.00  0.00    +0.000 OA
ATOM     31  C   UNL     1      48.358   6.806  18.371  0.00  0.00    +0.000 A 
ATOM     32  H   UNL     1      47.431   9.622  19.796  0.00  0.00    +0.000 HD
ENDBRANCH  19  22
ENDBRANCH   1  20
BRANCH   1  33
ATOM     33  C   UNL     1      47.780   8.358  13.413  0.00  0.00    +0.000 C 
BRANCH  33  34
ATOM     34  O   UNL     1      47.143   9.109  14.450  0.00  0.00    +0.000 OA
ATOM     35  H   UNL     1      47.686   9.905  14.594  0.00  0.00    +0.000 HD
ENDBRANCH  33  34
ENDBRANCH   1  33
TORSDOF 9
ENDMDL
MODEL 3
REMARK VINA RESULT:    -8.097      2.184      3.342
REMARK INTER + INTRA:         -13.595
REMARK INTER:                 -12.171
REMARK INTRA:                  -1.424
REMARK UNBOUND:                -1.475
REMARK  Name = 
REMARK  9 active torsions:
REMARK  status: ('A' for Active; 'I' for Inactive)
REMARK    1  A    between atoms: C_2  and  C_22
REMARK    2  A    between atoms: N_3  and  CA_4
REMARK    3  A    between atoms: CA_4  and  C_5
REMARK    4  A    between atoms: CA_4  and  C_7
REMARK    5  A    between atoms: C_5  and  O_6
REMARK    6  A    between atoms: C_10  and  C_11
REMARK    7  A    between atoms: C_11  and  N_12
REMARK    8  A    between atoms: N_12  and  C_13
REMARK    9  A    between atoms: C_13  and  C_14
REMARK                            x       y       z     vdW  Elec       q    Type
REMARK                         _______ _______ _______ _____ _____    ______ ____
ROOT
ATOM      1  CA  UNL     1      48.372   6.550  13.908  0.00  0.00    +0.000 C 
ENDROOT
BRANCH   1   2
ATOM      2  C   UNL     1      47.125   6.097  13.160  0.00  0.00    +0.000 A 
ATOM      3  C   UNL     1      46.862   6.639  11.889  0.00  0.00    +0.000 A 
ATOM      4  C   UNL     1      45.735   6.261  11.156  0.00  0.00    +0.000 A 
ATOM      5  C   UNL     1      44.837   5.313  11.661  0.00  0.00    +0.000 A 
ATOM      6  C   UNL     1      45.103   4.755  12.921  0.00  0.00    +0.000 A 
ATOM      7  C   UNL     1      46.235   5.138  13.661  0.00  0.00    +0.000 A 
BRANCH   5   8
ATOM      8  C   UNL     1      43.608   4.927  10.864  0.00  0.00    +0.000 C 
BRANCH   8   9
ATOM      9  N   UNL     1      43.970   4.407   9.544  0.00  0.00    +0.000 NA
ATOM     10  H   UNL     1      44.698   4.997   9.144  0.00  0.00    +0.000 HD
BRANCH   9  11
ATOM     11  C   UNL     1      44.459   3.031   9.617  0.00  0.00    +0.000 C 
BRANCH  11  12
ATOM     12  C   UNL     1      45.448   2.740   8.508  0.00  0.00    +0.000 A 
ATOM     13  C   UNL     1      45.863   3.748   7.624  0.00  0.00    +0.000 A 
ATOM     14  C   UNL     1      46.807   3.476   6.631  0.00  0.00    +0.000 A 
ATOM     15  C   UNL     1      47.346   2.197   6.507  0.00  0.00    +0.000 A 
ATOM     16  C   UNL     1      46.936   1.184   7.372  0.00  0.00    +0.000 A 
ATOM     17  C   UNL     1      45.995   1.455   8.366  0.00  0.00    +0.000 A 
ENDBRANCH  11  12
ENDBRANCH   9  11
ENDBRANCH   8   9
ENDBRANCH   5   8
ENDBRANCH   1   2
BRANCH   1  20
ATOM     18  O   UNL     1      49.837   5.552  16.224  0.00  0.00    +0.000 OA
ATOM     19  C   UNL     1      48.851   6.268  16.372  0.00  0.00    +0.000 C 
ATOM     20  N   UNL     1      48.103   6.735  15.326  0.00  0.00    +0.000 N 
ATOM     21  H   UNL     1      47.419   7.457  15.521  0.00  0.00    +0.000 HD
BRANCH  19  22
ATOM     22  C   UNL     1      48.348   6.619  17.709  0.00  0.00    +0.000 A 
ATOM     23  C   UNL     1      48.168   5.642  18.677  0.00  0.00    +0.000 A 
ATOM     24  S   UNL     1      47.585   6.249  20.164  0.00  0.00    +0.000 S 
ATOM     25  C   UNL     1      47.590   7.850  19.579  0.00  0.00    +0.000 A 
ATOM     26  N   UNL     1      47.240   8.892  20.376  0.00  0.00    +0.000 NA
ATOM     27  C   UNL     1      47.330  10.048  19.806  0.00  0.00    +0.000 A 
ATOM     28  N   UNL     1      47.714  10.258  18.513  0.00  0.00    +0.000 N 
ATOM     29  C   UNL     1      47.976   9.225  17.642  0.00  0.00    +0.000 A 
ATOM     30  O   UNL     1      48.122   9.429  16.442  0.00  0.00    +0.000 OA
ATOM     31  C   UNL     1      47.978   7.908  18.249  0.00  0.00    +0.000 A 
ATOM     32  H   UNL     1      47.705  11.182  18.108  0.00  0.00    +0.000 HD
ENDBRANCH  19  22
ENDBRANCH   1  20
BRANCH   1  33
ATOM     33  C   UNL     1      49.186   7.682  13.244  0.00  0.00    +0.000 C 
BRANCH  33  34
ATOM     34  O   UNL     1      50.592   7.426  13.311  0.00  0.00    +0.000 OA
ATOM     35  H   UNL     1      50.936   7.516  12.405  0.00  0.00    +0.000 HD
ENDBRANCH  33  34
ENDBRANCH   1  33
TORSDOF 9
ENDMDL
MODEL 4
REMARK VINA RESULT:    -7.614      1.668      2.267
REMARK INTER + INTRA:         -12.872
REMARK INTER:                 -11.489
REMARK INTRA:                  -1.383
REMARK UNBOUND:                -1.475
REMARK  Name = 
REMARK  9 active torsions:
REMARK  status: ('A' for Active; 'I' for Inactive)
REMARK    1  A    between atoms: C_2  and  C_22
REMARK    2  A    between atoms: N_3  and  CA_4
REMARK    3  A    between atoms: CA_4  and  C_5
REMARK    4  A    between atoms: CA_4  and  C_7
REMARK    5  A    between atoms: C_5  and  O_6
REMARK    6  A    between atoms: C_10  and  C_11
REMARK    7  A    between atoms: C_11  and  N_12
REMARK    8  A    between atoms: N_12  and  C_13
REMARK    9  A    between atoms: C_13  and  C_14
REMARK                            x       y       z     vdW  Elec       q    Type
REMARK                         _______ _______ _______ _____ _____    ______ ____
ROOT
ATOM      1  CA  UNL     1      48.210   7.470  13.330  0.00  0.00    +0.000 C 
ENDROOT
BRANCH   1   2
ATOM      2  C   UNL     1      47.233   6.371  12.933  0.00  0.00    +0.000 A 
ATOM      3  C   UNL     1      46.524   6.499  11.725  0.00  0.00    +0.000 A 
ATOM      4  C   UNL     1      45.615   5.523  11.308  0.00  0.00    +0.000 A 
ATOM      5  C   UNL     1      45.395   4.375  12.078  0.00  0.00    +0.000 A 
ATOM      6  C   UNL     1      46.113   4.232  13.275  0.00  0.00    +0.000 A 
ATOM      7  C   UNL     1      47.025   5.215  13.697  0.00  0.00    +0.000 A 
BRANCH   5   8
ATOM      8  C   UNL     1      44.393   3.334  11.623  0.00  0.00    +0.000 C 
BRANCH   8   9
ATOM      9  N   UNL     1      44.132   3.434  10.186  0.00  0.00    +0.000 NA
ATOM     10  H   UNL     1      44.723   4.165   9.793  0.00  0.00    +0.000 HD
BRANCH   9  11
ATOM     11  C   UNL     1      44.409   2.176   9.494  0.00  0.00    +0.000 C 
BRANCH  11  12
ATOM     12  C   UNL     1      45.499   2.347   8.459  0.00  0.00    +0.000 A 
ATOM     13  C   UNL     1      45.754   3.596   7.874  0.00  0.00    +0.000 A 
ATOM     14  C   UNL     1      46.791   3.749   6.950  0.00  0.00    +0.000 A 
ATOM     15  C   UNL     1      47.584   2.658   6.598  0.00  0.00    +0.000 A 
ATOM     16  C   UNL     1      47.336   1.409   7.164  0.00  0.00    +0.000 A 
ATOM     17  C   UNL     1      46.302   1.256   8.089  0.00  0.00    +0.000 A 
ENDBRANCH  11  12
ENDBRANCH   9  11
ENDBRANCH   8   9
ENDBRANCH   5   8
ENDBRANCH   1   2
BRANCH   1  20
ATOM     18  O   UNL     1      50.401   7.192  15.235  0.00  0.00    +0.000 OA
ATOM     19  C   UNL     1      49.293   7.565  15.610  0.00  0.00    +0.000 C 
ATOM     20  N   UNL     1      48.219   7.677  14.771  0.00  0.00    +0.000 N 
ATOM     21  H   UNL     1      47.397   8.156  15.119  0.00  0.00    +0.000 HD
BRANCH  19  22
ATOM     22  C   UNL     1      49.014   7.846  17.027  0.00  0.00    +0.000 A 
ATOM     23  C   UNL     1      49.306   9.088  17.573  0.00  0.00    +0.000 A 
ATOM     24  S   UNL     1      48.900   9.220  19.227  0.00  0.00    +0.000 S 
ATOM     25  C   UNL     1      48.282   7.632  19.264  0.00  0.00    +0.000 A 
ATOM     26  N   UNL     1      47.722   7.120  20.389  0.00  0.00    +0.000 NA
ATOM     27  C   UNL     1      47.263   5.920  20.255  0.00  0.00    +0.000 A 
ATOM     28  N   UNL     1      47.329   5.179  19.110  0.00  0.00    +0.000 N 
ATOM     29  C   UNL     1      47.978   5.620  17.979  0.00  0.00    +0.000 A 
ATOM     30  O   UNL     1      48.197   4.865  17.039  0.00  0.00    +0.000 OA
ATOM     31  C   UNL     1      48.436   6.995  18.042  0.00  0.00    +0.000 A 
ATOM     32  H   UNL     1      47.006   4.224  19.085  0.00  0.00    +0.000 HD
ENDBRANCH  19  22
ENDBRANCH   1  20
BRANCH   1  33
ATOM     33  C   UNL     1      48.158   8.761  12.484  0.00  0.00    +0.000 C 
BRANCH  33  34
ATOM     34  O   UNL     1      49.215   8.799  11.521  0.00  0.00    +0.000 OA
ATOM     35  H   UNL     1      49.250   7.919  11.107  0.00  0.00    +0.000 HD
ENDBRANCH  33  34
ENDBRANCH   1  33
TORSDOF 9
ENDMDL
MODEL 5
REMARK VINA RESULT:    -7.440      2.395      4.253
REMARK INTER + INTRA:         -12.612
REMARK INTER:                 -11.325
REMARK INTRA:                  -1.286
REMARK UNBOUND:                -1.475
REMARK  Name = 
REMARK  9 active torsions:
REMARK  status: ('A' for Active; 'I' for Inactive)
REMARK    1  A    between atoms: C_2  and  C_22
REMARK    2  A    between atoms: N_3  and  CA_4
REMARK    3  A    between atoms: CA_4  and  C_5
REMARK    4  A    between atoms: CA_4  and  C_7
REMARK    5  A    between atoms: C_5  and  O_6
REMARK    6  A    between atoms: C_10  and  C_11
REMARK    7  A    between atoms: C_11  and  N_12
REMARK    8  A    between atoms: N_12  and  C_13
REMARK    9  A    between atoms: C_13  and  C_14
REMARK                            x       y       z     vdW  Elec       q    Type
REMARK                         _______ _______ _______ _____ _____    ______ ____
ROOT
ATOM      1  CA  UNL     1      47.154   5.327  14.835  0.00  0.00    +0.000 C 
ENDROOT
BRANCH   1   2
ATOM      2  C   UNL     1      46.242   5.230  13.619  0.00  0.00    +0.000 A 
ATOM      3  C   UNL     1      45.045   4.500  13.725  0.00  0.00    +0.000 A 
ATOM      4  C   UNL     1      44.169   4.377  12.644  0.00  0.00    +0.000 A 
ATOM      5  C   UNL     1      44.451   4.995  11.421  0.00  0.00    +0.000 A 
ATOM      6  C   UNL     1      45.635   5.741  11.312  0.00  0.00    +0.000 A 
ATOM      7  C   UNL     1      46.519   5.862  12.399  0.00  0.00    +0.000 A 
BRANCH   5   8
ATOM      8  C   UNL     1      43.502   4.838  10.250  0.00  0.00    +0.000 C 
BRANCH   8   9
ATOM      9  N   UNL     1      44.205   4.381   9.050  0.00  0.00    +0.000 NA
ATOM     10  H   UNL     1      45.057   4.929   8.937  0.00  0.00    +0.000 HD
BRANCH   9  11
ATOM     11  C   UNL     1      44.559   2.965   9.133  0.00  0.00    +0.000 C 
BRANCH  11  12
ATOM     12  C   UNL     1      45.642   2.610   8.138  0.00  0.00    +0.000 A 
ATOM     13  C   UNL     1      46.277   1.359   8.173  0.00  0.00    +0.000 A 
ATOM     14  C   UNL     1      47.247   1.028   7.223  0.00  0.00    +0.000 A 
ATOM     15  C   UNL     1      47.594   1.941   6.229  0.00  0.00    +0.000 A 
ATOM     16  C   UNL     1      46.978   3.190   6.187  0.00  0.00    +0.000 A 
ATOM     17  C   UNL     1      46.008   3.521   7.134  0.00  0.00    +0.000 A 
ENDBRANCH  11  12
ENDBRANCH   9  11
ENDBRANCH   8   9
ENDBRANCH   5   8
ENDBRANCH   1   2
BRANCH   1  20
ATOM     18  O   UNL     1      48.617   7.248  16.471  0.00  0.00    +0.000 OA
ATOM     19  C   UNL     1      49.030   6.936  15.358  0.00  0.00    +0.000 C 
ATOM     20  N   UNL     1      48.368   6.071  14.531  0.00  0.00    +0.000 N 
ATOM     21  H   UNL     1      48.860   5.733  13.712  0.00  0.00    +0.000 HD
BRANCH  19  22
ATOM     22  C   UNL     1      50.245   7.540  14.791  0.00  0.00    +0.000 A 
ATOM     23  C   UNL     1      51.469   7.404  15.430  0.00  0.00    +0.000 A 
ATOM     24  S   UNL     1      52.758   8.167  14.610  0.00  0.00    +0.000 S 
ATOM     25  C   UNL     1      51.733   8.675  13.347  0.00  0.00    +0.000 A 
ATOM     26  N   UNL     1      52.217   9.352  12.275  0.00  0.00    +0.000 NA
ATOM     27  C   UNL     1      51.329   9.636  11.381  0.00  0.00    +0.000 A 
ATOM     28  N   UNL     1      50.002   9.327  11.468  0.00  0.00    +0.000 N 
ATOM     29  C   UNL     1      49.452   8.735  12.582  0.00  0.00    +0.000 A 
ATOM     30  O   UNL     1      48.236   8.651  12.720  0.00  0.00    +0.000 OA
ATOM     31  C   UNL     1      50.415   8.312  13.581  0.00  0.00    +0.000 A 
ATOM     32  H   UNL     1      49.347   9.630  10.764  0.00  0.00    +0.000 HD
ENDBRANCH  19  22
ENDBRANCH   1  20
BRANCH   1  33
ATOM     33  C   UNL     1      47.370   4.018  15.625  0.00  0.00    +0.000 C 
BRANCH  33  34
ATOM     34  O   UNL     1      47.741   2.940  14.760  0.00  0.00    +0.000 OA
ATOM     35  H   UNL     1      47.413   2.122  15.175  0.00  0.00    +0.000 HD
ENDBRANCH  33  34
ENDBRANCH   1  33
TORSDOF 9
ENDMDL
MODEL 6
REMARK VINA RESULT:    -7.276      1.756      2.390
REMARK INTER + INTRA:         -12.366
REMARK INTER:                 -11.273
REMARK INTRA:                  -1.093
REMARK UNBOUND:                -1.475
REMARK  Name = 
REMARK  9 active torsions:
REMARK  status: ('A' for Active; 'I' for Inactive)
REMARK    1  A    between atoms: C_2  and  C_22
REMARK    2  A    between atoms: N_3  and  CA_4
REMARK    3  A    between atoms: CA_4  and  C_5
REMARK    4  A    between atoms: CA_4  and  C_7
REMARK    5  A    between atoms: C_5  and  O_6
REMARK    6  A    between atoms: C_10  and  C_11
REMARK    7  A    between atoms: C_11  and  N_12
REMARK    8  A    between atoms: N_12  and  C_13
REMARK    9  A    between atoms: C_13  and  C_14
REMARK                            x       y       z     vdW  Elec       q    Type
REMARK                         _______ _______ _______ _____ _____    ______ ____
ROOT
ATOM      1  CA  UNL     1      47.798   8.126  12.312  0.00  0.00    +0.000 C 
ENDROOT
BRANCH   1   2
ATOM      2  C   UNL     1      46.865   6.940  12.105  0.00  0.00    +0.000 A 
ATOM      3  C   UNL     1      46.262   6.763  10.847  0.00  0.00    +0.000 A 
ATOM      4  C   UNL     1      45.398   5.693  10.599  0.00  0.00    +0.000 A 
ATOM      5  C   UNL     1      45.119   4.752  11.596  0.00  0.00    +0.000 A 
ATOM      6  C   UNL     1      45.731   4.913  12.849  0.00  0.00    +0.000 A 
ATOM      7  C   UNL     1      46.597   5.991  13.101  0.00  0.00    +0.000 A 
BRANCH   5   8
ATOM      8  C   UNL     1      44.165   3.608  11.319  0.00  0.00    +0.000 C 
BRANCH   8   9
ATOM      9  N   UNL     1      44.855   2.475  10.702  0.00  0.00    +0.000 NA
ATOM     10  H   UNL     1      44.694   1.642  11.266  0.00  0.00    +0.000 HD
BRANCH   9  11
ATOM     11  C   UNL     1      44.383   2.226   9.341  0.00  0.00    +0.000 C 
BRANCH  11  12
ATOM     12  C   UNL     1      45.514   2.318   8.341  0.00  0.00    +0.000 A 
ATOM     13  C   UNL     1      45.806   3.525   7.686  0.00  0.00    +0.000 A 
ATOM     14  C   UNL     1      46.879   3.608   6.795  0.00  0.00    +0.000 A 
ATOM     15  C   UNL     1      47.672   2.489   6.547  0.00  0.00    +0.000 A 
ATOM     16  C   UNL     1      47.388   1.282   7.182  0.00  0.00    +0.000 A 
ATOM     17  C   UNL     1      46.318   1.199   8.074  0.00  0.00    +0.000 A 
ENDBRANCH  11  12
ENDBRANCH   9  11
ENDBRANCH   8   9
ENDBRANCH   5   8
ENDBRANCH   1   2
BRANCH   1  20
ATOM     18  O   UNL     1      48.064   8.532  15.187  0.00  0.00    +0.000 OA
ATOM     19  C   UNL     1      48.952   7.971  14.553  0.00  0.00    +0.000 C 
ATOM     20  N   UNL     1      48.901   7.787  13.199  0.00  0.00    +0.000 N 
ATOM     21  H   UNL     1      49.583   7.164  12.781  0.00  0.00    +0.000 HD
BRANCH  19  22
ATOM     22  C   UNL     1      50.193   7.520  15.200  0.00  0.00    +0.000 A 
ATOM     23  C   UNL     1      51.413   8.092  14.871  0.00  0.00    +0.000 A 
ATOM     24  S   UNL     1      52.733   7.439  15.737  0.00  0.00    +0.000 S 
ATOM     25  C   UNL     1      51.714   6.392  16.615  0.00  0.00    +0.000 A 
ATOM     26  N   UNL     1      52.208   5.573  17.579  0.00  0.00    +0.000 NA
ATOM     27  C   UNL     1      51.312   4.866  18.184  0.00  0.00    +0.000 A 
ATOM     28  N   UNL     1      49.976   4.886  17.904  0.00  0.00    +0.000 N 
ATOM     29  C   UNL     1      49.448   5.622  16.868  0.00  0.00    +0.000 A 
ATOM     30  O   UNL     1      48.285   5.470  16.510  0.00  0.00    +0.000 OA
ATOM     31  C   UNL     1      50.393   6.504  16.209  0.00  0.00    +0.000 A 
ATOM     32  H   UNL     1      49.334   4.265  18.372  0.00  0.00    +0.000 HD
ENDBRANCH  19  22
ENDBRANCH   1  20
BRANCH   1  33
ATOM     33  C   UNL     1      47.116   9.481  12.605  0.00  0.00    +0.000 C 
BRANCH  33  34
ATOM     34  O   UNL     1      45.872   9.303  13.289  0.00  0.00    +0.000 OA
ATOM     35  H   UNL     1      45.279   8.835  12.676  0.00  0.00    +0.000 HD
ENDBRANCH  33  34
ENDBRANCH   1  33
TORSDOF 9
ENDMDL
MODEL 7
REMARK VINA RESULT:    -7.214      2.214      3.616
REMARK INTER + INTRA:         -12.274
REMARK INTER:                 -11.008
REMARK INTRA:                  -1.266
REMARK UNBOUND:                -1.475
REMARK  Name = 
REMARK  9 active torsions:
REMARK  status: ('A' for Active; 'I' for Inactive)
REMARK    1  A    between atoms: C_2  and  C_22
REMARK    2  A    between atoms: N_3  and  CA_4
REMARK    3  A    between atoms: CA_4  and  C_5
REMARK    4  A    between atoms: CA_4  and  C_7
REMARK    5  A    between atoms: C_5  and  O_6
REMARK    6  A    between atoms: C_10  and  C_11
REMARK    7  A    between atoms: C_11  and  N_12
REMARK    8  A    between atoms: N_12  and  C_13
REMARK    9  A    between atoms: C_13  and  C_14
REMARK                            x       y       z     vdW  Elec       q    Type
REMARK                         _______ _______ _______ _____ _____    ______ ____
ROOT
ATOM      1  CA  UNL     1      47.171   4.379  15.498  0.00  0.00    +0.000 C 
ENDROOT
BRANCH   1   2
ATOM      2  C   UNL     1      46.667   4.843  14.138  0.00  0.00    +0.000 A 
ATOM      3  C   UNL     1      45.551   4.201  13.572  0.00  0.00    +0.000 A 
ATOM      4  C   UNL     1      45.044   4.584  12.327  0.00  0.00    +0.000 A 
ATOM      5  C   UNL     1      45.627   5.635  11.611  0.00  0.00    +0.000 A 
ATOM      6  C   UNL     1      46.730   6.293  12.177  0.00  0.00    +0.000 A 
ATOM      7  C   UNL     1      47.242   5.905  13.428  0.00  0.00    +0.000 A 
BRANCH   5   8
ATOM      8  C   UNL     1      45.079   6.027  10.254  0.00  0.00    +0.000 C 
BRANCH   8   9
ATOM      9  N   UNL     1      45.748   5.296   9.176  0.00  0.00    +0.000 NA
ATOM     10  H   UNL     1      46.652   4.966   9.511  0.00  0.00    +0.000 HD
BRANCH   9  11
ATOM     11  C   UNL     1      44.961   4.148   8.727  0.00  0.00    +0.000 C 
BRANCH  11  12
ATOM     12  C   UNL     1      45.825   3.138   8.004  0.00  0.00    +0.000 A 
ATOM     13  C   UNL     1      45.918   1.812   8.453  0.00  0.00    +0.000 A 
ATOM     14  C   UNL     1      46.687   0.878   7.753  0.00  0.00    +0.000 A 
ATOM     15  C   UNL     1      47.372   1.257   6.600  0.00  0.00    +0.000 A 
ATOM     16  C   UNL     1      47.296   2.573   6.149  0.00  0.00    +0.000 A 
ATOM     17  C   UNL     1      46.526   3.506   6.845  0.00  0.00    +0.000 A 
ENDBRANCH  11  12
ENDBRANCH   9  11
ENDBRANCH   8   9
ENDBRANCH   5   8
ENDBRANCH   1   2
BRANCH   1  20
ATOM     18  O   UNL     1      47.381   4.949  18.350  0.00  0.00    +0.000 OA
ATOM     19  C   UNL     1      47.993   5.629  17.533  0.00  0.00    +0.000 C 
ATOM     20  N   UNL     1      47.903   5.434  16.182  0.00  0.00    +0.000 N 
ATOM     21  H   UNL     1      48.570   5.918  15.590  0.00  0.00    +0.000 HD
BRANCH  19  22
ATOM     22  C   UNL     1      48.818   6.774  17.947  0.00  0.00    +0.000 A 
ATOM     23  C   UNL     1      48.232   7.917  18.474  0.00  0.00    +0.000 A 
ATOM     24  S   UNL     1      49.357   9.128  18.902  0.00  0.00    +0.000 S 
ATOM     25  C   UNL     1      50.675   8.153  18.437  0.00  0.00    +0.000 A 
ATOM     26  N   UNL     1      51.955   8.577  18.590  0.00  0.00    +0.000 NA
ATOM     27  C   UNL     1      52.847   7.715  18.229  0.00  0.00    +0.000 A 
ATOM     28  N   UNL     1      52.579   6.480  17.711  0.00  0.00    +0.000 N 
ATOM     29  C   UNL     1      51.300   6.052  17.443  0.00  0.00    +0.000 A 
ATOM     30  O   UNL     1      51.096   5.030  16.798  0.00  0.00    +0.000 OA
ATOM     31  C   UNL     1      50.253   6.941  17.910  0.00  0.00    +0.000 A 
ATOM     32  H   UNL     1      53.321   5.876  17.392  0.00  0.00    +0.000 HD
ENDBRANCH  19  22
ENDBRANCH   1  20
BRANCH   1  33
ATOM     33  C   UNL     1      47.842   2.988  15.533  0.00  0.00    +0.000 C 
BRANCH  33  34
ATOM     34  O   UNL     1      49.024   2.997  16.339  0.00  0.00    +0.000 OA
ATOM     35  H   UNL     1      49.510   3.810  16.115  0.00  0.00    +0.000 HD
ENDBRANCH  33  34
ENDBRANCH   1  33
TORSDOF 9
ENDMDL
MODEL 8
REMARK VINA RESULT:    -7.101      2.821      4.303
REMARK INTER + INTRA:         -12.104
REMARK INTER:                 -10.536
REMARK INTRA:                  -1.568
REMARK UNBOUND:                -1.475
REMARK  Name = 
REMARK  9 active torsions:
REMARK  status: ('A' for Active; 'I' for Inactive)
REMARK    1  A    between atoms: C_2  and  C_22
REMARK    2  A    between atoms: N_3  and  CA_4
REMARK    3  A    between atoms: CA_4  and  C_5
REMARK    4  A    between atoms: CA_4  and  C_7
REMARK    5  A    between atoms: C_5  and  O_6
REMARK    6  A    between atoms: C_10  and  C_11
REMARK    7  A    between atoms: C_11  and  N_12
REMARK    8  A    between atoms: N_12  and  C_13
REMARK    9  A    between atoms: C_13  and  C_14
REMARK                            x       y       z     vdW  Elec       q    Type
REMARK                         _______ _______ _______ _____ _____    ______ ____
ROOT
ATOM      1  CA  UNL     1      47.225   5.598  14.685  0.00  0.00    +0.000 C 
ENDROOT
BRANCH   1   2
ATOM      2  C   UNL     1      46.221   5.105  13.652  0.00  0.00    +0.000 A 
ATOM      3  C   UNL     1      46.248   3.752  13.271  0.00  0.00    +0.000 A 
ATOM      4  C   UNL     1      45.351   3.243  12.328  0.00  0.00    +0.000 A 
ATOM      5  C   UNL     1      44.383   4.067  11.744  0.00  0.00    +0.000 A 
ATOM      6  C   UNL     1      44.338   5.415  12.132  0.00  0.00    +0.000 A 
ATOM      7  C   UNL     1      45.243   5.928  13.078  0.00  0.00    +0.000 A 
BRANCH   5   8
ATOM      8  C   UNL     1      43.429   3.507  10.709  0.00  0.00    +0.000 C 
BRANCH   8   9
ATOM      9  N   UNL     1      44.144   2.758   9.674  0.00  0.00    +0.000 NA
ATOM     10  H   UNL     1      43.498   2.104   9.233  0.00  0.00    +0.000 HD
BRANCH   9  11
ATOM     11  C   UNL     1      44.701   3.640   8.650  0.00  0.00    +0.000 C 
BRANCH  11  12
ATOM     12  C   UNL     1      45.773   2.939   7.845  0.00  0.00    +0.000 A 
ATOM     13  C   UNL     1      46.219   1.655   8.194  0.00  0.00    +0.000 A 
ATOM     14  C   UNL     1      47.180   1.002   7.418  0.00  0.00    +0.000 A 
ATOM     15  C   UNL     1      47.707   1.622   6.286  0.00  0.00    +0.000 A 
ATOM     16  C   UNL     1      47.279   2.900   5.933  0.00  0.00    +0.000 A 
ATOM     17  C   UNL     1      46.318   3.553   6.705  0.00  0.00    +0.000 A 
ENDBRANCH  11  12
ENDBRANCH   9  11
ENDBRANCH   8   9
ENDBRANCH   5   8
ENDBRANCH   1   2
BRANCH   1  20
ATOM     18  O   UNL     1      47.465   8.437  14.065  0.00  0.00    +0.000 OA
ATOM     19  C   UNL     1      48.389   7.667  13.825  0.00  0.00    +0.000 C 
ATOM     20  N   UNL     1      48.321   6.321  14.058  0.00  0.00    +0.000 N 
ATOM     21  H   UNL     1      49.182   5.788  13.999  0.00  0.00    +0.000 HD
BRANCH  19  22
ATOM     22  C   UNL     1      49.630   8.130  13.184  0.00  0.00    +0.000 A 
ATOM     23  C   UNL     1      49.613   8.648  11.897  0.00  0.00    +0.000 A 
ATOM     24  S   UNL     1      51.149   9.139  11.335  0.00  0.00    +0.000 S 
ATOM     25  C   UNL     1      51.890   8.713  12.810  0.00  0.00    +0.000 A 
ATOM     26  N   UNL     1      53.215   8.923  13.020  0.00  0.00    +0.000 NA
ATOM     27  C   UNL     1      53.625   8.586  14.198  0.00  0.00    +0.000 A 
ATOM     28  N   UNL     1      52.843   8.041  15.175  0.00  0.00    +0.000 N 
ATOM     29  C   UNL     1      51.522   7.716  14.969  0.00  0.00    +0.000 A 
ATOM     30  O   UNL     1      50.898   7.049  15.787  0.00  0.00    +0.000 OA
ATOM     31  C   UNL     1      50.982   8.152  13.695  0.00  0.00    +0.000 A 
ATOM     32  H   UNL     1      53.236   7.743  16.054  0.00  0.00    +0.000 HD
ENDBRANCH  19  22
ENDBRANCH   1  20
BRANCH   1  33
ATOM     33  C   UNL     1      47.649   4.572  15.760  0.00  0.00    +0.000 C 
BRANCH  33  34
ATOM     34  O   UNL     1      48.909   4.915  16.343  0.00  0.00    +0.000 OA
ATOM     35  H   UNL     1      49.349   4.077  16.572  0.00  0.00    +0.000 HD
ENDBRANCH  33  34
ENDBRANCH   1  33
TORSDOF 9
ENDMDL
MODEL 9
REMARK VINA RESULT:    -7.094      3.947      5.173
REMARK INTER + INTRA:         -12.093
REMARK INTER:                 -10.688
REMARK INTRA:                  -1.405
REMARK UNBOUND:                -1.475
REMARK  Name = 
REMARK  9 active torsions:
REMARK  status: ('A' for Active; 'I' for Inactive)
REMARK    1  A    between atoms: C_2  and  C_22
REMARK    2  A    between atoms: N_3  and  CA_4
REMARK    3  A    between atoms: CA_4  and  C_5
REMARK    4  A    between atoms: CA_4  and  C_7
REMARK    5  A    between atoms: C_5  and  O_6
REMARK    6  A    between atoms: C_10  and  C_11
REMARK    7  A    between atoms: C_11  and  N_12
REMARK    8  A    between atoms: N_12  and  C_13
REMARK    9  A    between atoms: C_13  and  C_14
REMARK                            x       y       z     vdW  Elec       q    Type
REMARK                         _______ _______ _______ _____ _____    ______ ____
ROOT
ATOM      1  CA  UNL     1      48.275   7.785  13.126  0.00  0.00    +0.000 C 
ENDROOT
BRANCH   1   2
ATOM      2  C   UNL     1      47.301   6.695  12.695  0.00  0.00    +0.000 A 
ATOM      3  C   UNL     1      47.111   5.585  13.537  0.00  0.00    +0.000 A 
ATOM      4  C   UNL     1      46.231   4.555  13.195  0.00  0.00    +0.000 A 
ATOM      5  C   UNL     1      45.496   4.608  12.005  0.00  0.00    +0.000 A 
ATOM      6  C   UNL     1      45.667   5.722  11.169  0.00  0.00    +0.000 A 
ATOM      7  C   UNL     1      46.556   6.756  11.511  0.00  0.00    +0.000 A 
BRANCH   5   8
ATOM      8  C   UNL     1      44.559   3.475  11.638  0.00  0.00    +0.000 C 
BRANCH   8   9
ATOM      9  N   UNL     1      44.224   3.500  10.213  0.00  0.00    +0.000 NA
ATOM     10  H   UNL     1      44.785   4.217   9.753  0.00  0.00    +0.000 HD
BRANCH   9  11
ATOM     11  C   UNL     1      44.479   2.212   9.570  0.00  0.00    +0.000 C 
BRANCH  11  12
ATOM     12  C   UNL     1      45.554   2.329   8.512  0.00  0.00    +0.000 A 
ATOM     13  C   UNL     1      46.311   1.214   8.121  0.00  0.00    +0.000 A 
ATOM     14  C   UNL     1      47.272   1.327   7.113  0.00  0.00    +0.000 A 
ATOM     15  C   UNL     1      47.490   2.553   6.486  0.00  0.00    +0.000 A 
ATOM     16  C   UNL     1      46.753   3.670   6.871  0.00  0.00    +0.000 A 
ATOM     17  C   UNL     1      45.791   3.558   7.876  0.00  0.00    +0.000 A 
ENDBRANCH  11  12
ENDBRANCH   9  11
ENDBRANCH   8   9
ENDBRANCH   5   8
ENDBRANCH   1   2
BRANCH   1  20
ATOM     18  O   UNL     1      49.637   9.367  11.089  0.00  0.00    +0.000 OA
ATOM     19  C   UNL     1      50.189   8.395  11.594  0.00  0.00    +0.000 C 
ATOM     20  N   UNL     1      49.586   7.593  12.525  0.00  0.00    +0.000 N 
ATOM     21  H   UNL     1      50.167   6.924  13.018  0.00  0.00    +0.000 HD
BRANCH  19  22
ATOM     22  C   UNL     1      51.530   7.965  11.171  0.00  0.00    +0.000 A 
ATOM     23  C   UNL     1      51.726   7.363   9.936  0.00  0.00    +0.000 A 
ATOM     24  S   UNL     1      53.353   6.946   9.627  0.00  0.00    +0.000 S 
ATOM     25  C   UNL     1      53.864   7.593  11.119  0.00  0.00    +0.000 A 
ATOM     26  N   UNL     1      55.175   7.603  11.470  0.00  0.00    +0.000 NA
ATOM     27  C   UNL     1      55.415   8.160  12.611  0.00  0.00    +0.000 A 
ATOM     28  N   UNL     1      54.467   8.686  13.441  0.00  0.00    +0.000 N 
ATOM     29  C   UNL     1      53.120   8.603  13.172  0.00  0.00    +0.000 A 
ATOM     30  O   UNL     1      52.285   8.900  14.019  0.00  0.00    +0.000 OA
ATOM     31  C   UNL     1      52.795   8.068  11.863  0.00  0.00    +0.000 A 
ATOM     32  H   UNL     1      54.711   9.053  14.348  0.00  0.00    +0.000 HD
ENDBRANCH  19  22
ENDBRANCH   1  20
BRANCH   1  33
ATOM     33  C   UNL     1      48.289   8.123  14.632  0.00  0.00    +0.000 C 
BRANCH  33  34
ATOM     34  O   UNL     1      47.168   8.934  14.998  0.00  0.00    +0.000 OA
ATOM     35  H   UNL     1      46.402   8.338  15.068  0.00  0.00    +0.000 HD
ENDBRANCH  33  34
ENDBRANCH   1  33
TORSDOF 9
ENDMDL
