MODEL 1
REMARK VINA RESULT:    -7.657      0.000      0.000
REMARK INTER + INTRA:          -9.546
REMARK INTER:                  -9.224
REMARK INTRA:                  -0.322
REMARK UNBOUND:                -0.322
REMARK  Name = 
REMARK  4 active torsions:
REMARK  status: ('A' for Active; 'I' for Inactive)
REMARK    1  A    between atoms: N_1  and  C_2
REMARK    2  A    between atoms: C_2  and  C_3
REMARK    3  A    between atoms: C_6  and  C_7
REMARK    4  A    between atoms: C_7  and  N_8
REMARK                            x       y       z     vdW  Elec       q    Type
REMARK                         _______ _______ _______ _____ _____    ______ ____
ROOT
ATOM      1  C   UNL     1      44.593   3.103  10.854  0.00  0.00    +0.000 C 
ENDROOT
BRANCH   1   2
ATOM      2  N   UNL     1      44.210   4.456  11.256  0.00  0.00    +0.000 N 
ATOM      3  C   UNL     1      43.043   5.067  10.840  0.00  0.00    +0.000 A 
ATOM      4  C   UNL     1      43.034   6.342  11.353  0.00  0.00    +0.000 A 
ATOM      5  C   UNL     1      44.393   6.652  11.598  0.00  0.00    +0.000 A 
ATOM      6  C   UNL     1      45.116   7.856  11.683  0.00  0.00    +0.000 A 
ATOM      7  C   UNL     1      46.476   7.810  11.997  0.00  0.00    +0.000 A 
ATOM      8  C   UNL     1      47.070   6.598  12.338  0.00  0.00    +0.000 A 
ATOM      9 CL   UNL     1      48.708   6.589  12.874  0.00  0.00    +0.000 Cl
ATOM     10  C   UNL     1      46.383   5.385  12.225  0.00  0.00    +0.000 A 
ATOM     11  C   UNL     1      45.066   5.434  11.742  0.00  0.00    +0.000 A 
ENDBRANCH   1   2
BRANCH   1  15
ATOM     12  C   UNL     1      46.603   2.852   7.015  0.00  0.00    +0.000 A 
ATOM     13  C   UNL     1      46.236   4.097   7.546  0.00  0.00    +0.000 A 
ATOM     14  C   UNL     1      45.552   4.178   8.765  0.00  0.00    +0.000 A 
ATOM     15  C   UNL     1      45.229   3.022   9.484  0.00  0.00    +0.000 A 
ATOM     16  C   UNL     1      45.584   1.777   8.941  0.00  0.00    +0.000 A 
ATOM     17  C   UNL     1      46.275   1.689   7.712  0.00  0.00    +0.000 A 
BRANCH  12  18
ATOM     18  C   UNL     1      47.323   2.764   5.691  0.00  0.00    +0.000 C 
BRANCH  18  19
ATOM     19  N   UNL     1      48.461   1.838   5.723  0.00  0.00    +0.000 NA
ATOM     20  H   UNL     1      49.209   2.207   5.134  0.00  0.00    +0.000 HD
ATOM     21  H   UNL     1      48.180   0.946   5.320  0.00  0.00    +0.000 HD
ENDBRANCH  18  19
ENDBRANCH  12  18
ENDBRANCH   1  15
TORSDOF 4
ENDMDL
MODEL 2
REMARK VINA RESULT:    -7.504      1.391      2.081
REMARK INTER + INTRA:          -9.362
REMARK INTER:                  -8.963
REMARK INTRA:                  -0.399
REMARK UNBOUND:                -0.322
REMARK  Name = 
REMARK  4 active torsions:
REMARK  status: ('A' for Active; 'I' for Inactive)
REMARK    1  A    between atoms: N_1  and  C_2
REMARK    2  A    between atoms: C_2  and  C_3
REMARK    3  A    between atoms: C_6  and  C_7
REMARK    4  A    between atoms: C_7  and  N_8
REMARK                            x       y       z     vdW  Elec       q    Type
REMARK                         _______ _______ _______ _____ _____    ______ ____
ROOT
ATOM      1  C   UNL     1      43.826   4.153  10.592  0.00  0.00    +0.000 C 
ENDROOT
BRANCH   1   2
ATOM      2  N   UNL     1      44.334   5.330  11.296  0.00  0.00    +0.000 N 
ATOM      3  C   UNL     1      44.302   6.603  10.760  0.00  0.00    +0.000 A 
ATOM      4  C   UNL     1      44.910   7.448  11.658  0.00  0.00    +0.000 A 
ATOM      5  C   UNL     1      45.755   6.619  12.433  0.00  0.00    +0.000 A 
ATOM      6  C   UNL     1      46.928   6.848  13.174  0.00  0.00    +0.000 A 
ATOM      7  C   UNL     1      47.500   5.789  13.885  0.00  0.00    +0.000 A 
ATOM      8  C   UNL     1      46.845   4.562  13.951  0.00  0.00    +0.000 A 
ATOM      9 CL   UNL     1      47.487   3.322  14.960  0.00  0.00    +0.000 Cl
ATOM     10  C   UNL     1      45.698   4.300  13.193  0.00  0.00    +0.000 A 
ATOM     11  C   UNL     1      45.234   5.323  12.352  0.00  0.00    +0.000 A 
ENDBRANCH   1   2
BRANCH   1  15
ATOM     12  C   UNL     1      46.435   2.500   7.542  0.00  0.00    +0.000 A 
ATOM     13  C   UNL     1      45.828   1.663   8.488  0.00  0.00    +0.000 A 
ATOM     14  C   UNL     1      45.017   2.198   9.497  0.00  0.00    +0.000 A 
ATOM     15  C   UNL     1      44.789   3.576   9.577  0.00  0.00    +0.000 A 
ATOM     16  C   UNL     1      45.412   4.412   8.639  0.00  0.00    +0.000 A 
ATOM     17  C   UNL     1      46.230   3.877   7.618  0.00  0.00    +0.000 A 
BRANCH  12  18
ATOM     18  C   UNL     1      47.325   1.925   6.467  0.00  0.00    +0.000 C 
BRANCH  18  19
ATOM     19  N   UNL     1      48.630   2.592   6.392  0.00  0.00    +0.000 NA
ATOM     20  H   UNL     1      48.701   3.276   7.146  0.00  0.00    +0.000 HD
ATOM     21  H   UNL     1      48.692   3.110   5.517  0.00  0.00    +0.000 HD
ENDBRANCH  18  19
ENDBRANCH  12  18
ENDBRANCH   1  15
TORSDOF 4
ENDMDL
MODEL 3
REMARK VINA RESULT:    -7.222      1.872      2.554
REMARK INTER + INTRA:          -9.022
REMARK INTER:                  -8.489
REMARK INTRA:                  -0.534
REMARK UNBOUND:                -0.322
REMARK  Name = 
REMARK  4 active torsions:
REMARK  status: ('A' for Active; 'I' for Inactive)
REMARK    1  A    between atoms: N_1  and  C_2
REMARK    2  A    between atoms: C_2  and  C_3
REMARK    3  A    between atoms: C_6  and  C_7
REMARK    4  A    between atoms: C_7  and  N_8
REMARK                            x       y       z     vdW  Elec       q    Type
REMARK                         _______ _______ _______ _____ _____    ______ ____
ROOT
ATOM      1  C   UNL     1      44.418   4.558  10.788  0.00  0.00    +0.000 C 
ENDROOT
BRANCH   1   2
ATOM      2  N   UNL     1      45.353   5.414  11.519  0.00  0.00    +0.000 N 
ATOM      3  C   UNL     1      46.144   4.957  12.555  0.00  0.00    +0.000 A 
ATOM      4  C   UNL     1      46.847   6.030  13.047  0.00  0.00    +0.000 A 
ATOM      5  C   UNL     1      46.089   7.168  12.683  0.00  0.00    +0.000 A 
ATOM      6  C   UNL     1      45.972   8.468  13.207  0.00  0.00    +0.000 A 
ATOM      7  C   UNL     1      45.147   9.390  12.558  0.00  0.00    +0.000 A 
ATOM      8  C   UNL     1      44.550   9.056  11.346  0.00  0.00    +0.000 A 
ATOM      9 CL   UNL     1      43.665  10.260  10.486  0.00  0.00    +0.000 Cl
ATOM     10  C   UNL     1      44.620   7.760  10.824  0.00  0.00    +0.000 A 
ATOM     11  C   UNL     1      45.313   6.799  11.578  0.00  0.00    +0.000 A 
ENDBRANCH   1   2
BRANCH   1  15
ATOM     12  C   UNL     1      46.373   2.368   7.590  0.00  0.00    +0.000 A 
ATOM     13  C   UNL     1      46.407   3.770   7.617  0.00  0.00    +0.000 A 
ATOM     14  C   UNL     1      45.744   4.479   8.626  0.00  0.00    +0.000 A 
ATOM     15  C   UNL     1      45.042   3.807   9.633  0.00  0.00    +0.000 A 
ATOM     16  C   UNL     1      44.996   2.405   9.592  0.00  0.00    +0.000 A 
ATOM     17  C   UNL     1      45.664   1.684   8.578  0.00  0.00    +0.000 A 
BRANCH  12  18
ATOM     18  C   UNL     1      47.070   1.604   6.492  0.00  0.00    +0.000 C 
BRANCH  18  19
ATOM     19  N   UNL     1      48.507   1.896   6.420  0.00  0.00    +0.000 NA
ATOM     20  H   UNL     1      48.786   1.967   5.440  0.00  0.00    +0.000 HD
ATOM     21  H   UNL     1      49.028   1.117   6.819  0.00  0.00    +0.000 HD
ENDBRANCH  18  19
ENDBRANCH  12  18
ENDBRANCH   1  15
TORSDOF 4
ENDMDL
MODEL 4
REMARK VINA RESULT:    -6.964      1.440      2.092
REMARK INTER + INTRA:          -8.711
REMARK INTER:                  -8.138
REMARK INTRA:                  -0.572
REMARK UNBOUND:                -0.322
REMARK  Name = 
REMARK  4 active torsions:
REMARK  status: ('A' for Active; 'I' for Inactive)
REMARK    1  A    between atoms: N_1  and  C_2
REMARK    2  A    between atoms: C_2  and  C_3
REMARK    3  A    between atoms: C_6  and  C_7
REMARK    4  A    between atoms: C_7  and  N_8
REMARK                            x       y       z     vdW  Elec       q    Type
REMARK                         _______ _______ _______ _____ _____    ______ ____
ROOT
ATOM      1  C   UNL     1      44.720   4.983  10.534  0.00  0.00    +0.000 C 
ENDROOT
BRANCH   1   2
ATOM      2  N   UNL     1      45.489   4.924  11.777  0.00  0.00    +0.000 N 
ATOM      3  C   UNL     1      45.054   4.253  12.904  0.00  0.00    +0.000 A 
ATOM      4  C   UNL     1      45.986   4.453  13.894  0.00  0.00    +0.000 A 
ATOM      5  C   UNL     1      46.658   5.645  13.534  0.00  0.00    +0.000 A 
ATOM      6  C   UNL     1      47.363   6.622  14.260  0.00  0.00    +0.000 A 
ATOM      7  C   UNL     1      47.965   7.677  13.571  0.00  0.00    +0.000 A 
ATOM      8  C   UNL     1      47.966   7.688  12.179  0.00  0.00    +0.000 A 
ATOM      9 CL   UNL     1      48.849   8.914  11.350  0.00  0.00    +0.000 Cl
ATOM     10  C   UNL     1      47.241   6.750  11.436  0.00  0.00    +0.000 A 
ATOM     11  C   UNL     1      46.501   5.796  12.151  0.00  0.00    +0.000 A 
ENDBRANCH   1   2
BRANCH   1  15
ATOM     12  C   UNL     1      46.534   2.553   7.429  0.00  0.00    +0.000 A 
ATOM     13  C   UNL     1      46.648   3.950   7.396  0.00  0.00    +0.000 A 
ATOM     14  C   UNL     1      46.030   4.738   8.376  0.00  0.00    +0.000 A 
ATOM     15  C   UNL     1      45.295   4.150   9.411  0.00  0.00    +0.000 A 
ATOM     16  C   UNL     1      45.170   2.753   9.430  0.00  0.00    +0.000 A 
ATOM     17  C   UNL     1      45.791   1.952   8.446  0.00  0.00    +0.000 A 
BRANCH  12  18
ATOM     18  C   UNL     1      47.183   1.705   6.363  0.00  0.00    +0.000 C 
BRANCH  18  19
ATOM     19  N   UNL     1      48.359   2.345   5.764  0.00  0.00    +0.000 NA
ATOM     20  H   UNL     1      49.118   2.360   6.448  0.00  0.00    +0.000 HD
ATOM     21  H   UNL     1      48.139   3.315   5.547  0.00  0.00    +0.000 HD
ENDBRANCH  18  19
ENDBRANCH  12  18
ENDBRANCH   1  15
TORSDOF 4
ENDMDL
MODEL 5
REMARK VINA RESULT:    -6.577      2.679      6.010
REMARK INTER + INTRA:          -8.245
REMARK INTER:                  -7.817
REMARK INTRA:                  -0.428
REMARK UNBOUND:                -0.322
REMARK  Name = 
REMARK  4 active torsions:
REMARK  status: ('A' for Active; 'I' for Inactive)
REMARK    1  A    between atoms: N_1  and  C_2
REMARK    2  A    between atoms: C_2  and  C_3
REMARK    3  A    between atoms: C_6  and  C_7
REMARK    4  A    between atoms: C_7  and  N_8
REMARK                            x       y       z     vdW  Elec       q    Type
REMARK                         _______ _______ _______ _____ _____    ______ ____
ROOT
ATOM      1  C   UNL     1      44.067   6.427  10.977  0.00  0.00    +0.000 C 
ENDROOT
BRANCH   1   2
ATOM      2  N   UNL     1      43.811   4.995  10.820  0.00  0.00    +0.000 N 
ATOM      3  C   UNL     1      43.359   4.192  11.849  0.00  0.00    +0.000 A 
ATOM      4  C   UNL     1      43.286   2.905  11.371  0.00  0.00    +0.000 A 
ATOM      5  C   UNL     1      44.183   2.865  10.278  0.00  0.00    +0.000 A 
ATOM      6  C   UNL     1      44.908   1.835   9.652  0.00  0.00    +0.000 A 
ATOM      7  C   UNL     1      45.687   2.136   8.532  0.00  0.00    +0.000 A 
ATOM      8  C   UNL     1      45.644   3.413   7.979  0.00  0.00    +0.000 A 
ATOM      9 CL   UNL     1      46.488   3.718   6.508  0.00  0.00    +0.000 Cl
ATOM     10  C   UNL     1      44.961   4.462   8.603  0.00  0.00    +0.000 A 
ATOM     11  C   UNL     1      44.324   4.180   9.822  0.00  0.00    +0.000 A 
ENDBRANCH   1   2
BRANCH   1  15
ATOM     12  C   UNL     1      47.523   7.468  13.388  0.00  0.00    +0.000 A 
ATOM     13  C   UNL     1      47.469   6.238  12.717  0.00  0.00    +0.000 A 
ATOM     14  C   UNL     1      46.338   5.884  11.970  0.00  0.00    +0.000 A 
ATOM     15  C   UNL     1      45.244   6.750  11.870  0.00  0.00    +0.000 A 
ATOM     16  C   UNL     1      45.296   7.972  12.558  0.00  0.00    +0.000 A 
ATOM     17  C   UNL     1      46.434   8.336  13.312  0.00  0.00    +0.000 A 
BRANCH  12  18
ATOM     18  C   UNL     1      48.733   7.842  14.209  0.00  0.00    +0.000 C 
BRANCH  18  19
ATOM     19  N   UNL     1      49.894   6.987  13.933  0.00  0.00    +0.000 NA
ATOM     20  H   UNL     1      49.819   6.132  14.486  0.00  0.00    +0.000 HD
ATOM     21  H   UNL     1      50.740   7.463  14.238  0.00  0.00    +0.000 HD
ENDBRANCH  18  19
ENDBRANCH  12  18
ENDBRANCH   1  15
TORSDOF 4
ENDMDL
MODEL 6
REMARK VINA RESULT:    -6.102      3.538      6.518
REMARK INTER + INTRA:          -7.672
REMARK INTER:                  -7.169
REMARK INTRA:                  -0.504
REMARK UNBOUND:                -0.322
REMARK  Name = 
REMARK  4 active torsions:
REMARK  status: ('A' for Active; 'I' for Inactive)
REMARK    1  A    between atoms: N_1  and  C_2
REMARK    2  A    between atoms: C_2  and  C_3
REMARK    3  A    between atoms: C_6  and  C_7
REMARK    4  A    between atoms: C_7  and  N_8
REMARK                            x       y       z     vdW  Elec       q    Type
REMARK                         _______ _______ _______ _____ _____    ______ ____
ROOT
ATOM      1  C   UNL     1      47.880   6.677  12.430  0.00  0.00    +0.000 C 
ENDROOT
BRANCH   1   2
ATOM      2  N   UNL     1      46.563   7.144  11.997  0.00  0.00    +0.000 N 
ATOM      3  C   UNL     1      45.962   8.281  12.500  0.00  0.00    +0.000 A 
ATOM      4  C   UNL     1      44.719   8.386  11.922  0.00  0.00    +0.000 A 
ATOM      5  C   UNL     1      44.386   7.071  11.521  0.00  0.00    +0.000 A 
ATOM      6  C   UNL     1      43.169   6.401  11.295  0.00  0.00    +0.000 A 
ATOM      7  C   UNL     1      43.195   5.079  10.844  0.00  0.00    +0.000 A 
ATOM      8  C   UNL     1      44.408   4.483  10.509  0.00  0.00    +0.000 A 
ATOM      9 CL   UNL     1      44.402   2.909   9.806  0.00  0.00    +0.000 Cl
ATOM     10  C   UNL     1      45.631   5.114  10.759  0.00  0.00    +0.000 A 
ATOM     11  C   UNL     1      45.591   6.376  11.372  0.00  0.00    +0.000 A 
ENDBRANCH   1   2
BRANCH   1  15
ATOM     12  C   UNL     1      47.693   4.758  16.319  0.00  0.00    +0.000 A 
ATOM     13  C   UNL     1      48.443   5.929  16.139  0.00  0.00    +0.000 A 
ATOM     14  C   UNL     1      48.536   6.528  14.877  0.00  0.00    +0.000 A 
ATOM     15  C   UNL     1      47.878   5.978  13.771  0.00  0.00    +0.000 A 
ATOM     16  C   UNL     1      47.143   4.796  13.953  0.00  0.00    +0.000 A 
ATOM     17  C   UNL     1      47.044   4.189  15.224  0.00  0.00    +0.000 A 
BRANCH  12  18
ATOM     18  C   UNL     1      47.608   4.102  17.676  0.00  0.00    +0.000 C 
BRANCH  18  19
ATOM     19  N   UNL     1      46.687   2.960  17.698  0.00  0.00    +0.000 NA
ATOM     20  H   UNL     1      45.793   3.243  17.296  0.00  0.00    +0.000 HD
ATOM     21  H   UNL     1      46.506   2.694  18.664  0.00  0.00    +0.000 HD
ENDBRANCH  18  19
ENDBRANCH  12  18
ENDBRANCH   1  15
TORSDOF 4
ENDMDL
MODEL 7
REMARK VINA RESULT:    -6.054      5.263      7.646
REMARK INTER + INTRA:          -7.615
REMARK INTER:                  -7.164
REMARK INTRA:                  -0.451
REMARK UNBOUND:                -0.322
REMARK  Name = 
REMARK  4 active torsions:
REMARK  status: ('A' for Active; 'I' for Inactive)
REMARK    1  A    between atoms: N_1  and  C_2
REMARK    2  A    between atoms: C_2  and  C_3
REMARK    3  A    between atoms: C_6  and  C_7
REMARK    4  A    between atoms: C_7  and  N_8
REMARK                            x       y       z     vdW  Elec       q    Type
REMARK                         _______ _______ _______ _____ _____    ______ ____
ROOT
ATOM      1  C   UNL     1      47.201   4.613  16.031  0.00  0.00    +0.000 C 
ENDROOT
BRANCH   1   2
ATOM      2  N   UNL     1      47.396   5.178  14.696  0.00  0.00    +0.000 N 
ATOM      3  C   UNL     1      48.107   6.339  14.463  0.00  0.00    +0.000 A 
ATOM      4  C   UNL     1      48.039   6.606  13.116  0.00  0.00    +0.000 A 
ATOM      5  C   UNL     1      46.876   5.938  12.665  0.00  0.00    +0.000 A 
ATOM      6  C   UNL     1      46.001   6.133  11.581  0.00  0.00    +0.000 A 
ATOM      7  C   UNL     1      44.947   5.235  11.390  0.00  0.00    +0.000 A 
ATOM      8  C   UNL     1      44.845   4.102  12.191  0.00  0.00    +0.000 A 
ATOM      9 CL   UNL     1      43.632   2.930  11.837  0.00  0.00    +0.000 Cl
ATOM     10  C   UNL     1      45.679   3.906  13.297  0.00  0.00    +0.000 A 
ATOM     11  C   UNL     1      46.624   4.906  13.576  0.00  0.00    +0.000 A 
ENDBRANCH   1   2
BRANCH   1  15
ATOM     12  C   UNL     1      50.711   2.434  17.361  0.00  0.00    +0.000 A 
ATOM     13  C   UNL     1      49.705   1.785  16.632  0.00  0.00    +0.000 A 
ATOM     14  C   UNL     1      48.554   2.476  16.236  0.00  0.00    +0.000 A 
ATOM     15  C   UNL     1      48.386   3.829  16.550  0.00  0.00    +0.000 A 
ATOM     16  C   UNL     1      49.388   4.471  17.294  0.00  0.00    +0.000 A 
ATOM     17  C   UNL     1      50.552   3.779  17.696  0.00  0.00    +0.000 A 
BRANCH  12  18
ATOM     18  C   UNL     1      51.943   1.684  17.805  0.00  0.00    +0.000 C 
BRANCH  18  19
ATOM     19  N   UNL     1      51.673   0.274  18.109  0.00  0.00    +0.000 NA
ATOM     20  H   UNL     1      52.487  -0.286  17.852  0.00  0.00    +0.000 HD
ATOM     21  H   UNL     1      50.898  -0.050  17.533  0.00  0.00    +0.000 HD
ENDBRANCH  18  19
ENDBRANCH  12  18
ENDBRANCH   1  15
TORSDOF 4
ENDMDL
MODEL 8
REMARK VINA RESULT:    -5.727      2.837      4.439
REMARK INTER + INTRA:          -7.221
REMARK INTER:                  -6.743
REMARK INTRA:                  -0.478
REMARK UNBOUND:                -0.322
REMARK  Name = 
REMARK  4 active torsions:
REMARK  status: ('A' for Active; 'I' for Inactive)
REMARK    1  A    between atoms: N_1  and  C_2
REMARK    2  A    between atoms: C_2  and  C_3
REMARK    3  A    between atoms: C_6  and  C_7
REMARK    4  A    between atoms: C_7  and  N_8
REMARK                            x       y       z     vdW  Elec       q    Type
REMARK                         _______ _______ _______ _____ _____    ______ ____
ROOT
ATOM      1  C   UNL     1      44.853   6.547  12.879  0.00  0.00    +0.000 C 
ENDROOT
BRANCH   1   2
ATOM      2  N   UNL     1      45.668   7.685  12.458  0.00  0.00    +0.000 N 
ATOM      3  C   UNL     1      46.893   7.986  13.021  0.00  0.00    +0.000 A 
ATOM      4  C   UNL     1      47.349   9.142  12.434  0.00  0.00    +0.000 A 
ATOM      5  C   UNL     1      46.190   9.793  11.948  0.00  0.00    +0.000 A 
ATOM      6  C   UNL     1      45.873  11.134  11.667  0.00  0.00    +0.000 A 
ATOM      7  C   UNL     1      44.617  11.437  11.135  0.00  0.00    +0.000 A 
ATOM      8  C   UNL     1      43.746  10.410  10.781  0.00  0.00    +0.000 A 
ATOM      9 CL   UNL     1      42.269  10.802   9.983  0.00  0.00    +0.000 Cl
ATOM     10  C   UNL     1      44.022   9.073  11.085  0.00  0.00    +0.000 A 
ATOM     11  C   UNL     1      45.215   8.804  11.774  0.00  0.00    +0.000 A 
ENDBRANCH   1   2
BRANCH   1  15
ATOM     12  C   UNL     1      44.747   3.263  10.043  0.00  0.00    +0.000 A 
ATOM     13  C   UNL     1      44.317   3.075  11.364  0.00  0.00    +0.000 A 
ATOM     14  C   UNL     1      44.387   4.123  12.291  0.00  0.00    +0.000 A 
ATOM     15  C   UNL     1      44.878   5.379  11.919  0.00  0.00    +0.000 A 
ATOM     16  C   UNL     1      45.322   5.557  10.599  0.00  0.00    +0.000 A 
ATOM     17  C   UNL     1      45.253   4.505   9.660  0.00  0.00    +0.000 A 
BRANCH  12  18
ATOM     18  C   UNL     1      44.690   2.129   9.049  0.00  0.00    +0.000 C 
BRANCH  18  19
ATOM     19  N   UNL     1      45.980   1.880   8.395  0.00  0.00    +0.000 NA
ATOM     20  H   UNL     1      46.136   2.594   7.681  0.00  0.00    +0.000 HD
ATOM     21  H   UNL     1      45.944   0.984   7.913  0.00  0.00    +0.000 HD
ENDBRANCH  18  19
ENDBRANCH  12  18
ENDBRANCH   1  15
TORSDOF 4
ENDMDL
MODEL 9
REMARK VINA RESULT:    -5.449      3.295      6.987
REMARK INTER + INTRA:          -6.886
REMARK INTER:                  -6.622
REMARK INTRA:                  -0.264
REMARK UNBOUND:                -0.322
REMARK  Name = 
REMARK  4 active torsions:
REMARK  status: ('A' for Active; 'I' for Inactive)
REMARK    1  A    between atoms: N_1  and  C_2
REMARK    2  A    between atoms: C_2  and  C_3
REMARK    3  A    between atoms: C_6  and  C_7
REMARK    4  A    between atoms: C_7  and  N_8
REMARK                            x       y       z     vdW  Elec       q    Type
REMARK                         _______ _______ _______ _____ _____    ______ ____
ROOT
ATOM      1  C   UNL     1      46.691   7.011  11.629  0.00  0.00    +0.000 C 
ENDROOT
BRANCH   1   2
ATOM      2  N   UNL     1      45.489   6.178  11.677  0.00  0.00    +0.000 N 
ATOM      3  C   UNL     1      44.785   5.934  12.839  0.00  0.00    +0.000 A 
ATOM      4  C   UNL     1      43.759   5.072  12.532  0.00  0.00    +0.000 A 
ATOM      5  C   UNL     1      44.177   4.404  11.357  0.00  0.00    +0.000 A 
ATOM      6  C   UNL     1      43.863   3.159  10.782  0.00  0.00    +0.000 A 
ATOM      7  C   UNL     1      44.431   2.817   9.552  0.00  0.00    +0.000 A 
ATOM      8  C   UNL     1      45.198   3.748   8.857  0.00  0.00    +0.000 A 
ATOM      9 CL   UNL     1      45.757   3.360   7.274  0.00  0.00    +0.000 Cl
ATOM     10  C   UNL     1      45.555   4.976   9.424  0.00  0.00    +0.000 A 
ATOM     11  C   UNL     1      45.115   5.233  10.732  0.00  0.00    +0.000 A 
ENDBRANCH   1   2
BRANCH   1  15
ATOM     12  C   UNL     1      48.650   7.837  15.413  0.00  0.00    +0.000 A 
ATOM     13  C   UNL     1      48.662   6.543  14.874  0.00  0.00    +0.000 A 
ATOM     14  C   UNL     1      47.997   6.266  13.673  0.00  0.00    +0.000 A 
ATOM     15  C   UNL     1      47.315   7.273  12.981  0.00  0.00    +0.000 A 
ATOM     16  C   UNL     1      47.292   8.563  13.534  0.00  0.00    +0.000 A 
ATOM     17  C   UNL     1      47.962   8.849  14.744  0.00  0.00    +0.000 A 
BRANCH  12  18
ATOM     18  C   UNL     1      49.350   8.131  16.717  0.00  0.00    +0.000 C 
BRANCH  18  19
ATOM     19  N   UNL     1      48.666   7.543  17.875  0.00  0.00    +0.000 NA
ATOM     20  H   UNL     1      47.966   8.201  18.221  0.00  0.00    +0.000 HD
ATOM     21  H   UNL     1      49.339   7.405  18.627  0.00  0.00    +0.000 HD
ENDBRANCH  18  19
ENDBRANCH  12  18
ENDBRANCH   1  15
TORSDOF 4
ENDMDL
