MODEL 1
REMARK VINA RESULT:    -7.776      0.000      0.000
REMARK INTER + INTRA:         -10.107
REMARK INTER:                  -9.595
REMARK INTRA:                  -0.512
REMARK UNBOUND:                -0.512
REMARK  Name = 
REMARK  4 active torsions:
REMARK  status: ('A' for Active; 'I' for Inactive)
REMARK    1  A    between atoms: C_2  and  C_4
REMARK    2  A    between atoms: C_7  and  O_8
REMARK    3  A    between atoms: O_8  and  C_9
REMARK    4  A    between atoms: C_9  and  C_10
REMARK                            x       y       z     vdW  Elec       q    Type
REMARK                         _______ _______ _______ _____ _____    ______ ____
ROOT
ATOM      1  C   UNL     1      46.403   2.472   7.716  0.00  0.00    +0.000 A 
ATOM      2  C   UNL     1      45.561   1.820   8.621  0.00  0.00    +0.000 A 
ATOM      3  C   UNL     1      44.650   2.573   9.367  0.00  0.00    +0.000 A 
ATOM      4  C   UNL     1      44.633   3.949   9.196  0.00  0.00    +0.000 A 
ATOM      5  N   UNL     1      45.430   4.603   8.324  0.00  0.00    +0.000 NA
ATOM      6  C   UNL     1      46.300   3.851   7.608  0.00  0.00    +0.000 A 
ENDROOT
BRANCH   1   8
ATOM      7  N   UNL     1      48.480   2.527   6.453  0.00  0.00    +0.000 N 
ATOM      8  C   UNL     1      47.420   1.783   6.898  0.00  0.00    +0.000 C 
ATOM      9  O   UNL     1      47.341   0.589   6.651  0.00  0.00    +0.000 OA
ATOM     10  H   UNL     1      49.217   2.015   5.980  0.00  0.00    +0.000 HD
ATOM     11  H   UNL     1      48.713   3.434   6.833  0.00  0.00    +0.000 HD
ENDBRANCH   1   8
BRANCH   4  12
ATOM     12  O   UNL     1      43.734   4.672   9.954  0.00  0.00    +0.000 OA
BRANCH  12  13
ATOM     13  C   UNL     1      43.650   4.170  11.290  0.00  0.00    +0.000 C 
BRANCH  13  14
ATOM     14  C   UNL     1      44.801   4.718  12.087  0.00  0.00    +0.000 A 
ATOM     15  C   UNL     1      45.676   3.871  12.775  0.00  0.00    +0.000 A 
ATOM     16  C   UNL     1      46.735   4.414  13.498  0.00  0.00    +0.000 A 
ATOM     17  C   UNL     1      46.878   5.790  13.498  0.00  0.00    +0.000 A 
ATOM     18 CL   UNL     1      48.166   6.539  14.347  0.00  0.00    +0.000 Cl
ATOM     19  N   UNL     1      46.059   6.644  12.851  0.00  0.00    +0.000 NA
ATOM     20  C   UNL     1      45.042   6.086  12.157  0.00  0.00    +0.000 A 
ENDBRANCH  13  14
ENDBRANCH  12  13
ENDBRANCH   4  12
TORSDOF 4
ENDMDL
MODEL 2
REMARK VINA RESULT:    -7.728      1.157      1.404
REMARK INTER + INTRA:         -10.048
REMARK INTER:                  -9.601
REMARK INTRA:                  -0.447
REMARK UNBOUND:                -0.512
REMARK  Name = 
REMARK  4 active torsions:
REMARK  status: ('A' for Active; 'I' for Inactive)
REMARK    1  A    between atoms: C_2  and  C_4
REMARK    2  A    between atoms: C_7  and  O_8
REMARK    3  A    between atoms: O_8  and  C_9
REMARK    4  A    between atoms: C_9  and  C_10
REMARK                            x       y       z     vdW  Elec       q    Type
REMARK                         _______ _______ _______ _____ _____    ______ ____
ROOT
ATOM      1  C   UNL     1      46.435   2.535   7.713  0.00  0.00    +0.000 A 
ATOM      2  C   UNL     1      45.648   1.907   8.682  0.00  0.00    +0.000 A 
ATOM      3  C   UNL     1      44.854   2.688   9.526  0.00  0.00    +0.000 A 
ATOM      4  C   UNL     1      44.898   4.067   9.385  0.00  0.00    +0.000 A 
ATOM      5  N   UNL     1      45.644   4.700   8.454  0.00  0.00    +0.000 NA
ATOM      6  C   UNL     1      46.399   3.921   7.642  0.00  0.00    +0.000 A 
ENDROOT
BRANCH   1   8
ATOM      7  N   UNL     1      48.394   2.506   6.273  0.00  0.00    +0.000 N 
ATOM      8  C   UNL     1      47.330   1.814   6.787  0.00  0.00    +0.000 C 
ATOM      9  O   UNL     1      47.153   0.637   6.513  0.00  0.00    +0.000 OA
ATOM     10  H   UNL     1      49.052   1.966   5.722  0.00  0.00    +0.000 HD
ATOM     11  H   UNL     1      48.718   3.382   6.658  0.00  0.00    +0.000 HD
ENDBRANCH   1   8
BRANCH   4  12
ATOM     12  O   UNL     1      44.115   4.817  10.240  0.00  0.00    +0.000 OA
BRANCH  12  13
ATOM     13  C   UNL     1      44.829   5.944  10.753  0.00  0.00    +0.000 C 
BRANCH  13  14
ATOM     14  C   UNL     1      45.545   5.533  12.011  0.00  0.00    +0.000 A 
ATOM     15  C   UNL     1      46.765   6.114  12.374  0.00  0.00    +0.000 A 
ATOM     16  C   UNL     1      47.396   5.713  13.549  0.00  0.00    +0.000 A 
ATOM     17  C   UNL     1      46.774   4.746  14.319  0.00  0.00    +0.000 A 
ATOM     18 CL   UNL     1      47.474   4.211  15.789  0.00  0.00    +0.000 Cl
ATOM     19  N   UNL     1      45.600   4.160  14.007  0.00  0.00    +0.000 NA
ATOM     20  C   UNL     1      45.011   4.571  12.862  0.00  0.00    +0.000 A 
ENDBRANCH  13  14
ENDBRANCH  12  13
ENDBRANCH   4  12
TORSDOF 4
ENDMDL
MODEL 3
REMARK VINA RESULT:    -7.241      3.099      6.185
REMARK INTER + INTRA:          -9.447
REMARK INTER:                  -8.955
REMARK INTRA:                  -0.492
REMARK UNBOUND:                -0.512
REMARK  Name = 
REMARK  4 active torsions:
REMARK  status: ('A' for Active; 'I' for Inactive)
REMARK    1  A    between atoms: C_2  and  C_4
REMARK    2  A    between atoms: C_7  and  O_8
REMARK    3  A    between atoms: O_8  and  C_9
REMARK    4  A    between atoms: C_9  and  C_10
REMARK                            x       y       z     vdW  Elec       q    Type
REMARK                         _______ _______ _______ _____ _____    ______ ____
ROOT
ATOM      1  C   UNL     1      46.810   5.187  13.767  0.00  0.00    +0.000 A 
ATOM      2  C   UNL     1      45.791   5.886  13.115  0.00  0.00    +0.000 A 
ATOM      3  C   UNL     1      44.860   5.178  12.350  0.00  0.00    +0.000 A 
ATOM      4  C   UNL     1      44.999   3.801  12.248  0.00  0.00    +0.000 A 
ATOM      5  N   UNL     1      45.969   3.100  12.873  0.00  0.00    +0.000 NA
ATOM      6  C   UNL     1      46.855   3.808  13.614  0.00  0.00    +0.000 A 
ENDROOT
BRANCH   1   8
ATOM      7  N   UNL     1      47.759   5.728  15.939  0.00  0.00    +0.000 N 
ATOM      8  C   UNL     1      47.860   5.833  14.578  0.00  0.00    +0.000 C 
ATOM      9  O   UNL     1      48.803   6.411  14.059  0.00  0.00    +0.000 OA
ATOM     10  H   UNL     1      48.541   6.089  16.474  0.00  0.00    +0.000 HD
ATOM     11  H   UNL     1      47.151   5.062  16.396  0.00  0.00    +0.000 HD
ENDBRANCH   1   8
BRANCH   4  12
ATOM     12  O   UNL     1      44.075   3.126  11.476  0.00  0.00    +0.000 OA
BRANCH  12  13
ATOM     13  C   UNL     1      43.821   3.806  10.245  0.00  0.00    +0.000 C 
BRANCH  13  14
ATOM     14  C   UNL     1      44.851   3.380   9.234  0.00  0.00    +0.000 A 
ATOM     15  C   UNL     1      45.201   2.035   9.077  0.00  0.00    +0.000 A 
ATOM     16  C   UNL     1      46.153   1.677   8.127  0.00  0.00    +0.000 A 
ATOM     17  C   UNL     1      46.715   2.685   7.364  0.00  0.00    +0.000 A 
ATOM     18 CL   UNL     1      47.881   2.327   6.159  0.00  0.00    +0.000 Cl
ATOM     19  N   UNL     1      46.408   3.992   7.481  0.00  0.00    +0.000 NA
ATOM     20  C   UNL     1      45.479   4.309   8.411  0.00  0.00    +0.000 A 
ENDBRANCH  13  14
ENDBRANCH  12  13
ENDBRANCH   4  12
TORSDOF 4
ENDMDL
MODEL 4
REMARK VINA RESULT:    -7.123      3.005      6.438
REMARK INTER + INTRA:          -9.301
REMARK INTER:                  -8.866
REMARK INTRA:                  -0.435
REMARK UNBOUND:                -0.512
REMARK  Name = 
REMARK  4 active torsions:
REMARK  status: ('A' for Active; 'I' for Inactive)
REMARK    1  A    between atoms: C_2  and  C_4
REMARK    2  A    between atoms: C_7  and  O_8
REMARK    3  A    between atoms: O_8  and  C_9
REMARK    4  A    between atoms: C_9  and  C_10
REMARK                            x       y       z     vdW  Elec       q    Type
REMARK                         _______ _______ _______ _____ _____    ______ ____
ROOT
ATOM      1  C   UNL     1      45.567   7.192  12.595  0.00  0.00    +0.000 A 
ATOM      2  C   UNL     1      46.361   6.150  13.083  0.00  0.00    +0.000 A 
ATOM      3  C   UNL     1      46.115   4.846  12.647  0.00  0.00    +0.000 A 
ATOM      4  C   UNL     1      45.070   4.630  11.760  0.00  0.00    +0.000 A 
ATOM      5  N   UNL     1      44.292   5.618  11.268  0.00  0.00    +0.000 NA
ATOM      6  C   UNL     1      44.555   6.876  11.700  0.00  0.00    +0.000 A 
ENDROOT
BRANCH   1   8
ATOM      7  N   UNL     1      46.655   8.881  13.964  0.00  0.00    +0.000 N 
ATOM      8  C   UNL     1      45.719   8.601  13.005  0.00  0.00    +0.000 C 
ATOM      9  O   UNL     1      45.060   9.492  12.490  0.00  0.00    +0.000 OA
ATOM     10  H   UNL     1      46.816   9.863  14.158  0.00  0.00    +0.000 HD
ATOM     11  H   UNL     1      47.381   8.229  14.230  0.00  0.00    +0.000 HD
ENDBRANCH   1   8
BRANCH   4  12
ATOM     12  O   UNL     1      44.839   3.331  11.355  0.00  0.00    +0.000 OA
BRANCH  12  13
ATOM     13  C   UNL     1      44.116   3.285  10.124  0.00  0.00    +0.000 C 
BRANCH  13  14
ATOM     14  C   UNL     1      45.084   3.024   9.002  0.00  0.00    +0.000 A 
ATOM     15  C   UNL     1      45.627   1.752   8.794  0.00  0.00    +0.000 A 
ATOM     16  C   UNL     1      46.515   1.546   7.742  0.00  0.00    +0.000 A 
ATOM     17  C   UNL     1      46.820   2.627   6.933  0.00  0.00    +0.000 A 
ATOM     18 CL   UNL     1      47.890   2.454   5.604  0.00  0.00    +0.000 Cl
ATOM     19  N   UNL     1      46.320   3.868   7.096  0.00  0.00    +0.000 NA
ATOM     20  C   UNL     1      45.460   4.036   8.125  0.00  0.00    +0.000 A 
ENDBRANCH  13  14
ENDBRANCH  12  13
ENDBRANCH   4  12
TORSDOF 4
ENDMDL
MODEL 5
REMARK VINA RESULT:    -6.082      4.047      5.872
REMARK INTER + INTRA:          -8.016
REMARK INTER:                  -7.649
REMARK INTRA:                  -0.367
REMARK UNBOUND:                -0.512
REMARK  Name = 
REMARK  4 active torsions:
REMARK  status: ('A' for Active; 'I' for Inactive)
REMARK    1  A    between atoms: C_2  and  C_4
REMARK    2  A    between atoms: C_7  and  O_8
REMARK    3  A    between atoms: O_8  and  C_9
REMARK    4  A    between atoms: C_9  and  C_10
REMARK                            x       y       z     vdW  Elec       q    Type
REMARK                         _______ _______ _______ _____ _____    ______ ____
ROOT
ATOM      1  C   UNL     1      45.189   4.280  11.651  0.00  0.00    +0.000 A 
ATOM      2  C   UNL     1      45.625   5.584  11.900  0.00  0.00    +0.000 A 
ATOM      3  C   UNL     1      46.420   5.834  13.021  0.00  0.00    +0.000 A 
ATOM      4  C   UNL     1      46.727   4.776  13.864  0.00  0.00    +0.000 A 
ATOM      5  N   UNL     1      46.324   3.505  13.644  0.00  0.00    +0.000 NA
ATOM      6  C   UNL     1      45.561   3.287  12.546  0.00  0.00    +0.000 A 
ENDROOT
BRANCH   1   8
ATOM      7  N   UNL     1      44.318   4.739   9.428  0.00  0.00    +0.000 N 
ATOM      8  C   UNL     1      44.325   3.905  10.514  0.00  0.00    +0.000 C 
ATOM      9  O   UNL     1      43.666   2.877  10.523  0.00  0.00    +0.000 OA
ATOM     10  H   UNL     1      43.799   4.414   8.620  0.00  0.00    +0.000 HD
ATOM     11  H   UNL     1      45.020   5.450   9.276  0.00  0.00    +0.000 HD
ENDBRANCH   1   8
BRANCH   4  12
ATOM     12  O   UNL     1      47.502   5.051  14.972  0.00  0.00    +0.000 OA
BRANCH  12  13
ATOM     13  C   UNL     1      47.231   4.142  16.042  0.00  0.00    +0.000 C 
BRANCH  13  14
ATOM     14  C   UNL     1      48.525   3.520  16.490  0.00  0.00    +0.000 A 
ATOM     15  C   UNL     1      49.485   4.264  17.185  0.00  0.00    +0.000 A 
ATOM     16  C   UNL     1      50.669   3.654  17.590  0.00  0.00    +0.000 A 
ATOM     17  C   UNL     1      50.842   2.316  17.286  0.00  0.00    +0.000 A 
ATOM     18 CL   UNL     1      52.263   1.484  17.766  0.00  0.00    +0.000 Cl
ATOM     19  N   UNL     1      49.946   1.561  16.619  0.00  0.00    +0.000 NA
ATOM     20  C   UNL     1      48.806   2.181  16.241  0.00  0.00    +0.000 A 
ENDBRANCH  13  14
ENDBRANCH  12  13
ENDBRANCH   4  12
TORSDOF 4
ENDMDL
MODEL 6
REMARK VINA RESULT:    -5.515      3.963      5.739
REMARK INTER + INTRA:          -7.317
REMARK INTER:                  -7.010
REMARK INTRA:                  -0.307
REMARK UNBOUND:                -0.512
REMARK  Name = 
REMARK  4 active torsions:
REMARK  status: ('A' for Active; 'I' for Inactive)
REMARK    1  A    between atoms: C_2  and  C_4
REMARK    2  A    between atoms: C_7  and  O_8
REMARK    3  A    between atoms: O_8  and  C_9
REMARK    4  A    between atoms: C_9  and  C_10
REMARK                            x       y       z     vdW  Elec       q    Type
REMARK                         _______ _______ _______ _____ _____    ______ ____
ROOT
ATOM      1  C   UNL     1      45.136   4.355  11.557  0.00  0.00    +0.000 A 
ATOM      2  C   UNL     1      45.736   5.605  11.739  0.00  0.00    +0.000 A 
ATOM      3  C   UNL     1      46.591   5.798  12.827  0.00  0.00    +0.000 A 
ATOM      4  C   UNL     1      46.795   4.743  13.704  0.00  0.00    +0.000 A 
ATOM      5  N   UNL     1      46.234   3.524  13.549  0.00  0.00    +0.000 NA
ATOM      6  C   UNL     1      45.414   3.359  12.483  0.00  0.00    +0.000 A 
ENDROOT
BRANCH   1   8
ATOM      7  N   UNL     1      44.263   4.825   9.338  0.00  0.00    +0.000 N 
ATOM      8  C   UNL     1      44.197   4.046  10.462  0.00  0.00    +0.000 C 
ATOM      9  O   UNL     1      43.412   3.113  10.536  0.00  0.00    +0.000 OA
ATOM     10  H   UNL     1      43.682   4.535   8.559  0.00  0.00    +0.000 HD
ATOM     11  H   UNL     1      45.046   5.431   9.134  0.00  0.00    +0.000 HD
ENDBRANCH   1   8
BRANCH   4  12
ATOM     12  O   UNL     1      47.634   4.963  14.778  0.00  0.00    +0.000 OA
BRANCH  12  13
ATOM     13  C   UNL     1      47.500   3.940  15.767  0.00  0.00    +0.000 C 
BRANCH  13  14
ATOM     14  C   UNL     1      48.145   4.411  17.042  0.00  0.00    +0.000 A 
ATOM     15  C   UNL     1      48.172   3.603  18.183  0.00  0.00    +0.000 A 
ATOM     16  C   UNL     1      48.784   4.069  19.343  0.00  0.00    +0.000 A 
ATOM     17  C   UNL     1      49.353   5.330  19.312  0.00  0.00    +0.000 A 
ATOM     18 CL   UNL     1      50.144   5.971  20.692  0.00  0.00    +0.000 Cl
ATOM     19  N   UNL     1      49.351   6.142  18.236  0.00  0.00    +0.000 NA
ATOM     20  C   UNL     1      48.750   5.661  17.124  0.00  0.00    +0.000 A 
ENDBRANCH  13  14
ENDBRANCH  12  13
ENDBRANCH   4  12
TORSDOF 4
ENDMDL
MODEL 7
REMARK VINA RESULT:    -5.396      5.112      7.974
REMARK INTER + INTRA:          -7.170
REMARK INTER:                  -6.858
REMARK INTRA:                  -0.312
REMARK UNBOUND:                -0.512
REMARK  Name = 
REMARK  4 active torsions:
REMARK  status: ('A' for Active; 'I' for Inactive)
REMARK    1  A    between atoms: C_2  and  C_4
REMARK    2  A    between atoms: C_7  and  O_8
REMARK    3  A    between atoms: O_8  and  C_9
REMARK    4  A    between atoms: C_9  and  C_10
REMARK                            x       y       z     vdW  Elec       q    Type
REMARK                         _______ _______ _______ _____ _____    ______ ____
ROOT
ATOM      1  C   UNL     1      49.847   3.776  17.579  0.00  0.00    +0.000 A 
ATOM      2  C   UNL     1      49.293   2.563  17.160  0.00  0.00    +0.000 A 
ATOM      3  C   UNL     1      48.240   2.577  16.241  0.00  0.00    +0.000 A 
ATOM      4  C   UNL     1      47.767   3.803  15.796  0.00  0.00    +0.000 A 
ATOM      5  N   UNL     1      48.288   4.988  16.179  0.00  0.00    +0.000 NA
ATOM      6  C   UNL     1      49.313   4.948  17.065  0.00  0.00    +0.000 A 
ENDROOT
BRANCH   1   8
ATOM      7  N   UNL     1      50.638   4.416  19.787  0.00  0.00    +0.000 N 
ATOM      8  C   UNL     1      50.941   3.882  18.563  0.00  0.00    +0.000 C 
ATOM      9  O   UNL     1      52.068   3.480  18.314  0.00  0.00    +0.000 OA
ATOM     10  H   UNL     1      51.375   4.387  20.482  0.00  0.00    +0.000 HD
ATOM     11  H   UNL     1      49.689   4.526  20.119  0.00  0.00    +0.000 HD
ENDBRANCH   1   8
BRANCH   4  12
ATOM     12  O   UNL     1      46.717   3.790  14.899  0.00  0.00    +0.000 OA
BRANCH  12  13
ATOM     13  C   UNL     1      46.549   5.062  14.270  0.00  0.00    +0.000 C 
BRANCH  13  14
ATOM     14  C   UNL     1      45.993   4.850  12.888  0.00  0.00    +0.000 A 
ATOM     15  C   UNL     1      46.036   5.863  11.925  0.00  0.00    +0.000 A 
ATOM     16  C   UNL     1      45.517   5.629  10.655  0.00  0.00    +0.000 A 
ATOM     17  C   UNL     1      44.979   4.381  10.397  0.00  0.00    +0.000 A 
ATOM     18 CL   UNL     1      44.337   4.004   8.852  0.00  0.00    +0.000 Cl
ATOM     19  N   UNL     1      44.917   3.376  11.293  0.00  0.00    +0.000 NA
ATOM     20  C   UNL     1      45.430   3.633  12.518  0.00  0.00    +0.000 A 
ENDBRANCH  13  14
ENDBRANCH  12  13
ENDBRANCH   4  12
TORSDOF 4
ENDMDL
MODEL 8
REMARK VINA RESULT:    -5.169      3.592      5.049
REMARK INTER + INTRA:          -6.889
REMARK INTER:                  -6.395
REMARK INTRA:                  -0.495
REMARK UNBOUND:                -0.512
REMARK  Name = 
REMARK  4 active torsions:
REMARK  status: ('A' for Active; 'I' for Inactive)
REMARK    1  A    between atoms: C_2  and  C_4
REMARK    2  A    between atoms: C_7  and  O_8
REMARK    3  A    between atoms: O_8  and  C_9
REMARK    4  A    between atoms: C_9  and  C_10
REMARK                            x       y       z     vdW  Elec       q    Type
REMARK                         _______ _______ _______ _____ _____    ______ ____
ROOT
ATOM      1  C   UNL     1      44.489   4.401  11.641  0.00  0.00    +0.000 A 
ATOM      2  C   UNL     1      45.198   5.169  10.713  0.00  0.00    +0.000 A 
ATOM      3  C   UNL     1      45.627   6.449  11.075  0.00  0.00    +0.000 A 
ATOM      4  C   UNL     1      45.309   6.920  12.340  0.00  0.00    +0.000 A 
ATOM      5  N   UNL     1      44.632   6.197  13.258  0.00  0.00    +0.000 NA
ATOM      6  C   UNL     1      44.233   4.957  12.886  0.00  0.00    +0.000 A 
ENDROOT
BRANCH   1   8
ATOM      7  N   UNL     1      43.651   2.261  12.433  0.00  0.00    +0.000 N 
ATOM      8  C   UNL     1      43.966   3.050  11.359  0.00  0.00    +0.000 C 
ATOM      9  O   UNL     1      43.787   2.658  10.216  0.00  0.00    +0.000 OA
ATOM     10  H   UNL     1      43.199   1.378  12.221  0.00  0.00    +0.000 HD
ATOM     11  H   UNL     1      43.546   2.624  13.371  0.00  0.00    +0.000 HD
ENDBRANCH   1   8
BRANCH   4  12
ATOM     12  O   UNL     1      45.732   8.192  12.668  0.00  0.00    +0.000 OA
BRANCH  12  13
ATOM     13  C   UNL     1      47.117   8.380  12.366  0.00  0.00    +0.000 C 
BRANCH  13  14
ATOM     14  C   UNL     1      47.926   8.091  13.601  0.00  0.00    +0.000 A 
ATOM     15  C   UNL     1      47.890   8.944  14.708  0.00  0.00    +0.000 A 
ATOM     16  C   UNL     1      48.647   8.642  15.836  0.00  0.00    +0.000 A 
ATOM     17  C   UNL     1      49.410   7.488  15.812  0.00  0.00    +0.000 A 
ATOM     18 CL   UNL     1      50.357   7.033  17.167  0.00  0.00    +0.000 Cl
ATOM     19  N   UNL     1      49.475   6.638  14.768  0.00  0.00    +0.000 NA
ATOM     20  C   UNL     1      48.728   6.958  13.688  0.00  0.00    +0.000 A 
ENDBRANCH  13  14
ENDBRANCH  12  13
ENDBRANCH   4  12
TORSDOF 4
ENDMDL
MODEL 9
REMARK VINA RESULT:    -5.058      3.501      5.265
REMARK INTER + INTRA:          -6.752
REMARK INTER:                  -6.373
REMARK INTRA:                  -0.380
REMARK UNBOUND:                -0.512
REMARK  Name = 
REMARK  4 active torsions:
REMARK  status: ('A' for Active; 'I' for Inactive)
REMARK    1  A    between atoms: C_2  and  C_4
REMARK    2  A    between atoms: C_7  and  O_8
REMARK    3  A    between atoms: O_8  and  C_9
REMARK    4  A    between atoms: C_9  and  C_10
REMARK                            x       y       z     vdW  Elec       q    Type
REMARK                         _______ _______ _______ _____ _____    ______ ____
ROOT
ATOM      1  C   UNL     1      44.833   4.034  11.560  0.00  0.00    +0.000 A 
ATOM      2  C   UNL     1      45.371   3.986  12.849  0.00  0.00    +0.000 A 
ATOM      3  C   UNL     1      46.079   5.090  13.332  0.00  0.00    +0.000 A 
ATOM      4  C   UNL     1      46.242   6.187  12.499  0.00  0.00    +0.000 A 
ATOM      5  N   UNL     1      45.727   6.263  11.253  0.00  0.00    +0.000 NA
ATOM      6  C   UNL     1      45.038   5.183  10.810  0.00  0.00    +0.000 A 
ENDROOT
BRANCH   1   8
ATOM      7  N   UNL     1      44.675   2.296   9.867  0.00  0.00    +0.000 N 
ATOM      8  C   UNL     1      44.092   2.919  10.938  0.00  0.00    +0.000 C 
ATOM      9  O   UNL     1      43.015   2.542  11.377  0.00  0.00    +0.000 OA
ATOM     10  H   UNL     1      44.200   1.470   9.519  0.00  0.00    +0.000 HD
ATOM     11  H   UNL     1      45.652   2.404   9.633  0.00  0.00    +0.000 HD
ENDBRANCH   1   8
BRANCH   4  12
ATOM     12  O   UNL     1      46.957   7.259  12.995  0.00  0.00    +0.000 OA
BRANCH  12  13
ATOM     13  C   UNL     1      48.075   6.830  13.774  0.00  0.00    +0.000 C 
BRANCH  13  14
ATOM     14  C   UNL     1      49.328   7.426  13.193  0.00  0.00    +0.000 A 
ATOM     15  C   UNL     1      49.525   7.495  11.809  0.00  0.00    +0.000 A 
ATOM     16  C   UNL     1      50.694   8.059  11.307  0.00  0.00    +0.000 A 
ATOM     17  C   UNL     1      51.621   8.540  12.215  0.00  0.00    +0.000 A 
ATOM     18 CL   UNL     1      53.079   9.268  11.679  0.00  0.00    +0.000 Cl
ATOM     19  N   UNL     1      51.473   8.495  13.554  0.00  0.00    +0.000 NA
ATOM     20  C   UNL     1      50.327   7.942  14.011  0.00  0.00    +0.000 A 
ENDBRANCH  13  14
ENDBRANCH  12  13
ENDBRANCH   4  12
TORSDOF 4
ENDMDL
