MODEL 1
REMARK VINA RESULT:    -7.959      0.000      0.000
REMARK INTER + INTRA:         -11.648
REMARK INTER:                 -10.751
REMARK INTRA:                  -0.896
REMARK UNBOUND:                -0.896
REMARK  Name = 
REMARK  6 active torsions:
REMARK  status: ('A' for Active; 'I' for Inactive)
REMARK    1  A    between atoms: C_2  and  C_25
REMARK    2  A    between atoms: N_3  and  C_4
REMARK    3  A    between atoms: C_4  and  C_5
REMARK    4  A    between atoms: C_8  and  C_9
REMARK    5  A    between atoms: C_9  and  N_10
REMARK    6  A    between atoms: C_11  and  C_13
REMARK                            x       y       z     vdW  Elec       q    Type
REMARK                         _______ _______ _______ _____ _____    ______ ____
ROOT
ATOM      1  C   UNL     1      44.597   5.272  11.242  0.00  0.00    +0.000 A 
ATOM      2  C   UNL     1      45.603   4.747  12.065  0.00  0.00    +0.000 A 
ATOM      3  C   UNL     1      46.429   5.596  12.808  0.00  0.00    +0.000 A 
ATOM      4  C   UNL     1      46.254   6.986  12.757  0.00  0.00    +0.000 A 
ATOM      5  C   UNL     1      45.239   7.510  11.946  0.00  0.00    +0.000 A 
ATOM      6  C   UNL     1      44.414   6.661  11.202  0.00  0.00    +0.000 A 
ENDROOT
BRANCH   1   7
ATOM      7  C   UNL     1      43.772   4.365  10.372  0.00  0.00    +0.000 C 
BRANCH   7  10
ATOM      8  O   UNL     1      45.406   4.707   8.160  0.00  0.00    +0.000 OA
ATOM      9  C   UNL     1      45.319   3.584   8.654  0.00  0.00    +0.000 C 
ATOM     10  N   UNL     1      44.530   3.314   9.750  0.00  0.00    +0.000 N 
ATOM     11  H   UNL     1      44.550   2.372  10.127  0.00  0.00    +0.000 HD
BRANCH   9  12
ATOM     12  C   UNL     1      46.052   2.450   8.131  0.00  0.00    +0.000 A 
ATOM     13  N   UNL     1      45.854   1.182   8.453  0.00  0.00    +0.000 NA
ATOM     14  C   UNL     1      46.756   0.470   7.694  0.00  0.00    +0.000 A 
ATOM     15  C   UNL     1      47.525   1.311   6.927  0.00  0.00    +0.000 A 
ATOM     16  N   UNL     1      47.063   2.564   7.207  0.00  0.00    +0.000 N 
ATOM     17  H   UNL     1      47.388   3.445   6.825  0.00  0.00    +0.000 HD
ENDBRANCH   9  12
ENDBRANCH   7  10
ENDBRANCH   1   7
BRANCH   4  18
ATOM     18  C   UNL     1      47.157   7.907  13.533  0.00  0.00    +0.000 C 
BRANCH  18  19
ATOM     19  N   UNL     1      47.631   7.294  14.749  0.00  0.00    +0.000 N 
ATOM     20  C   UNL     1      48.916   6.837  14.892  0.00  0.00    +0.000 C 
ATOM     21  O   UNL     1      49.738   6.903  13.982  0.00  0.00    +0.000 OA
ATOM     22  H   UNL     1      46.933   7.060  15.448  0.00  0.00    +0.000 HD
BRANCH  20  23
ATOM     23  C   UNL     1      49.292   6.329  16.220  0.00  0.00    +0.000 A 
ATOM     24  C   UNL     1      50.333   6.937  16.910  0.00  0.00    +0.000 A 
ATOM     25  S   UNL     1      50.622   6.268  18.450  0.00  0.00    +0.000 S 
ATOM     26  C   UNL     1      49.395   5.110  18.235  0.00  0.00    +0.000 A 
ATOM     27  N   UNL     1      49.136   4.185  19.198  0.00  0.00    +0.000 NA
ATOM     28  C   UNL     1      48.209   3.342  18.890  0.00  0.00    +0.000 A 
ATOM     29  N   UNL     1      47.509   3.346  17.713  0.00  0.00    +0.000 N 
ATOM     30  C   UNL     1      47.690   4.302  16.739  0.00  0.00    +0.000 A 
ATOM     31  O   UNL     1      46.968   4.344  15.748  0.00  0.00    +0.000 OA
ATOM     32  C   UNL     1      48.755   5.248  17.015  0.00  0.00    +0.000 A 
ATOM     33  H   UNL     1      46.777   2.671  17.544  0.00  0.00    +0.000 HD
ENDBRANCH  20  23
ENDBRANCH  18  19
ENDBRANCH   4  18
TORSDOF 6
ENDMDL
MODEL 2
REMARK VINA RESULT:    -7.166      1.895      2.451
REMARK INTER + INTRA:         -10.576
REMARK INTER:                  -9.699
REMARK INTRA:                  -0.877
REMARK UNBOUND:                -0.896
REMARK  Name = 
REMARK  6 active torsions:
REMARK  status: ('A' for Active; 'I' for Inactive)
REMARK    1  A    between atoms: C_2  and  C_25
REMARK    2  A    between atoms: N_3  and  C_4
REMARK    3  A    between atoms: C_4  and  C_5
REMARK    4  A    between atoms: C_8  and  C_9
REMARK    5  A    between atoms: C_9  and  N_10
REMARK    6  A    between atoms: C_11  and  C_13
REMARK                            x       y       z     vdW  Elec       q    Type
REMARK                         _______ _______ _______ _____ _____    ______ ____
ROOT
ATOM      1  C   UNL     1      45.273   5.383  11.318  0.00  0.00    +0.000 A 
ATOM      2  C   UNL     1      45.439   6.765  11.149  0.00  0.00    +0.000 A 
ATOM      3  C   UNL     1      46.298   7.485  11.984  0.00  0.00    +0.000 A 
ATOM      4  C   UNL     1      47.022   6.836  12.993  0.00  0.00    +0.000 A 
ATOM      5  C   UNL     1      46.867   5.453  13.153  0.00  0.00    +0.000 A 
ATOM      6  C   UNL     1      46.008   4.732  12.317  0.00  0.00    +0.000 A 
ENDROOT
BRANCH   1   7
ATOM      7  C   UNL     1      44.280   4.626  10.481  0.00  0.00    +0.000 C 
BRANCH   7  10
ATOM      8  O   UNL     1      45.823   4.964   8.205  0.00  0.00    +0.000 OA
ATOM      9  C   UNL     1      45.619   3.820   8.607  0.00  0.00    +0.000 C 
ATOM     10  N   UNL     1      44.861   3.550   9.725  0.00  0.00    +0.000 N 
ATOM     11  H   UNL     1      44.780   2.583  10.020  0.00  0.00    +0.000 HD
BRANCH   9  12
ATOM     12  C   UNL     1      46.170   2.656   7.944  0.00  0.00    +0.000 A 
ATOM     13  N   UNL     1      46.852   2.657   6.811  0.00  0.00    +0.000 NA
ATOM     14  C   UNL     1      47.189   1.340   6.589  0.00  0.00    +0.000 A 
ATOM     15  C   UNL     1      46.687   0.531   7.579  0.00  0.00    +0.000 A 
ATOM     16  N   UNL     1      46.048   1.379   8.437  0.00  0.00    +0.000 N 
ATOM     17  H   UNL     1      45.557   1.142   9.292  0.00  0.00    +0.000 HD
ENDBRANCH   9  12
ENDBRANCH   7  10
ENDBRANCH   1   7
BRANCH   4  18
ATOM     18  C   UNL     1      47.928   7.609  13.913  0.00  0.00    +0.000 C 
BRANCH  18  19
ATOM     19  N   UNL     1      47.934   7.060  15.246  0.00  0.00    +0.000 N 
ATOM     20  C   UNL     1      49.087   6.670  15.878  0.00  0.00    +0.000 C 
ATOM     21  O   UNL     1      50.187   6.745  15.337  0.00  0.00    +0.000 OA
ATOM     22  H   UNL     1      47.034   6.816  15.646  0.00  0.00    +0.000 HD
BRANCH  20  23
ATOM     23  C   UNL     1      48.957   6.224  17.274  0.00  0.00    +0.000 A 
ATOM     24  C   UNL     1      49.384   4.949  17.621  0.00  0.00    +0.000 A 
ATOM     25  S   UNL     1      49.211   4.593  19.278  0.00  0.00    +0.000 S 
ATOM     26  C   UNL     1      48.516   6.114  19.587  0.00  0.00    +0.000 A 
ATOM     27  N   UNL     1      48.104   6.449  20.839  0.00  0.00    +0.000 NA
ATOM     28  C   UNL     1      47.558   7.616  20.925  0.00  0.00    +0.000 A 
ATOM     29  N   UNL     1      47.399   8.483  19.876  0.00  0.00    +0.000 N 
ATOM     30  C   UNL     1      47.861   8.214  18.608  0.00  0.00    +0.000 A 
ATOM     31  O   UNL     1      47.803   9.058  17.719  0.00  0.00    +0.000 OA
ATOM     32  C   UNL     1      48.441   6.895  18.445  0.00  0.00    +0.000 A 
ATOM     33  H   UNL     1      46.985   9.393  20.017  0.00  0.00    +0.000 HD
ENDBRANCH  20  23
ENDBRANCH  18  19
ENDBRANCH   4  18
TORSDOF 6
ENDMDL
MODEL 3
REMARK VINA RESULT:    -6.936      1.962      2.803
REMARK INTER + INTRA:         -10.265
REMARK INTER:                  -9.494
REMARK INTRA:                  -0.771
REMARK UNBOUND:                -0.896
REMARK  Name = 
REMARK  6 active torsions:
REMARK  status: ('A' for Active; 'I' for Inactive)
REMARK    1  A    between atoms: C_2  and  C_25
REMARK    2  A    between atoms: N_3  and  C_4
REMARK    3  A    between atoms: C_4  and  C_5
REMARK    4  A    between atoms: C_8  and  C_9
REMARK    5  A    between atoms: C_9  and  N_10
REMARK    6  A    between atoms: C_11  and  C_13
REMARK                            x       y       z     vdW  Elec       q    Type
REMARK                         _______ _______ _______ _____ _____    ______ ____
ROOT
ATOM      1  C   UNL     1      44.953   5.055  11.603  0.00  0.00    +0.000 A 
ATOM      2  C   UNL     1      45.489   4.696  12.847  0.00  0.00    +0.000 A 
ATOM      3  C   UNL     1      46.340   5.568  13.533  0.00  0.00    +0.000 A 
ATOM      4  C   UNL     1      46.658   6.823  12.996  0.00  0.00    +0.000 A 
ATOM      5  C   UNL     1      46.112   7.187  11.759  0.00  0.00    +0.000 A 
ATOM      6  C   UNL     1      45.260   6.315  11.073  0.00  0.00    +0.000 A 
ENDROOT
BRANCH   1   7
ATOM      7  C   UNL     1      44.114   4.080  10.824  0.00  0.00    +0.000 C 
BRANCH   7  10
ATOM      8  O   UNL     1      44.940   4.483   8.209  0.00  0.00    +0.000 OA
ATOM      9  C   UNL     1      45.251   3.431   8.764  0.00  0.00    +0.000 C 
ATOM     10  N   UNL     1      44.884   3.137  10.059  0.00  0.00    +0.000 N 
ATOM     11  H   UNL     1      45.222   2.269  10.462  0.00  0.00    +0.000 HD
BRANCH   9  12
ATOM     12  C   UNL     1      46.044   2.413   8.106  0.00  0.00    +0.000 A 
ATOM     13  N   UNL     1      46.044   1.122   8.393  0.00  0.00    +0.000 NA
ATOM     14  C   UNL     1      46.923   0.551   7.499  0.00  0.00    +0.000 A 
ATOM     15  C   UNL     1      47.480   1.504   6.681  0.00  0.00    +0.000 A 
ATOM     16  N   UNL     1      46.908   2.681   7.071  0.00  0.00    +0.000 N 
ATOM     17  H   UNL     1      47.073   3.606   6.692  0.00  0.00    +0.000 HD
ENDBRANCH   9  12
ENDBRANCH   7  10
ENDBRANCH   1   7
BRANCH   4  18
ATOM     18  C   UNL     1      47.596   7.755  13.716  0.00  0.00    +0.000 C 
BRANCH  18  19
ATOM     19  N   UNL     1      48.596   7.037  14.465  0.00  0.00    +0.000 N 
ATOM     20  C   UNL     1      48.917   7.354  15.760  0.00  0.00    +0.000 C 
ATOM     21  O   UNL     1      48.385   8.288  16.356  0.00  0.00    +0.000 OA
ATOM     22  H   UNL     1      49.178   6.386  13.948  0.00  0.00    +0.000 HD
BRANCH  20  23
ATOM     23  C   UNL     1      49.880   6.473  16.437  0.00  0.00    +0.000 A 
ATOM     24  C   UNL     1      49.411   5.487  17.295  0.00  0.00    +0.000 A 
ATOM     25  S   UNL     1      50.641   4.519  17.968  0.00  0.00    +0.000 S 
ATOM     26  C   UNL     1      51.852   5.411  17.173  0.00  0.00    +0.000 A 
ATOM     27  N   UNL     1      53.166   5.108  17.348  0.00  0.00    +0.000 NA
ATOM     28  C   UNL     1      53.980   5.888  16.719  0.00  0.00    +0.000 A 
ATOM     29  N   UNL     1      53.598   6.935  15.922  0.00  0.00    +0.000 N 
ATOM     30  C   UNL     1      52.281   7.236  15.663  0.00  0.00    +0.000 A 
ATOM     31  O   UNL     1      51.975   8.107  14.854  0.00  0.00    +0.000 OA
ATOM     32  C   UNL     1      51.324   6.418  16.383  0.00  0.00    +0.000 A 
ATOM     33  H   UNL     1      54.287   7.493  15.438  0.00  0.00    +0.000 HD
ENDBRANCH  20  23
ENDBRANCH  18  19
ENDBRANCH   4  18
TORSDOF 6
ENDMDL
MODEL 4
REMARK VINA RESULT:    -6.733      1.401      1.947
REMARK INTER + INTRA:          -9.991
REMARK INTER:                  -9.204
REMARK INTRA:                  -0.787
REMARK UNBOUND:                -0.896
REMARK  Name = 
REMARK  6 active torsions:
REMARK  status: ('A' for Active; 'I' for Inactive)
REMARK    1  A    between atoms: C_2  and  C_25
REMARK    2  A    between atoms: N_3  and  C_4
REMARK    3  A    between atoms: C_4  and  C_5
REMARK    4  A    between atoms: C_8  and  C_9
REMARK    5  A    between atoms: C_9  and  N_10
REMARK    6  A    between atoms: C_11  and  C_13
REMARK                            x       y       z     vdW  Elec       q    Type
REMARK                         _______ _______ _______ _____ _____    ______ ____
ROOT
ATOM      1  C   UNL     1      45.800   6.853  11.628  0.00  0.00    +0.000 A 
ATOM      2  C   UNL     1      45.320   7.818  12.524  0.00  0.00    +0.000 A 
ATOM      3  C   UNL     1      46.204   8.548  13.325  0.00  0.00    +0.000 A 
ATOM      4  C   UNL     1      47.587   8.339  13.233  0.00  0.00    +0.000 A 
ATOM      5  C   UNL     1      48.068   7.384  12.328  0.00  0.00    +0.000 A 
ATOM      6  C   UNL     1      47.184   6.655  11.527  0.00  0.00    +0.000 A 
ENDROOT
BRANCH   1   7
ATOM      7  C   UNL     1      44.845   6.005  10.836  0.00  0.00    +0.000 C 
BRANCH   7  10
ATOM      8  O   UNL     1      44.031   3.489  10.006  0.00  0.00    +0.000 OA
ATOM      9  C   UNL     1      44.992   4.007   9.442  0.00  0.00    +0.000 C 
ATOM     10  N   UNL     1      45.474   5.251   9.786  0.00  0.00    +0.000 N 
ATOM     11  H   UNL     1      46.240   5.630   9.240  0.00  0.00    +0.000 HD
BRANCH   9  12
ATOM     12  C   UNL     1      45.695   3.357   8.355  0.00  0.00    +0.000 A 
ATOM     13  N   UNL     1      46.107   3.936   7.239  0.00  0.00    +0.000 NA
ATOM     14  C   UNL     1      46.740   2.943   6.526  0.00  0.00    +0.000 A 
ATOM     15  C   UNL     1      46.689   1.746   7.199  0.00  0.00    +0.000 A 
ATOM     16  N   UNL     1      46.030   2.024   8.362  0.00  0.00    +0.000 N 
ATOM     17  H   UNL     1      45.805   1.384   9.115  0.00  0.00    +0.000 HD
ENDBRANCH   9  12
ENDBRANCH   7  10
ENDBRANCH   1   7
BRANCH   4  18
ATOM     18  C   UNL     1      48.543   9.101  14.112  0.00  0.00    +0.000 C 
BRANCH  18  19
ATOM     19  N   UNL     1      48.579   8.569  15.452  0.00  0.00    +0.000 N 
ATOM     20  C   UNL     1      49.407   7.538  15.814  0.00  0.00    +0.000 C 
ATOM     21  O   UNL     1      50.156   6.988  15.011  0.00  0.00    +0.000 OA
ATOM     22  H   UNL     1      47.849   8.875  16.087  0.00  0.00    +0.000 HD
BRANCH  20  23
ATOM     23  C   UNL     1      49.415   7.166  17.237  0.00  0.00    +0.000 A 
ATOM     24  C   UNL     1      49.811   8.104  18.181  0.00  0.00    +0.000 A 
ATOM     25  S   UNL     1      49.725   7.542  19.787  0.00  0.00    +0.000 S 
ATOM     26  C   UNL     1      49.198   6.007  19.278  0.00  0.00    +0.000 A 
ATOM     27  N   UNL     1      48.960   5.019  20.182  0.00  0.00    +0.000 NA
ATOM     28  C   UNL     1      48.604   3.894  19.658  0.00  0.00    +0.000 A 
ATOM     29  N   UNL     1      48.453   3.671  18.315  0.00  0.00    +0.000 N 
ATOM     30  C   UNL     1      48.617   4.659  17.370  0.00  0.00    +0.000 A 
ATOM     31  O   UNL     1      48.363   4.454  16.187  0.00  0.00    +0.000 OA
ATOM     32  C   UNL     1      49.064   5.932  17.902  0.00  0.00    +0.000 A 
ATOM     33  H   UNL     1      48.148   2.772  17.972  0.00  0.00    +0.000 HD
ENDBRANCH  20  23
ENDBRANCH  18  19
ENDBRANCH   4  18
TORSDOF 6
ENDMDL
MODEL 5
REMARK VINA RESULT:    -6.670      4.038      5.084
REMARK INTER + INTRA:          -9.907
REMARK INTER:                  -9.214
REMARK INTRA:                  -0.693
REMARK UNBOUND:                -0.896
REMARK  Name = 
REMARK  6 active torsions:
REMARK  status: ('A' for Active; 'I' for Inactive)
REMARK    1  A    between atoms: C_2  and  C_25
REMARK    2  A    between atoms: N_3  and  C_4
REMARK    3  A    between atoms: C_4  and  C_5
REMARK    4  A    between atoms: C_8  and  C_9
REMARK    5  A    between atoms: C_9  and  N_10
REMARK    6  A    between atoms: C_11  and  C_13
REMARK                            x       y       z     vdW  Elec       q    Type
REMARK                         _______ _______ _______ _____ _____    ______ ____
ROOT
ATOM      1  C   UNL     1      44.402   4.592  11.585  0.00  0.00    +0.000 A 
ATOM      2  C   UNL     1      45.475   4.706  12.479  0.00  0.00    +0.000 A 
ATOM      3  C   UNL     1      45.888   5.961  12.937  0.00  0.00    +0.000 A 
ATOM      4  C   UNL     1      45.225   7.125  12.524  0.00  0.00    +0.000 A 
ATOM      5  C   UNL     1      44.144   7.009  11.642  0.00  0.00    +0.000 A 
ATOM      6  C   UNL     1      43.731   5.754  11.183  0.00  0.00    +0.000 A 
ENDROOT
BRANCH   1   7
ATOM      7  C   UNL     1      44.019   3.252  11.020  0.00  0.00    +0.000 C 
BRANCH   7  10
ATOM      8  O   UNL     1      44.338   4.042   8.383  0.00  0.00    +0.000 OA
ATOM      9  C   UNL     1      45.080   3.166   8.824  0.00  0.00    +0.000 C 
ATOM     10  N   UNL     1      44.995   2.703  10.119  0.00  0.00    +0.000 N 
ATOM     11  H   UNL     1      45.675   2.014  10.421  0.00  0.00    +0.000 HD
BRANCH   9  12
ATOM     12  C   UNL     1      46.117   2.553   8.021  0.00  0.00    +0.000 A 
ATOM     13  N   UNL     1      46.930   3.183   7.189  0.00  0.00    +0.000 NA
ATOM     14  C   UNL     1      47.755   2.206   6.677  0.00  0.00    +0.000 A 
ATOM     15  C   UNL     1      47.424   0.971   7.180  0.00  0.00    +0.000 A 
ATOM     16  N   UNL     1      46.388   1.206   8.038  0.00  0.00    +0.000 N 
ATOM     17  H   UNL     1      45.883   0.530   8.598  0.00  0.00    +0.000 HD
ENDBRANCH   9  12
ENDBRANCH   7  10
ENDBRANCH   1   7
BRANCH   4  18
ATOM     18  C   UNL     1      45.682   8.481  12.992  0.00  0.00    +0.000 C 
BRANCH  18  19
ATOM     19  N   UNL     1      46.806   8.961  12.228  0.00  0.00    +0.000 N 
ATOM     20  C   UNL     1      47.850   9.641  12.801  0.00  0.00    +0.000 C 
ATOM     21  O   UNL     1      47.880   9.904  14.000  0.00  0.00    +0.000 OA
ATOM     22  H   UNL     1      46.725   8.922  11.218  0.00  0.00    +0.000 HD
BRANCH  20  23
ATOM     23  C   UNL     1      48.979   9.981  11.921  0.00  0.00    +0.000 A 
ATOM     24  C   UNL     1      48.835  11.010  10.999  0.00  0.00    +0.000 A 
ATOM     25  S   UNL     1      50.240  11.315  10.085  0.00  0.00    +0.000 S 
ATOM     26  C   UNL     1      51.080  10.054  10.856  0.00  0.00    +0.000 A 
ATOM     27  N   UNL     1      52.362   9.759  10.508  0.00  0.00    +0.000 NA
ATOM     28  C   UNL     1      52.867   8.754  11.143  0.00  0.00    +0.000 A 
ATOM     29  N   UNL     1      52.212   8.027  12.102  0.00  0.00    +0.000 N 
ATOM     30  C   UNL     1      50.940   8.332  12.532  0.00  0.00    +0.000 A 
ATOM     31  O   UNL     1      50.427   7.731  13.471  0.00  0.00    +0.000 OA
ATOM     32  C   UNL     1      50.308   9.424  11.818  0.00  0.00    +0.000 A 
ATOM     33  H   UNL     1      52.674   7.266  12.578  0.00  0.00    +0.000 HD
ENDBRANCH  20  23
ENDBRANCH  18  19
ENDBRANCH   4  18
TORSDOF 6
ENDMDL
MODEL 6
REMARK VINA RESULT:    -6.565      3.706      8.720
REMARK INTER + INTRA:          -9.764
REMARK INTER:                  -8.754
REMARK INTRA:                  -1.010
REMARK UNBOUND:                -0.896
REMARK  Name = 
REMARK  6 active torsions:
REMARK  status: ('A' for Active; 'I' for Inactive)
REMARK    1  A    between atoms: C_2  and  C_25
REMARK    2  A    between atoms: N_3  and  C_4
REMARK    3  A    between atoms: C_4  and  C_5
REMARK    4  A    between atoms: C_8  and  C_9
REMARK    5  A    between atoms: C_9  and  N_10
REMARK    6  A    between atoms: C_11  and  C_13
REMARK                            x       y       z     vdW  Elec       q    Type
REMARK                         _______ _______ _______ _____ _____    ______ ____
ROOT
ATOM      1  C   UNL     1      49.715   5.268  17.437  0.00  0.00    +0.000 A 
ATOM      2  C   UNL     1      48.514   4.834  16.860  0.00  0.00    +0.000 A 
ATOM      3  C   UNL     1      48.010   5.455  15.714  0.00  0.00    +0.000 A 
ATOM      4  C   UNL     1      48.705   6.512  15.111  0.00  0.00    +0.000 A 
ATOM      5  C   UNL     1      49.913   6.937  15.679  0.00  0.00    +0.000 A 
ATOM      6  C   UNL     1      50.417   6.316  16.826  0.00  0.00    +0.000 A 
ENDROOT
BRANCH   1   7
ATOM      7  C   UNL     1      50.209   4.663  18.722  0.00  0.00    +0.000 C 
BRANCH   7  10
ATOM      8  O   UNL     1      52.975   4.557  18.605  0.00  0.00    +0.000 OA
ATOM      9  C   UNL     1      52.346   3.506  18.498  0.00  0.00    +0.000 C 
ATOM     10  N   UNL     1      50.970   3.457  18.538  0.00  0.00    +0.000 N 
ATOM     11  H   UNL     1      50.527   2.545  18.491  0.00  0.00    +0.000 HD
BRANCH   9  12
ATOM     12  C   UNL     1      53.001   2.225  18.332  0.00  0.00    +0.000 A 
ATOM     13  N   UNL     1      52.696   1.308  17.429  0.00  0.00    +0.000 NA
ATOM     14  C   UNL     1      53.594   0.283  17.635  0.00  0.00    +0.000 A 
ATOM     15  C   UNL     1      54.432   0.568  18.685  0.00  0.00    +0.000 A 
ATOM     16  N   UNL     1      54.050   1.807  19.115  0.00  0.00    +0.000 N 
ATOM     17  H   UNL     1      54.445   2.347  19.875  0.00  0.00    +0.000 HD
ENDBRANCH   9  12
ENDBRANCH   7  10
ENDBRANCH   1   7
BRANCH   4  18
ATOM     18  C   UNL     1      48.154   7.204  13.893  0.00  0.00    +0.000 C 
BRANCH  18  19
ATOM     19  N   UNL     1      47.348   6.317  13.092  0.00  0.00    +0.000 N 
ATOM     20  C   UNL     1      46.522   6.770  12.095  0.00  0.00    +0.000 C 
ATOM     21  O   UNL     1      46.402   7.965  11.837  0.00  0.00    +0.000 OA
ATOM     22  H   UNL     1      47.285   5.351  13.397  0.00  0.00    +0.000 HD
BRANCH  20  23
ATOM     23  C   UNL     1      45.837   5.747  11.289  0.00  0.00    +0.000 A 
ATOM     24  C   UNL     1      45.965   5.775   9.907  0.00  0.00    +0.000 A 
ATOM     25  S   UNL     1      45.152   4.503   9.115  0.00  0.00    +0.000 S 
ATOM     26  C   UNL     1      44.561   3.894  10.589  0.00  0.00    +0.000 A 
ATOM     27  N   UNL     1      43.753   2.800  10.614  0.00  0.00    +0.000 NA
ATOM     28  C   UNL     1      43.343   2.468  11.792  0.00  0.00    +0.000 A 
ATOM     29  N   UNL     1      43.679   3.122  12.948  0.00  0.00    +0.000 N 
ATOM     30  C   UNL     1      44.546   4.190  12.978  0.00  0.00    +0.000 A 
ATOM     31  O   UNL     1      44.913   4.681  14.041  0.00  0.00    +0.000 OA
ATOM     32  C   UNL     1      44.999   4.634  11.674  0.00  0.00    +0.000 A 
ATOM     33  H   UNL     1      43.343   2.796  13.842  0.00  0.00    +0.000 HD
ENDBRANCH  20  23
ENDBRANCH  18  19
ENDBRANCH   4  18
TORSDOF 6
ENDMDL
MODEL 7
REMARK VINA RESULT:    -6.496      2.459      3.553
REMARK INTER + INTRA:          -9.670
REMARK INTER:                  -8.710
REMARK INTRA:                  -0.961
REMARK UNBOUND:                -0.896
REMARK  Name = 
REMARK  6 active torsions:
REMARK  status: ('A' for Active; 'I' for Inactive)
REMARK    1  A    between atoms: C_2  and  C_25
REMARK    2  A    between atoms: N_3  and  C_4
REMARK    3  A    between atoms: C_4  and  C_5
REMARK    4  A    between atoms: C_8  and  C_9
REMARK    5  A    between atoms: C_9  and  N_10
REMARK    6  A    between atoms: C_11  and  C_13
REMARK                            x       y       z     vdW  Elec       q    Type
REMARK                         _______ _______ _______ _____ _____    ______ ____
ROOT
ATOM      1  C   UNL     1      46.061   7.366  12.319  0.00  0.00    +0.000 A 
ATOM      2  C   UNL     1      46.113   8.608  12.966  0.00  0.00    +0.000 A 
ATOM      3  C   UNL     1      47.105   8.874  13.915  0.00  0.00    +0.000 A 
ATOM      4  C   UNL     1      48.074   7.910  14.224  0.00  0.00    +0.000 A 
ATOM      5  C   UNL     1      48.031   6.674  13.567  0.00  0.00    +0.000 A 
ATOM      6  C   UNL     1      47.040   6.408  12.617  0.00  0.00    +0.000 A 
ENDROOT
BRANCH   1   7
ATOM      7  C   UNL     1      44.941   7.046  11.368  0.00  0.00    +0.000 C 
BRANCH   7  10
ATOM      8  O   UNL     1      43.795   4.523  11.353  0.00  0.00    +0.000 OA
ATOM      9  C   UNL     1      44.633   4.789  10.493  0.00  0.00    +0.000 C 
ATOM     10  N   UNL     1      45.262   6.012  10.422  0.00  0.00    +0.000 N 
ATOM     11  H   UNL     1      45.906   6.170   9.654  0.00  0.00    +0.000 HD
BRANCH   9  12
ATOM     12  C   UNL     1      45.023   3.839   9.472  0.00  0.00    +0.000 A 
ATOM     13  N   UNL     1      45.341   4.130   8.222  0.00  0.00    +0.000 NA
ATOM     14  C   UNL     1      45.665   2.924   7.639  0.00  0.00    +0.000 A 
ATOM     15  C   UNL     1      45.517   1.892   8.533  0.00  0.00    +0.000 A 
ATOM     16  N   UNL     1      45.117   2.486   9.695  0.00  0.00    +0.000 N 
ATOM     17  H   UNL     1      44.911   2.039  10.581  0.00  0.00    +0.000 HD
ENDBRANCH   9  12
ENDBRANCH   7  10
ENDBRANCH   1   7
BRANCH   4  18
ATOM     18  C   UNL     1      49.128   8.180  15.264  0.00  0.00    +0.000 C 
BRANCH  18  19
ATOM     19  N   UNL     1      49.740   6.963  15.736  0.00  0.00    +0.000 N 
ATOM     20  C   UNL     1      49.339   6.333  16.886  0.00  0.00    +0.000 C 
ATOM     21  O   UNL     1      48.445   6.781  17.599  0.00  0.00    +0.000 OA
ATOM     22  H   UNL     1      50.594   6.670  15.273  0.00  0.00    +0.000 HD
BRANCH  20  23
ATOM     23  C   UNL     1      49.980   5.046  17.192  0.00  0.00    +0.000 A 
ATOM     24  C   UNL     1      49.198   3.902  17.281  0.00  0.00    +0.000 A 
ATOM     25  S   UNL     1      50.087   2.483  17.597  0.00  0.00    +0.000 S 
ATOM     26  C   UNL     1      51.547   3.351  17.672  0.00  0.00    +0.000 A 
ATOM     27  N   UNL     1      52.720   2.717  17.943  0.00  0.00    +0.000 NA
ATOM     28  C   UNL     1      53.744   3.499  18.010  0.00  0.00    +0.000 A 
ATOM     29  N   UNL     1      53.705   4.855  17.817  0.00  0.00    +0.000 N 
ATOM     30  C   UNL     1      52.555   5.528  17.475  0.00  0.00    +0.000 A 
ATOM     31  O   UNL     1      52.578   6.724  17.199  0.00  0.00    +0.000 OA
ATOM     32  C   UNL     1      51.364   4.703  17.432  0.00  0.00    +0.000 A 
ATOM     33  H   UNL     1      54.550   5.407  17.860  0.00  0.00    +0.000 HD
ENDBRANCH  20  23
ENDBRANCH  18  19
ENDBRANCH   4  18
TORSDOF 6
ENDMDL
MODEL 8
REMARK VINA RESULT:    -6.369      3.437      3.831
REMARK INTER + INTRA:          -9.500
REMARK INTER:                  -8.993
REMARK INTRA:                  -0.507
REMARK UNBOUND:                -0.896
REMARK  Name = 
REMARK  6 active torsions:
REMARK  status: ('A' for Active; 'I' for Inactive)
REMARK    1  A    between atoms: C_2  and  C_25
REMARK    2  A    between atoms: N_3  and  C_4
REMARK    3  A    between atoms: C_4  and  C_5
REMARK    4  A    between atoms: C_8  and  C_9
REMARK    5  A    between atoms: C_9  and  N_10
REMARK    6  A    between atoms: C_11  and  C_13
REMARK                            x       y       z     vdW  Elec       q    Type
REMARK                         _______ _______ _______ _____ _____    ______ ____
ROOT
ATOM      1  C   UNL     1      44.368   4.445  11.458  0.00  0.00    +0.000 A 
ATOM      2  C   UNL     1      45.416   5.172  10.876  0.00  0.00    +0.000 A 
ATOM      3  C   UNL     1      45.736   6.452  11.338  0.00  0.00    +0.000 A 
ATOM      4  C   UNL     1      45.028   7.023  12.404  0.00  0.00    +0.000 A 
ATOM      5  C   UNL     1      43.990   6.292  12.995  0.00  0.00    +0.000 A 
ATOM      6  C   UNL     1      43.669   5.012  12.532  0.00  0.00    +0.000 A 
ENDROOT
BRANCH   1   7
ATOM      7  C   UNL     1      43.963   3.109  10.900  0.00  0.00    +0.000 C 
BRANCH   7  10
ATOM      8  O   UNL     1      44.258   3.537   8.178  0.00  0.00    +0.000 OA
ATOM      9  C   UNL     1      45.042   2.773   8.737  0.00  0.00    +0.000 C 
ATOM     10  N   UNL     1      44.974   2.493  10.084  0.00  0.00    +0.000 N 
ATOM     11  H   UNL     1      45.688   1.890  10.479  0.00  0.00    +0.000 HD
BRANCH   9  12
ATOM     12  C   UNL     1      46.117   2.110   8.027  0.00  0.00    +0.000 A 
ATOM     13  N   UNL     1      46.372   0.813   8.039  0.00  0.00    +0.000 NA
ATOM     14  C   UNL     1      47.458   0.648   7.208  0.00  0.00    +0.000 A 
ATOM     15  C   UNL     1      47.881   1.855   6.709  0.00  0.00    +0.000 A 
ATOM     16  N   UNL     1      47.018   2.775   7.230  0.00  0.00    +0.000 N 
ATOM     17  H   UNL     1      47.016   3.777   7.081  0.00  0.00    +0.000 HD
ENDBRANCH   9  12
ENDBRANCH   7  10
ENDBRANCH   1   7
BRANCH   4  18
ATOM     18  C   UNL     1      45.350   8.412  12.888  0.00  0.00    +0.000 C 
BRANCH  18  19
ATOM     19  N   UNL     1      46.600   8.453  13.605  0.00  0.00    +0.000 N 
ATOM     20  C   UNL     1      47.682   9.169  13.160  0.00  0.00    +0.000 C 
ATOM     21  O   UNL     1      47.658   9.803  12.108  0.00  0.00    +0.000 OA
ATOM     22  H   UNL     1      46.711   7.799  14.373  0.00  0.00    +0.000 HD
BRANCH  20  23
ATOM     23  C   UNL     1      48.858   9.206  14.042  0.00  0.00    +0.000 A 
ATOM     24  C   UNL     1      48.722   9.699  15.333  0.00  0.00    +0.000 A 
ATOM     25  S   UNL     1      50.158   9.636  16.248  0.00  0.00    +0.000 S 
ATOM     26  C   UNL     1      51.027   8.989  14.937  0.00  0.00    +0.000 A 
ATOM     27  N   UNL     1      52.356   8.720  15.050  0.00  0.00    +0.000 NA
ATOM     28  C   UNL     1      52.901   8.271  13.969  0.00  0.00    +0.000 A 
ATOM     29  N   UNL     1      52.236   8.054  12.791  0.00  0.00    +0.000 N 
ATOM     30  C   UNL     1      50.881   8.248  12.652  0.00  0.00    +0.000 A 
ATOM     31  O   UNL     1      50.298   7.936  11.617  0.00  0.00    +0.000 OA
ATOM     32  C   UNL     1      50.227   8.798  13.824  0.00  0.00    +0.000 A 
ATOM     33  H   UNL     1      52.718   7.677  11.988  0.00  0.00    +0.000 HD
ENDBRANCH  20  23
ENDBRANCH  18  19
ENDBRANCH   4  18
TORSDOF 6
ENDMDL
MODEL 9
REMARK VINA RESULT:    -6.328      2.029      2.929
REMARK INTER + INTRA:          -9.444
REMARK INTER:                  -8.476
REMARK INTRA:                  -0.967
REMARK UNBOUND:                -0.896
REMARK  Name = 
REMARK  6 active torsions:
REMARK  status: ('A' for Active; 'I' for Inactive)
REMARK    1  A    between atoms: C_2  and  C_25
REMARK    2  A    between atoms: N_3  and  C_4
REMARK    3  A    between atoms: C_4  and  C_5
REMARK    4  A    between atoms: C_8  and  C_9
REMARK    5  A    between atoms: C_9  and  N_10
REMARK    6  A    between atoms: C_11  and  C_13
REMARK                            x       y       z     vdW  Elec       q    Type
REMARK                         _______ _______ _______ _____ _____    ______ ____
ROOT
ATOM      1  C   UNL     1      46.230   7.724  12.141  0.00  0.00    +0.000 A 
ATOM      2  C   UNL     1      46.311   8.579  13.248  0.00  0.00    +0.000 A 
ATOM      3  C   UNL     1      47.547   8.870  13.833  0.00  0.00    +0.000 A 
ATOM      4  C   UNL     1      48.728   8.326  13.313  0.00  0.00    +0.000 A 
ATOM      5  C   UNL     1      48.649   7.483  12.197  0.00  0.00    +0.000 A 
ATOM      6  C   UNL     1      47.414   7.192  11.612  0.00  0.00    +0.000 A 
ENDROOT
BRANCH   1   7
ATOM      7  C   UNL     1      44.894   7.337  11.570  0.00  0.00    +0.000 C 
BRANCH   7  10
ATOM      8  O   UNL     1      44.576   4.676  12.273  0.00  0.00    +0.000 OA
ATOM      9  C   UNL     1      44.780   4.947  11.091  0.00  0.00    +0.000 C 
ATOM     10  N   UNL     1      44.956   6.238  10.645  0.00  0.00    +0.000 N 
ATOM     11  H   UNL     1      45.071   6.384   9.648  0.00  0.00    +0.000 HD
BRANCH   9  12
ATOM     12  C   UNL     1      44.841   3.930  10.062  0.00  0.00    +0.000 A 
ATOM     13  N   UNL     1      45.171   4.124   8.796  0.00  0.00    +0.000 NA
ATOM     14  C   UNL     1      45.116   2.878   8.211  0.00  0.00    +0.000 A 
ATOM     15  C   UNL     1      44.724   1.926   9.120  0.00  0.00    +0.000 A 
ATOM     16  N   UNL     1      44.560   2.604  10.293  0.00  0.00    +0.000 N 
ATOM     17  H   UNL     1      44.276   2.230  11.191  0.00  0.00    +0.000 HD
ENDBRANCH   9  12
ENDBRANCH   7  10
ENDBRANCH   1   7
BRANCH   4  18
ATOM     18  C   UNL     1      50.059   8.613  13.955  0.00  0.00    +0.000 C 
BRANCH  18  19
ATOM     19  N   UNL     1      50.553   7.479  14.694  0.00  0.00    +0.000 N 
ATOM     20  C   UNL     1      50.937   7.565  16.008  0.00  0.00    +0.000 C 
ATOM     21  O   UNL     1      50.903   8.623  16.631  0.00  0.00    +0.000 OA
ATOM     22  H   UNL     1      50.765   6.641  14.162  0.00  0.00    +0.000 HD
BRANCH  20  23
ATOM     23  C   UNL     1      51.323   6.309  16.667  0.00  0.00    +0.000 A 
ATOM     24  C   UNL     1      52.636   6.139  17.088  0.00  0.00    +0.000 A 
ATOM     25  S   UNL     1      52.919   4.653  17.873  0.00  0.00    +0.000 S 
ATOM     26  C   UNL     1      51.308   4.162  17.640  0.00  0.00    +0.000 A 
ATOM     27  N   UNL     1      50.886   2.941  18.066  0.00  0.00    +0.000 NA
ATOM     28  C   UNL     1      49.652   2.679  17.790  0.00  0.00    +0.000 A 
ATOM     29  N   UNL     1      48.800   3.531  17.139  0.00  0.00    +0.000 N 
ATOM     30  C   UNL     1      49.164   4.800  16.751  0.00  0.00    +0.000 A 
ATOM     31  O   UNL     1      48.344   5.578  16.273  0.00  0.00    +0.000 OA
ATOM     32  C   UNL     1      50.555   5.129  16.995  0.00  0.00    +0.000 A 
ATOM     33  H   UNL     1      47.838   3.274  16.976  0.00  0.00    +0.000 HD
ENDBRANCH  20  23
ENDBRANCH  18  19
ENDBRANCH   4  18
TORSDOF 6
ENDMDL
