MODEL 1
REMARK VINA RESULT:    -8.616      0.000      0.000
REMARK INTER + INTRA:         -12.481
REMARK INTER:                 -11.638
REMARK INTRA:                  -0.843
REMARK UNBOUND:                -0.843
REMARK  Name = 
REMARK  6 active torsions:
REMARK  status: ('A' for Active; 'I' for Inactive)
REMARK    1  A    between atoms: C_2  and  C_19
REMARK    2  A    between atoms: N_3  and  C_4
REMARK    3  A    between atoms: C_4  and  C_5
REMARK    4  A    between atoms: C_8  and  O_9
REMARK    5  A    between atoms: O_9  and  C_10
REMARK    6  A    between atoms: C_10  and  C_11
REMARK                            x       y       z     vdW  Elec       q    Type
REMARK                         _______ _______ _______ _____ _____    ______ ____
ROOT
ATOM      1  O   UNL     1      48.859   6.380  13.143  0.00  0.00    +0.000 OA
ATOM      2  C   UNL     1      48.273   6.681  14.180  0.00  0.00    +0.000 C 
ATOM      3  N   UNL     1      47.122   7.425  14.179  0.00  0.00    +0.000 N 
ATOM      4  H   UNL     1      46.754   7.778  15.056  0.00  0.00    +0.000 HD
ENDROOT
BRANCH   2   5
ATOM      5  C   UNL     1      48.744   6.212  15.488  0.00  0.00    +0.000 A 
ATOM      6  C   UNL     1      49.733   6.924  16.157  0.00  0.00    +0.000 A 
ATOM      7  S   UNL     1      50.168   6.245  17.659  0.00  0.00    +0.000 S 
ATOM      8  C   UNL     1      49.018   5.003  17.492  0.00  0.00    +0.000 A 
ATOM      9  N   UNL     1      48.841   4.076  18.472  0.00  0.00    +0.000 NA
ATOM     10  C   UNL     1      47.907   3.218  18.235  0.00  0.00    +0.000 A 
ATOM     11  N   UNL     1      47.145   3.190  17.096  0.00  0.00    +0.000 N 
ATOM     12  C   UNL     1      47.345   4.052  16.045  0.00  0.00    +0.000 A 
ATOM     13  O   UNL     1      46.748   3.911  14.980  0.00  0.00    +0.000 OA
ATOM     14  C   UNL     1      48.342   5.082  16.288  0.00  0.00    +0.000 A 
ATOM     15  H   UNL     1      46.452   2.470  16.957  0.00  0.00    +0.000 HD
ENDBRANCH   2   5
BRANCH   3  16
ATOM     16  C   UNL     1      46.530   7.931  12.968  0.00  0.00    +0.000 C 
BRANCH  16  17
ATOM     17  C   UNL     1      45.907   6.842  12.147  0.00  0.00    +0.000 A 
ATOM     18  C   UNL     1      46.234   6.660  10.800  0.00  0.00    +0.000 A 
ATOM     19  C   UNL     1      45.667   5.606  10.087  0.00  0.00    +0.000 A 
ATOM     20  C   UNL     1      44.797   4.757  10.750  0.00  0.00    +0.000 A 
ATOM     21  N   UNL     1      44.428   4.924  12.039  0.00  0.00    +0.000 NA
ATOM     22  C   UNL     1      44.979   5.967  12.699  0.00  0.00    +0.000 A 
BRANCH  20  23
ATOM     23  O   UNL     1      44.277   3.700  10.029  0.00  0.00    +0.000 OA
BRANCH  23  24
ATOM     24  C   UNL     1      44.430   3.899   8.620  0.00  0.00    +0.000 C 
BRANCH  24  25
ATOM     25  C   UNL     1      45.467   2.966   8.050  0.00  0.00    +0.000 A 
ATOM     26  C   UNL     1      46.429   3.431   7.145  0.00  0.00    +0.000 A 
ATOM     27  C   UNL     1      47.432   2.576   6.697  0.00  0.00    +0.000 A 
ATOM     28  C   UNL     1      47.448   1.279   7.176  0.00  0.00    +0.000 A 
ATOM     29  N   UNL     1      46.549   0.794   8.057  0.00  0.00    +0.000 NA
ATOM     30  C   UNL     1      45.584   1.648   8.476  0.00  0.00    +0.000 A 
ENDBRANCH  24  25
ENDBRANCH  23  24
ENDBRANCH  20  23
ENDBRANCH  16  17
ENDBRANCH   3  16
TORSDOF 6
ENDMDL
MODEL 2
REMARK VINA RESULT:    -7.718      2.229      3.764
REMARK INTER + INTRA:         -11.268
REMARK INTER:                 -10.125
REMARK INTRA:                  -1.143
REMARK UNBOUND:                -0.843
REMARK  Name = 
REMARK  6 active torsions:
REMARK  status: ('A' for Active; 'I' for Inactive)
REMARK    1  A    between atoms: C_2  and  C_19
REMARK    2  A    between atoms: N_3  and  C_4
REMARK    3  A    between atoms: C_4  and  C_5
REMARK    4  A    between atoms: C_8  and  O_9
REMARK    5  A    between atoms: O_9  and  C_10
REMARK    6  A    between atoms: C_10  and  C_11
REMARK                            x       y       z     vdW  Elec       q    Type
REMARK                         _______ _______ _______ _____ _____    ______ ____
ROOT
ATOM      1  O   UNL     1      48.930   5.306  16.050  0.00  0.00    +0.000 OA
ATOM      2  C   UNL     1      48.531   6.207  15.316  0.00  0.00    +0.000 C 
ATOM      3  N   UNL     1      47.455   6.047  14.482  0.00  0.00    +0.000 N 
ATOM      4  H   UNL     1      47.252   6.758  13.788  0.00  0.00    +0.000 HD
ENDROOT
BRANCH   2   5
ATOM      5  C   UNL     1      49.152   7.536  15.330  0.00  0.00    +0.000 A 
ATOM      6  C   UNL     1      49.240   8.241  16.525  0.00  0.00    +0.000 A 
ATOM      7  S   UNL     1      49.984   9.766  16.367  0.00  0.00    +0.000 S 
ATOM      8  C   UNL     1      50.258   9.522  14.706  0.00  0.00    +0.000 A 
ATOM      9  N   UNL     1      50.908  10.455  13.960  0.00  0.00    +0.000 NA
ATOM     10  C   UNL     1      51.086  10.123  12.725  0.00  0.00    +0.000 A 
ATOM     11  N   UNL     1      50.655   8.948  12.164  0.00  0.00    +0.000 N 
ATOM     12  C   UNL     1      49.923   8.016  12.858  0.00  0.00    +0.000 A 
ATOM     13  O   UNL     1      49.425   7.045  12.294  0.00  0.00    +0.000 OA
ATOM     14  C   UNL     1      49.751   8.312  14.271  0.00  0.00    +0.000 A 
ATOM     15  H   UNL     1      50.797   8.764  11.182  0.00  0.00    +0.000 HD
ENDBRANCH   2   5
BRANCH   3  16
ATOM     16  C   UNL     1      46.732   4.807  14.383  0.00  0.00    +0.000 C 
BRANCH  16  17
ATOM     17  C   UNL     1      46.079   4.641  13.043  0.00  0.00    +0.000 A 
ATOM     18  C   UNL     1      46.060   5.675  12.102  0.00  0.00    +0.000 A 
ATOM     19  C   UNL     1      45.484   5.461  10.852  0.00  0.00    +0.000 A 
ATOM     20  C   UNL     1      44.955   4.211  10.577  0.00  0.00    +0.000 A 
ATOM     21  N   UNL     1      44.921   3.201  11.473  0.00  0.00    +0.000 NA
ATOM     22  C   UNL     1      45.468   3.445  12.685  0.00  0.00    +0.000 A 
BRANCH  20  23
ATOM     23  O   UNL     1      44.422   4.017   9.318  0.00  0.00    +0.000 OA
BRANCH  23  24
ATOM     24  C   UNL     1      44.502   2.645   8.919  0.00  0.00    +0.000 C 
BRANCH  24  25
ATOM     25  C   UNL     1      45.638   2.426   7.953  0.00  0.00    +0.000 A 
ATOM     26  C   UNL     1      46.031   3.438   7.069  0.00  0.00    +0.000 A 
ATOM     27  C   UNL     1      47.138   3.250   6.246  0.00  0.00    +0.000 A 
ATOM     28  C   UNL     1      47.826   2.053   6.338  0.00  0.00    +0.000 A 
ATOM     29  N   UNL     1      47.489   1.058   7.184  0.00  0.00    +0.000 NA
ATOM     30  C   UNL     1      46.408   1.268   7.973  0.00  0.00    +0.000 A 
ENDBRANCH  24  25
ENDBRANCH  23  24
ENDBRANCH  20  23
ENDBRANCH  16  17
ENDBRANCH   3  16
TORSDOF 6
ENDMDL
MODEL 3
REMARK VINA RESULT:    -7.346      3.277      7.815
REMARK INTER + INTRA:         -10.766
REMARK INTER:                  -9.835
REMARK INTRA:                  -0.931
REMARK UNBOUND:                -0.843
REMARK  Name = 
REMARK  6 active torsions:
REMARK  status: ('A' for Active; 'I' for Inactive)
REMARK    1  A    between atoms: C_2  and  C_19
REMARK    2  A    between atoms: N_3  and  C_4
REMARK    3  A    between atoms: C_4  and  C_5
REMARK    4  A    between atoms: C_8  and  O_9
REMARK    5  A    between atoms: O_9  and  C_10
REMARK    6  A    between atoms: C_10  and  C_11
REMARK                            x       y       z     vdW  Elec       q    Type
REMARK                         _______ _______ _______ _____ _____    ______ ____
ROOT
ATOM      1  O   UNL     1      45.590   7.864  11.860  0.00  0.00    +0.000 OA
ATOM      2  C   UNL     1      46.252   6.881  11.535  0.00  0.00    +0.000 C 
ATOM      3  N   UNL     1      47.587   6.772  11.823  0.00  0.00    +0.000 N 
ATOM      4  H   UNL     1      48.128   6.020  11.410  0.00  0.00    +0.000 HD
ENDROOT
BRANCH   2   5
ATOM      5  C   UNL     1      45.636   5.731  10.864  0.00  0.00    +0.000 A 
ATOM      6  C   UNL     1      45.849   5.534   9.505  0.00  0.00    +0.000 A 
ATOM      7  S   UNL     1      45.061   4.158   8.880  0.00  0.00    +0.000 S 
ATOM      8  C   UNL     1      44.444   3.748  10.412  0.00  0.00    +0.000 A 
ATOM      9  N   UNL     1      43.696   2.626  10.588  0.00  0.00    +0.000 NA
ATOM     10  C   UNL     1      43.330   2.413  11.807  0.00  0.00    +0.000 A 
ATOM     11  N   UNL     1      43.628   3.232  12.865  0.00  0.00    +0.000 N 
ATOM     12  C   UNL     1      44.308   4.417  12.721  0.00  0.00    +0.000 A 
ATOM     13  O   UNL     1      44.433   5.201  13.658  0.00  0.00    +0.000 OA
ATOM     14  C   UNL     1      44.801   4.672  11.377  0.00  0.00    +0.000 A 
ATOM     15  H   UNL     1      43.282   3.026  13.790  0.00  0.00    +0.000 HD
ENDBRANCH   2   5
BRANCH   3  16
ATOM     16  C   UNL     1      48.319   7.811  12.500  0.00  0.00    +0.000 C 
BRANCH  16  17
ATOM     17  C   UNL     1      48.917   7.331  13.789  0.00  0.00    +0.000 A 
ATOM     18  C   UNL     1      50.139   7.821  14.259  0.00  0.00    +0.000 A 
ATOM     19  C   UNL     1      50.635   7.382  15.485  0.00  0.00    +0.000 A 
ATOM     20  C   UNL     1      49.883   6.473  16.210  0.00  0.00    +0.000 A 
ATOM     21  N   UNL     1      48.718   5.948  15.771  0.00  0.00    +0.000 NA
ATOM     22  C   UNL     1      48.273   6.377  14.569  0.00  0.00    +0.000 A 
BRANCH  20  23
ATOM     23  O   UNL     1      50.382   6.081  17.437  0.00  0.00    +0.000 OA
BRANCH  23  24
ATOM     24  C   UNL     1      49.688   4.937  17.946  0.00  0.00    +0.000 C 
BRANCH  24  25
ATOM     25  C   UNL     1      50.472   3.674  17.701  0.00  0.00    +0.000 A 
ATOM     26  C   UNL     1      51.808   3.571  18.108  0.00  0.00    +0.000 A 
ATOM     27  C   UNL     1      52.490   2.367  17.953  0.00  0.00    +0.000 A 
ATOM     28  C   UNL     1      51.810   1.296  17.401  0.00  0.00    +0.000 A 
ATOM     29  N   UNL     1      50.521   1.350  17.006  0.00  0.00    +0.000 NA
ATOM     30  C   UNL     1      49.882   2.533  17.169  0.00  0.00    +0.000 A 
ENDBRANCH  24  25
ENDBRANCH  23  24
ENDBRANCH  20  23
ENDBRANCH  16  17
ENDBRANCH   3  16
TORSDOF 6
ENDMDL
MODEL 4
REMARK VINA RESULT:    -7.214      2.125      3.432
REMARK INTER + INTRA:         -10.587
REMARK INTER:                  -9.634
REMARK INTRA:                  -0.953
REMARK UNBOUND:                -0.843
REMARK  Name = 
REMARK  6 active torsions:
REMARK  status: ('A' for Active; 'I' for Inactive)
REMARK    1  A    between atoms: C_2  and  C_19
REMARK    2  A    between atoms: N_3  and  C_4
REMARK    3  A    between atoms: C_4  and  C_5
REMARK    4  A    between atoms: C_8  and  O_9
REMARK    5  A    between atoms: O_9  and  C_10
REMARK    6  A    between atoms: C_10  and  C_11
REMARK                            x       y       z     vdW  Elec       q    Type
REMARK                         _______ _______ _______ _____ _____    ______ ____
ROOT
ATOM      1  O   UNL     1      49.114   4.169  16.828  0.00  0.00    +0.000 OA
ATOM      2  C   UNL     1      48.418   5.148  16.569  0.00  0.00    +0.000 C 
ATOM      3  N   UNL     1      47.437   5.114  15.613  0.00  0.00    +0.000 N 
ATOM      4  H   UNL     1      46.989   5.978  15.325  0.00  0.00    +0.000 HD
ENDROOT
BRANCH   2   5
ATOM      5  C   UNL     1      48.558   6.404  17.313  0.00  0.00    +0.000 A 
ATOM      6  C   UNL     1      48.399   6.406  18.694  0.00  0.00    +0.000 A 
ATOM      7  S   UNL     1      48.590   7.944  19.404  0.00  0.00    +0.000 S 
ATOM      8  C   UNL     1      48.939   8.656  17.899  0.00  0.00    +0.000 A 
ATOM      9  N   UNL     1      49.242   9.978  17.803  0.00  0.00    +0.000 NA
ATOM     10  C   UNL     1      49.527  10.377  16.609  0.00  0.00    +0.000 A 
ATOM     11  N   UNL     1      49.517   9.575  15.496  0.00  0.00    +0.000 N 
ATOM     12  C   UNL     1      49.136   8.256  15.532  0.00  0.00    +0.000 A 
ATOM     13  O   UNL     1      48.995   7.603  14.501  0.00  0.00    +0.000 OA
ATOM     14  C   UNL     1      48.868   7.740  16.865  0.00  0.00    +0.000 A 
ATOM     15  H   UNL     1      49.717   9.958  14.584  0.00  0.00    +0.000 HD
ENDBRANCH   2   5
BRANCH   3  16
ATOM     16  C   UNL     1      47.168   3.942  14.822  0.00  0.00    +0.000 C 
BRANCH  16  17
ATOM     17  C   UNL     1      46.514   4.280  13.516  0.00  0.00    +0.000 A 
ATOM     18  C   UNL     1      46.765   5.490  12.861  0.00  0.00    +0.000 A 
ATOM     19  C   UNL     1      46.173   5.743  11.625  0.00  0.00    +0.000 A 
ATOM     20  C   UNL     1      45.356   4.769  11.077  0.00  0.00    +0.000 A 
ATOM     21  N   UNL     1      45.060   3.606  11.697  0.00  0.00    +0.000 NA
ATOM     22  C   UNL     1      45.632   3.397  12.904  0.00  0.00    +0.000 A 
BRANCH  20  23
ATOM     23  O   UNL     1      44.810   5.031   9.835  0.00  0.00    +0.000 OA
BRANCH  23  24
ATOM     24  C   UNL     1      44.338   3.836   9.205  0.00  0.00    +0.000 C 
BRANCH  24  25
ATOM     25  C   UNL     1      45.454   3.130   8.478  0.00  0.00    +0.000 A 
ATOM     26  C   UNL     1      45.645   1.751   8.627  0.00  0.00    +0.000 A 
ATOM     27  C   UNL     1      46.625   1.102   7.881  0.00  0.00    +0.000 A 
ATOM     28  C   UNL     1      47.381   1.853   6.999  0.00  0.00    +0.000 A 
ATOM     29  N   UNL     1      47.222   3.180   6.817  0.00  0.00    +0.000 NA
ATOM     30  C   UNL     1      46.261   3.786   7.555  0.00  0.00    +0.000 A 
ENDBRANCH  24  25
ENDBRANCH  23  24
ENDBRANCH  20  23
ENDBRANCH  16  17
ENDBRANCH   3  16
TORSDOF 6
ENDMDL
MODEL 5
REMARK VINA RESULT:    -6.941      3.500      8.150
REMARK INTER + INTRA:         -10.218
REMARK INTER:                  -9.288
REMARK INTRA:                  -0.931
REMARK UNBOUND:                -0.843
REMARK  Name = 
REMARK  6 active torsions:
REMARK  status: ('A' for Active; 'I' for Inactive)
REMARK    1  A    between atoms: C_2  and  C_19
REMARK    2  A    between atoms: N_3  and  C_4
REMARK    3  A    between atoms: C_4  and  C_5
REMARK    4  A    between atoms: C_8  and  O_9
REMARK    5  A    between atoms: O_9  and  C_10
REMARK    6  A    between atoms: C_10  and  C_11
REMARK                            x       y       z     vdW  Elec       q    Type
REMARK                         _______ _______ _______ _____ _____    ______ ____
ROOT
ATOM      1  O   UNL     1      47.679   6.821  11.668  0.00  0.00    +0.000 OA
ATOM      2  C   UNL     1      46.746   6.755  12.464  0.00  0.00    +0.000 C 
ATOM      3  N   UNL     1      46.847   7.224  13.748  0.00  0.00    +0.000 N 
ATOM      4  H   UNL     1      46.112   7.016  14.415  0.00  0.00    +0.000 HD
ENDROOT
BRANCH   2   5
ATOM      5  C   UNL     1      45.439   6.218  12.069  0.00  0.00    +0.000 A 
ATOM      6  C   UNL     1      44.497   7.061  11.491  0.00  0.00    +0.000 A 
ATOM      7  S   UNL     1      43.033   6.282  11.094  0.00  0.00    +0.000 S 
ATOM      8  C   UNL     1      43.621   4.781  11.637  0.00  0.00    +0.000 A 
ATOM      9  N   UNL     1      42.862   3.657  11.542  0.00  0.00    +0.000 NA
ATOM     10  C   UNL     1      43.447   2.580  11.951  0.00  0.00    +0.000 A 
ATOM     11  N   UNL     1      44.717   2.530  12.465  0.00  0.00    +0.000 N 
ATOM     12  C   UNL     1      45.487   3.652  12.657  0.00  0.00    +0.000 A 
ATOM     13  O   UNL     1      46.560   3.596  13.253  0.00  0.00    +0.000 OA
ATOM     14  C   UNL     1      44.901   4.882  12.152  0.00  0.00    +0.000 A 
ATOM     15  H   UNL     1      45.104   1.660  12.798  0.00  0.00    +0.000 HD
ENDBRANCH   2   5
BRANCH   3  16
ATOM     16  C   UNL     1      48.060   7.800  14.267  0.00  0.00    +0.000 C 
BRANCH  16  17
ATOM     17  C   UNL     1      48.777   6.865  15.195  0.00  0.00    +0.000 A 
ATOM     18  C   UNL     1      50.066   7.138  15.660  0.00  0.00    +0.000 A 
ATOM     19  C   UNL     1      50.676   6.265  16.558  0.00  0.00    +0.000 A 
ATOM     20  C   UNL     1      49.969   5.149  16.973  0.00  0.00    +0.000 A 
ATOM     21  N   UNL     1      48.738   4.832  16.516  0.00  0.00    +0.000 NA
ATOM     22  C   UNL     1      48.180   5.687  15.630  0.00  0.00    +0.000 A 
BRANCH  20  23
ATOM     23  O   UNL     1      50.584   4.319  17.890  0.00  0.00    +0.000 OA
BRANCH  23  24
ATOM     24  C   UNL     1      50.582   2.957  17.452  0.00  0.00    +0.000 C 
BRANCH  24  25
ATOM     25  C   UNL     1      51.896   2.287  17.757  0.00  0.00    +0.000 A 
ATOM     26  C   UNL     1      53.001   3.036  18.181  0.00  0.00    +0.000 A 
ATOM     27  C   UNL     1      54.180   2.391  18.542  0.00  0.00    +0.000 A 
ATOM     28  C   UNL     1      54.217   1.009  18.476  0.00  0.00    +0.000 A 
ATOM     29  N   UNL     1      53.173   0.249  18.084  0.00  0.00    +0.000 NA
ATOM     30  C   UNL     1      52.038   0.904  17.739  0.00  0.00    +0.000 A 
ENDBRANCH  24  25
ENDBRANCH  23  24
ENDBRANCH  20  23
ENDBRANCH  16  17
ENDBRANCH   3  16
TORSDOF 6
ENDMDL
MODEL 6
REMARK VINA RESULT:    -6.851      2.212      2.516
REMARK INTER + INTRA:         -10.097
REMARK INTER:                  -9.331
REMARK INTRA:                  -0.765
REMARK UNBOUND:                -0.843
REMARK  Name = 
REMARK  6 active torsions:
REMARK  status: ('A' for Active; 'I' for Inactive)
REMARK    1  A    between atoms: C_2  and  C_19
REMARK    2  A    between atoms: N_3  and  C_4
REMARK    3  A    between atoms: C_4  and  C_5
REMARK    4  A    between atoms: C_8  and  O_9
REMARK    5  A    between atoms: O_9  and  C_10
REMARK    6  A    between atoms: C_10  and  C_11
REMARK                            x       y       z     vdW  Elec       q    Type
REMARK                         _______ _______ _______ _____ _____    ______ ____
ROOT
ATOM      1  O   UNL     1      49.436   8.956  15.021  0.00  0.00    +0.000 OA
ATOM      2  C   UNL     1      48.704   8.156  15.599  0.00  0.00    +0.000 C 
ATOM      3  N   UNL     1      48.247   7.015  14.993  0.00  0.00    +0.000 N 
ATOM      4  H   UNL     1      47.529   6.461  15.448  0.00  0.00    +0.000 HD
ENDROOT
BRANCH   2   5
ATOM      5  C   UNL     1      48.318   8.347  17.001  0.00  0.00    +0.000 A 
ATOM      6  C   UNL     1      47.923   9.607  17.439  0.00  0.00    +0.000 A 
ATOM      7  S   UNL     1      47.511   9.659  19.092  0.00  0.00    +0.000 S 
ATOM      8  C   UNL     1      47.800   7.992  19.273  0.00  0.00    +0.000 A 
ATOM      9  N   UNL     1      47.595   7.372  20.466  0.00  0.00    +0.000 NA
ATOM     10  C   UNL     1      47.811   6.100  20.452  0.00  0.00    +0.000 A 
ATOM     11  N   UNL     1      48.234   5.393  19.356  0.00  0.00    +0.000 N 
ATOM     12  C   UNL     1      48.534   5.990  18.155  0.00  0.00    +0.000 A 
ATOM     13  O   UNL     1      49.050   5.357  17.238  0.00  0.00    +0.000 OA
ATOM     14  C   UNL     1      48.245   7.414  18.099  0.00  0.00    +0.000 A 
ATOM     15  H   UNL     1      48.418   4.403  19.420  0.00  0.00    +0.000 HD
ENDBRANCH   2   5
BRANCH   3  16
ATOM     16  C   UNL     1      48.566   6.683  13.630  0.00  0.00    +0.000 C 
BRANCH  16  17
ATOM     17  C   UNL     1      47.357   6.242  12.859  0.00  0.00    +0.000 A 
ATOM     18  C   UNL     1      46.936   6.913  11.708  0.00  0.00    +0.000 A 
ATOM     19  C   UNL     1      45.835   6.441  10.996  0.00  0.00    +0.000 A 
ATOM     20  C   UNL     1      45.196   5.301  11.454  0.00  0.00    +0.000 A 
ATOM     21  N   UNL     1      45.551   4.649  12.583  0.00  0.00    +0.000 NA
ATOM     22  C   UNL     1      46.609   5.142  13.263  0.00  0.00    +0.000 A 
BRANCH  20  23
ATOM     23  O   UNL     1      44.130   4.835  10.710  0.00  0.00    +0.000 OA
BRANCH  23  24
ATOM     24  C   UNL     1      44.214   3.422  10.498  0.00  0.00    +0.000 C 
BRANCH  24  25
ATOM     25  C   UNL     1      45.017   3.106   9.263  0.00  0.00    +0.000 A 
ATOM     26  C   UNL     1      45.383   4.119   8.368  0.00  0.00    +0.000 A 
ATOM     27  C   UNL     1      46.199   3.823   7.280  0.00  0.00    +0.000 A 
ATOM     28  C   UNL     1      46.633   2.518   7.123  0.00  0.00    +0.000 A 
ATOM     29  N   UNL     1      46.314   1.515   7.968  0.00  0.00    +0.000 NA
ATOM     30  C   UNL     1      45.519   1.833   9.018  0.00  0.00    +0.000 A 
ENDBRANCH  24  25
ENDBRANCH  23  24
ENDBRANCH  20  23
ENDBRANCH  16  17
ENDBRANCH   3  16
TORSDOF 6
ENDMDL
MODEL 7
REMARK VINA RESULT:    -6.649      3.777      8.633
REMARK INTER + INTRA:          -9.824
REMARK INTER:                  -8.815
REMARK INTRA:                  -1.009
REMARK UNBOUND:                -0.843
REMARK  Name = 
REMARK  6 active torsions:
REMARK  status: ('A' for Active; 'I' for Inactive)
REMARK    1  A    between atoms: C_2  and  C_19
REMARK    2  A    between atoms: N_3  and  C_4
REMARK    3  A    between atoms: C_4  and  C_5
REMARK    4  A    between atoms: C_8  and  O_9
REMARK    5  A    between atoms: O_9  and  C_10
REMARK    6  A    between atoms: C_10  and  C_11
REMARK                            x       y       z     vdW  Elec       q    Type
REMARK                         _______ _______ _______ _____ _____    ______ ____
ROOT
ATOM      1  O   UNL     1      47.352   3.083  14.147  0.00  0.00    +0.000 OA
ATOM      2  C   UNL     1      46.882   4.120  14.609  0.00  0.00    +0.000 C 
ATOM      3  N   UNL     1      46.776   4.336  15.959  0.00  0.00    +0.000 N 
ATOM      4  H   UNL     1      46.249   5.133  16.297  0.00  0.00    +0.000 HD
ENDROOT
BRANCH   2   5
ATOM      5  C   UNL     1      46.455   5.221  13.739  0.00  0.00    +0.000 A 
ATOM      6  C   UNL     1      47.317   6.287  13.507  0.00  0.00    +0.000 A 
ATOM      7  S   UNL     1      46.668   7.481  12.478  0.00  0.00    +0.000 S 
ATOM      8  C   UNL     1      45.230   6.597  12.268  0.00  0.00    +0.000 A 
ATOM      9  N   UNL     1      44.241   7.052  11.453  0.00  0.00    +0.000 NA
ATOM     10  C   UNL     1      43.225   6.262  11.351  0.00  0.00    +0.000 A 
ATOM     11  N   UNL     1      43.100   5.065  12.008  0.00  0.00    +0.000 N 
ATOM     12  C   UNL     1      44.034   4.606  12.905  0.00  0.00    +0.000 A 
ATOM     13  O   UNL     1      43.828   3.606  13.587  0.00  0.00    +0.000 OA
ATOM     14  C   UNL     1      45.230   5.427  13.007  0.00  0.00    +0.000 A 
ATOM     15  H   UNL     1      42.263   4.510  11.912  0.00  0.00    +0.000 HD
ENDBRANCH   2   5
BRANCH   3  16
ATOM     16  C   UNL     1      47.179   3.356  16.932  0.00  0.00    +0.000 C 
BRANCH  16  17
ATOM     17  C   UNL     1      48.616   3.514  17.331  0.00  0.00    +0.000 A 
ATOM     18  C   UNL     1      49.033   4.540  18.184  0.00  0.00    +0.000 A 
ATOM     19  C   UNL     1      50.371   4.621  18.566  0.00  0.00    +0.000 A 
ATOM     20  C   UNL     1      51.249   3.662  18.090  0.00  0.00    +0.000 A 
ATOM     21  N   UNL     1      50.891   2.681  17.234  0.00  0.00    +0.000 NA
ATOM     22  C   UNL     1      49.591   2.640  16.865  0.00  0.00    +0.000 A 
BRANCH  20  23
ATOM     23  O   UNL     1      52.562   3.747  18.512  0.00  0.00    +0.000 OA
BRANCH  23  24
ATOM     24  C   UNL     1      53.049   5.091  18.450  0.00  0.00    +0.000 C 
BRANCH  24  25
ATOM     25  C   UNL     1      53.831   5.327  17.184  0.00  0.00    +0.000 A 
ATOM     26  C   UNL     1      53.477   6.357  16.304  0.00  0.00    +0.000 A 
ATOM     27  C   UNL     1      54.263   6.615  15.185  0.00  0.00    +0.000 A 
ATOM     28  C   UNL     1      55.390   5.838  14.983  0.00  0.00    +0.000 A 
ATOM     29  N   UNL     1      55.773   4.844  15.811  0.00  0.00    +0.000 NA
ATOM     30  C   UNL     1      54.990   4.615  16.893  0.00  0.00    +0.000 A 
ENDBRANCH  24  25
ENDBRANCH  23  24
ENDBRANCH  20  23
ENDBRANCH  16  17
ENDBRANCH   3  16
TORSDOF 6
ENDMDL
MODEL 8
REMARK VINA RESULT:    -6.435      4.033      9.098
REMARK INTER + INTRA:          -9.535
REMARK INTER:                  -8.714
REMARK INTRA:                  -0.821
REMARK UNBOUND:                -0.843
REMARK  Name = 
REMARK  6 active torsions:
REMARK  status: ('A' for Active; 'I' for Inactive)
REMARK    1  A    between atoms: C_2  and  C_19
REMARK    2  A    between atoms: N_3  and  C_4
REMARK    3  A    between atoms: C_4  and  C_5
REMARK    4  A    between atoms: C_8  and  O_9
REMARK    5  A    between atoms: O_9  and  C_10
REMARK    6  A    between atoms: C_10  and  C_11
REMARK                            x       y       z     vdW  Elec       q    Type
REMARK                         _______ _______ _______ _____ _____    ______ ____
ROOT
ATOM      1  O   UNL     1      47.249   3.155  13.923  0.00  0.00    +0.000 OA
ATOM      2  C   UNL     1      46.759   4.179  14.393  0.00  0.00    +0.000 C 
ATOM      3  N   UNL     1      46.743   4.429  15.741  0.00  0.00    +0.000 N 
ATOM      4  H   UNL     1      46.200   5.207  16.098  0.00  0.00    +0.000 HD
ENDROOT
BRANCH   2   5
ATOM      5  C   UNL     1      46.208   5.230  13.530  0.00  0.00    +0.000 A 
ATOM      6  C   UNL     1      46.981   6.346  13.230  0.00  0.00    +0.000 A 
ATOM      7  S   UNL     1      46.193   7.472  12.220  0.00  0.00    +0.000 S 
ATOM      8  C   UNL     1      44.810   6.488  12.109  0.00  0.00    +0.000 A 
ATOM      9  N   UNL     1      43.748   6.857  11.345  0.00  0.00    +0.000 NA
ATOM     10  C   UNL     1      42.785   5.998  11.316  0.00  0.00    +0.000 A 
ATOM     11  N   UNL     1      42.780   4.810  12.000  0.00  0.00    +0.000 N 
ATOM     12  C   UNL     1      43.792   4.434  12.849  0.00  0.00    +0.000 A 
ATOM     13  O   UNL     1      43.695   3.437  13.559  0.00  0.00    +0.000 OA
ATOM     14  C   UNL     1      44.932   5.337  12.866  0.00  0.00    +0.000 A 
ATOM     15  H   UNL     1      41.979   4.197  11.962  0.00  0.00    +0.000 HD
ENDBRANCH   2   5
BRANCH   3  16
ATOM     16  C   UNL     1      47.271   3.500  16.705  0.00  0.00    +0.000 C 
BRANCH  16  17
ATOM     17  C   UNL     1      48.666   3.856  17.126  0.00  0.00    +0.000 A 
ATOM     18  C   UNL     1      49.065   5.185  17.296  0.00  0.00    +0.000 A 
ATOM     19  C   UNL     1      50.357   5.468  17.734  0.00  0.00    +0.000 A 
ATOM     20  C   UNL     1      51.207   4.408  18.001  0.00  0.00    +0.000 A 
ATOM     21  N   UNL     1      50.870   3.114  17.811  0.00  0.00    +0.000 NA
ATOM     22  C   UNL     1      49.617   2.871  17.366  0.00  0.00    +0.000 A 
BRANCH  20  23
ATOM     23  O   UNL     1      52.471   4.716  18.467  0.00  0.00    +0.000 OA
BRANCH  23  24
ATOM     24  C   UNL     1      53.480   4.391  17.505  0.00  0.00    +0.000 C 
BRANCH  24  25
ATOM     25  C   UNL     1      54.320   3.231  17.973  0.00  0.00    +0.000 A 
ATOM     26  C   UNL     1      54.293   2.820  19.311  0.00  0.00    +0.000 A 
ATOM     27  C   UNL     1      55.008   1.694  19.707  0.00  0.00    +0.000 A 
ATOM     28  C   UNL     1      55.725   1.003  18.746  0.00  0.00    +0.000 A 
ATOM     29  N   UNL     1      55.769   1.357  17.445  0.00  0.00    +0.000 NA
ATOM     30  C   UNL     1      55.064   2.457  17.088  0.00  0.00    +0.000 A 
ENDBRANCH  24  25
ENDBRANCH  23  24
ENDBRANCH  20  23
ENDBRANCH  16  17
ENDBRANCH   3  16
TORSDOF 6
ENDMDL
MODEL 9
REMARK VINA RESULT:    -6.429      2.936      8.258
REMARK INTER + INTRA:          -9.527
REMARK INTER:                  -8.381
REMARK INTRA:                  -1.146
REMARK UNBOUND:                -0.843
REMARK  Name = 
REMARK  6 active torsions:
REMARK  status: ('A' for Active; 'I' for Inactive)
REMARK    1  A    between atoms: C_2  and  C_19
REMARK    2  A    between atoms: N_3  and  C_4
REMARK    3  A    between atoms: C_4  and  C_5
REMARK    4  A    between atoms: C_8  and  O_9
REMARK    5  A    between atoms: O_9  and  C_10
REMARK    6  A    between atoms: C_10  and  C_11
REMARK                            x       y       z     vdW  Elec       q    Type
REMARK                         _______ _______ _______ _____ _____    ______ ____
ROOT
ATOM      1  O   UNL     1      45.029   7.807  11.829  0.00  0.00    +0.000 OA
ATOM      2  C   UNL     1      45.692   6.786  11.664  0.00  0.00    +0.000 C 
ATOM      3  N   UNL     1      47.062   6.799  11.647  0.00  0.00    +0.000 N 
ATOM      4  H   UNL     1      47.567   5.968  11.360  0.00  0.00    +0.000 HD
ENDROOT
BRANCH   2   5
ATOM      5  C   UNL     1      45.053   5.472  11.529  0.00  0.00    +0.000 A 
ATOM      6  C   UNL     1      44.338   4.944  12.598  0.00  0.00    +0.000 A 
ATOM      7  S   UNL     1      43.662   3.412  12.279  0.00  0.00    +0.000 S 
ATOM      8  C   UNL     1      44.261   3.418  10.687  0.00  0.00    +0.000 A 
ATOM      9  N   UNL     1      44.000   2.388   9.837  0.00  0.00    +0.000 NA
ATOM     10  C   UNL     1      44.478   2.542   8.648  0.00  0.00    +0.000 A 
ATOM     11  N   UNL     1      45.212   3.625   8.237  0.00  0.00    +0.000 N 
ATOM     12  C   UNL     1      45.570   4.647   9.083  0.00  0.00    +0.000 A 
ATOM     13  O   UNL     1      46.348   5.528   8.727  0.00  0.00    +0.000 OA
ATOM     14  C   UNL     1      45.001   4.554  10.417  0.00  0.00    +0.000 A 
ATOM     15  H   UNL     1      45.586   3.669   7.301  0.00  0.00    +0.000 HD
ENDBRANCH   2   5
BRANCH   3  16
ATOM     16  C   UNL     1      47.825   8.011  11.793  0.00  0.00    +0.000 C 
BRANCH  16  17
ATOM     17  C   UNL     1      48.468   8.114  13.144  0.00  0.00    +0.000 A 
ATOM     18  C   UNL     1      49.768   7.654  13.376  0.00  0.00    +0.000 A 
ATOM     19  C   UNL     1      50.343   7.812  14.635  0.00  0.00    +0.000 A 
ATOM     20  C   UNL     1      49.601   8.439  15.622  0.00  0.00    +0.000 A 
ATOM     21  N   UNL     1      48.330   8.861  15.447  0.00  0.00    +0.000 NA
ATOM     22  C   UNL     1      47.791   8.675  14.221  0.00  0.00    +0.000 A 
BRANCH  20  23
ATOM     23  O   UNL     1      50.209   8.614  16.850  0.00  0.00    +0.000 OA
BRANCH  23  24
ATOM     24  C   UNL     1      50.538   7.360  17.457  0.00  0.00    +0.000 C 
BRANCH  24  25
ATOM     25  C   UNL     1      49.298   6.554  17.745  0.00  0.00    +0.000 A 
ATOM     26  C   UNL     1      49.097   5.308  17.139  0.00  0.00    +0.000 A 
ATOM     27  C   UNL     1      47.989   4.539  17.483  0.00  0.00    +0.000 A 
ATOM     28  C   UNL     1      47.116   5.038  18.433  0.00  0.00    +0.000 A 
ATOM     29  N   UNL     1      47.278   6.227  19.049  0.00  0.00    +0.000 NA
ATOM     30  C   UNL     1      48.365   6.954  18.695  0.00  0.00    +0.000 A 
ENDBRANCH  24  25
ENDBRANCH  23  24
ENDBRANCH  20  23
ENDBRANCH  16  17
ENDBRANCH   3  16
TORSDOF 6
ENDMDL
