MODEL 1
REMARK VINA RESULT:    -7.964      0.000      0.000
REMARK INTER + INTRA:         -11.029
REMARK INTER:                 -10.291
REMARK INTRA:                  -0.738
REMARK UNBOUND:                -0.738
REMARK  Name = 
REMARK  7 active torsions:
REMARK  status: ('A' for Active; 'I' for Inactive)
REMARK    1  A    between atoms: C_1  and  C_2
REMARK    2  A    between atoms: C_2  and  N_3
REMARK    3  A    between atoms: C_2  and  C_17
REMARK    4  A    between atoms: C_4  and  C_6
REMARK    5  A    between atoms: N_12  and  C_13
REMARK    6  A    between atoms: C_20  and  O_21
REMARK    7  A    between atoms: O_21  and  C_22
REMARK                            x       y       z     vdW  Elec       q    Type
REMARK                         _______ _______ _______ _____ _____    ______ ____
ROOT
ATOM      1  C   UNL     1      43.014   5.140  13.308  0.00  0.00    +0.000 C 
ATOM      2  C   UNL     1      44.330   4.422  12.981  0.00  0.00    +0.000 C 
ENDROOT
BRANCH   2   3
ATOM      3  C   UNL     1      44.501   4.197  11.493  0.00  0.00    +0.000 A 
ATOM      4  C   UNL     1      45.215   5.106  10.702  0.00  0.00    +0.000 A 
ATOM      5  C   UNL     1      45.373   4.874   9.334  0.00  0.00    +0.000 A 
ATOM      6  C   UNL     1      44.797   3.735   8.795  0.00  0.00    +0.000 A 
ATOM      7  N   UNL     1      44.112   2.835   9.530  0.00  0.00    +0.000 NA
ATOM      8  C   UNL     1      43.955   3.097  10.841  0.00  0.00    +0.000 A 
BRANCH   6   9
ATOM      9  O   UNL     1      44.908   3.537   7.428  0.00  0.00    +0.000 OA
BRANCH   9  10
ATOM     10  C   UNL     1      46.058   2.911   6.987  0.00  0.00    +0.000 A 
ATOM     11  C   UNL     1      46.639   1.828   7.647  0.00  0.00    +0.000 A 
ATOM     12  N   UNL     1      47.763   1.202   7.213  0.00  0.00    +0.000 NA
ATOM     13  C   UNL     1      48.275   1.699   6.069  0.00  0.00    +0.000 A 
ATOM     14  C   UNL     1      47.679   2.746   5.380  0.00  0.00    +0.000 A 
ATOM     15  N   UNL     1      46.554   3.366   5.810  0.00  0.00    +0.000 NA
ENDBRANCH   9  10
ENDBRANCH   6   9
ENDBRANCH   2   3
BRANCH   2  16
ATOM     16  N   UNL     1      45.438   5.195  13.509  0.00  0.00    +0.000 N 
ATOM     17  C   UNL     1      46.630   4.650  13.918  0.00  0.00    +0.000 C 
ATOM     18  O   UNL     1      46.806   3.440  14.022  0.00  0.00    +0.000 OA
ATOM     19  H   UNL     1      45.450   6.166  13.223  0.00  0.00    +0.000 HD
BRANCH  17  20
ATOM     20  C   UNL     1      47.676   5.619  14.278  0.00  0.00    +0.000 A 
ATOM     21  C   UNL     1      48.215   6.471  13.320  0.00  0.00    +0.000 A 
ATOM     22  S   UNL     1      49.440   7.493  13.935  0.00  0.00    +0.000 S 
ATOM     23  C   UNL     1      49.252   6.870  15.509  0.00  0.00    +0.000 A 
ATOM     24  N   UNL     1      49.991   7.339  16.548  0.00  0.00    +0.000 NA
ATOM     25  C   UNL     1      49.717   6.794  17.690  0.00  0.00    +0.000 A 
ATOM     26  N   UNL     1      48.776   5.810  17.905  0.00  0.00    +0.000 N 
ATOM     27  C   UNL     1      48.550   5.252  19.218  0.00  0.00    +0.000 C 
ATOM     28  C   UNL     1      48.043   5.278  16.856  0.00  0.00    +0.000 A 
ATOM     29  O   UNL     1      47.267   4.333  17.006  0.00  0.00    +0.000 OA
ATOM     30  C   UNL     1      48.292   5.880  15.558  0.00  0.00    +0.000 A 
ENDBRANCH  17  20
ENDBRANCH   2  16
TORSDOF 5
ENDMDL
MODEL 2
REMARK VINA RESULT:    -7.775      1.696      2.200
REMARK INTER + INTRA:         -10.786
REMARK INTER:                 -10.648
REMARK INTRA:                  -0.138
REMARK UNBOUND:                -0.738
REMARK  Name = 
REMARK  7 active torsions:
REMARK  status: ('A' for Active; 'I' for Inactive)
REMARK    1  A    between atoms: C_1  and  C_2
REMARK    2  A    between atoms: C_2  and  N_3
REMARK    3  A    between atoms: C_2  and  C_17
REMARK    4  A    between atoms: C_4  and  C_6
REMARK    5  A    between atoms: N_12  and  C_13
REMARK    6  A    between atoms: C_20  and  O_21
REMARK    7  A    between atoms: O_21  and  C_22
REMARK                            x       y       z     vdW  Elec       q    Type
REMARK                         _______ _______ _______ _____ _____    ______ ____
ROOT
ATOM      1  C   UNL     1      44.928   7.967  11.900  0.00  0.00    +0.000 C 
ATOM      2  C   UNL     1      44.843   6.662  12.703  0.00  0.00    +0.000 C 
ENDROOT
BRANCH   2   3
ATOM      3  C   UNL     1      44.768   5.446  11.804  0.00  0.00    +0.000 A 
ATOM      4  C   UNL     1      45.022   4.161  12.302  0.00  0.00    +0.000 A 
ATOM      5  C   UNL     1      44.935   3.051  11.460  0.00  0.00    +0.000 A 
ATOM      6  C   UNL     1      44.603   3.264  10.132  0.00  0.00    +0.000 A 
ATOM      7  N   UNL     1      44.343   4.486   9.622  0.00  0.00    +0.000 NA
ATOM      8  C   UNL     1      44.459   5.540  10.451  0.00  0.00    +0.000 A 
BRANCH   6   9
ATOM      9  O   UNL     1      44.572   2.166   9.286  0.00  0.00    +0.000 OA
BRANCH   9  10
ATOM     10  C   UNL     1      45.622   2.043   8.397  0.00  0.00    +0.000 A 
ATOM     11  C   UNL     1      46.178   3.127   7.717  0.00  0.00    +0.000 A 
ATOM     12  N   UNL     1      47.217   3.015   6.850  0.00  0.00    +0.000 NA
ATOM     13  C   UNL     1      47.692   1.762   6.705  0.00  0.00    +0.000 A 
ATOM     14  C   UNL     1      47.177   0.684   7.412  0.00  0.00    +0.000 A 
ATOM     15  N   UNL     1      46.145   0.798   8.281  0.00  0.00    +0.000 NA
ENDBRANCH   9  10
ENDBRANCH   6   9
ENDBRANCH   2   3
BRANCH   2  16
ATOM     16  N   UNL     1      45.990   6.571  13.586  0.00  0.00    +0.000 N 
ATOM     17  C   UNL     1      47.294   6.671  13.165  0.00  0.00    +0.000 C 
ATOM     18  O   UNL     1      47.609   6.686  11.980  0.00  0.00    +0.000 OA
ATOM     19  H   UNL     1      45.800   6.804  14.552  0.00  0.00    +0.000 HD
BRANCH  17  20
ATOM     20  C   UNL     1      48.300   6.704  14.237  0.00  0.00    +0.000 A 
ATOM     21  C   UNL     1      49.284   7.686  14.256  0.00  0.00    +0.000 A 
ATOM     22  S   UNL     1      50.376   7.525  15.563  0.00  0.00    +0.000 S 
ATOM     23  C   UNL     1      49.539   6.173  16.173  0.00  0.00    +0.000 A 
ATOM     24  N   UNL     1      49.937   5.552  17.314  0.00  0.00    +0.000 NA
ATOM     25  C   UNL     1      49.186   4.559  17.672  0.00  0.00    +0.000 A 
ATOM     26  N   UNL     1      48.071   4.111  16.998  0.00  0.00    +0.000 N 
ATOM     27  C   UNL     1      47.302   2.984  17.472  0.00  0.00    +0.000 C 
ATOM     28  C   UNL     1      47.672   4.695  15.807  0.00  0.00    +0.000 A 
ATOM     29  O   UNL     1      46.737   4.252  15.137  0.00  0.00    +0.000 OA
ATOM     30  C   UNL     1      48.463   5.834  15.378  0.00  0.00    +0.000 A 
ENDBRANCH  17  20
ENDBRANCH   2  16
TORSDOF 5
ENDMDL
MODEL 3
REMARK VINA RESULT:    -7.450      1.890      2.656
REMARK INTER + INTRA:         -10.366
REMARK INTER:                 -10.267
REMARK INTRA:                  -0.099
REMARK UNBOUND:                -0.738
REMARK  Name = 
REMARK  7 active torsions:
REMARK  status: ('A' for Active; 'I' for Inactive)
REMARK    1  A    between atoms: C_1  and  C_2
REMARK    2  A    between atoms: C_2  and  N_3
REMARK    3  A    between atoms: C_2  and  C_17
REMARK    4  A    between atoms: C_4  and  C_6
REMARK    5  A    between atoms: N_12  and  C_13
REMARK    6  A    between atoms: C_20  and  O_21
REMARK    7  A    between atoms: O_21  and  C_22
REMARK                            x       y       z     vdW  Elec       q    Type
REMARK                         _______ _______ _______ _____ _____    ______ ____
ROOT
ATOM      1  C   UNL     1      46.627   7.537  12.450  0.00  0.00    +0.000 C 
ATOM      2  C   UNL     1      45.583   6.496  12.876  0.00  0.00    +0.000 C 
ENDROOT
BRANCH   2   3
ATOM      3  C   UNL     1      45.262   5.523  11.762  0.00  0.00    +0.000 A 
ATOM      4  C   UNL     1      44.560   4.338  12.016  0.00  0.00    +0.000 A 
ATOM      5  C   UNL     1      44.263   3.460  10.973  0.00  0.00    +0.000 A 
ATOM      6  C   UNL     1      44.689   3.792   9.698  0.00  0.00    +0.000 A 
ATOM      7  N   UNL     1      45.358   4.930   9.416  0.00  0.00    +0.000 NA
ATOM      8  C   UNL     1      45.654   5.746  10.446  0.00  0.00    +0.000 A 
BRANCH   6   9
ATOM      9  O   UNL     1      44.441   2.892   8.674  0.00  0.00    +0.000 OA
BRANCH   9  10
ATOM     10  C   UNL     1      45.533   2.490   7.929  0.00  0.00    +0.000 A 
ATOM     11  C   UNL     1      46.088   3.263   6.909  0.00  0.00    +0.000 A 
ATOM     12  N   UNL     1      47.167   2.879   6.180  0.00  0.00    +0.000 NA
ATOM     13  C   UNL     1      47.683   1.684   6.531  0.00  0.00    +0.000 A 
ATOM     14  C   UNL     1      47.167   0.928   7.575  0.00  0.00    +0.000 A 
ATOM     15  N   UNL     1      46.095   1.315   8.305  0.00  0.00    +0.000 NA
ENDBRANCH   9  10
ENDBRANCH   6   9
ENDBRANCH   2   3
BRANCH   2  16
ATOM     16  N   UNL     1      46.068   5.788  14.046  0.00  0.00    +0.000 N 
ATOM     17  C   UNL     1      47.368   5.376  14.212  0.00  0.00    +0.000 C 
ATOM     18  O   UNL     1      48.201   5.431  13.313  0.00  0.00    +0.000 OA
ATOM     19  H   UNL     1      45.521   5.932  14.885  0.00  0.00    +0.000 HD
BRANCH  17  20
ATOM     20  C   UNL     1      47.686   4.810  15.531  0.00  0.00    +0.000 A 
ATOM     21  C   UNL     1      47.356   3.495  15.837  0.00  0.00    +0.000 A 
ATOM     22  S   UNL     1      47.778   3.045  17.432  0.00  0.00    +0.000 S 
ATOM     23  C   UNL     1      48.463   4.572  17.746  0.00  0.00    +0.000 A 
ATOM     24  N   UNL     1      49.042   4.855  18.942  0.00  0.00    +0.000 NA
ATOM     25  C   UNL     1      49.548   6.044  19.024  0.00  0.00    +0.000 A 
ATOM     26  N   UNL     1      49.528   6.996  18.027  0.00  0.00    +0.000 N 
ATOM     27  C   UNL     1      50.109   8.305  18.218  0.00  0.00    +0.000 C 
ATOM     28  C   UNL     1      48.901   6.752  16.816  0.00  0.00    +0.000 A 
ATOM     29  O   UNL     1      48.786   7.618  15.947  0.00  0.00    +0.000 OA
ATOM     30  C   UNL     1      48.346   5.419  16.663  0.00  0.00    +0.000 A 
ENDBRANCH  17  20
ENDBRANCH   2  16
TORSDOF 5
ENDMDL
MODEL 4
REMARK VINA RESULT:    -7.203      2.322      3.630
REMARK INTER + INTRA:         -10.046
REMARK INTER:                  -8.888
REMARK INTRA:                  -1.158
REMARK UNBOUND:                -0.738
REMARK  Name = 
REMARK  7 active torsions:
REMARK  status: ('A' for Active; 'I' for Inactive)
REMARK    1  A    between atoms: C_1  and  C_2
REMARK    2  A    between atoms: C_2  and  N_3
REMARK    3  A    between atoms: C_2  and  C_17
REMARK    4  A    between atoms: C_4  and  C_6
REMARK    5  A    between atoms: N_12  and  C_13
REMARK    6  A    between atoms: C_20  and  O_21
REMARK    7  A    between atoms: O_21  and  C_22
REMARK                            x       y       z     vdW  Elec       q    Type
REMARK                         _______ _______ _______ _____ _____    ______ ____
ROOT
ATOM      1  C   UNL     1      47.764   9.578  12.721  0.00  0.00    +0.000 C 
ATOM      2  C   UNL     1      47.196   8.456  13.600  0.00  0.00    +0.000 C 
ENDROOT
BRANCH   2   3
ATOM      3  C   UNL     1      46.385   7.460  12.799  0.00  0.00    +0.000 A 
ATOM      4  C   UNL     1      45.266   7.866  12.060  0.00  0.00    +0.000 A 
ATOM      5  C   UNL     1      44.539   6.934  11.318  0.00  0.00    +0.000 A 
ATOM      6  C   UNL     1      44.952   5.612  11.345  0.00  0.00    +0.000 A 
ATOM      7  N   UNL     1      46.030   5.189  12.037  0.00  0.00    +0.000 NA
ATOM      8  C   UNL     1      46.697   6.106  12.765  0.00  0.00    +0.000 A 
BRANCH   6   9
ATOM      9  O   UNL     1      44.195   4.680  10.652  0.00  0.00    +0.000 OA
BRANCH   9  10
ATOM     10  C   UNL     1      44.860   3.932   9.701  0.00  0.00    +0.000 A 
ATOM     11  C   UNL     1      44.897   2.537   9.714  0.00  0.00    +0.000 A 
ATOM     12  N   UNL     1      45.539   1.795   8.776  0.00  0.00    +0.000 NA
ATOM     13  C   UNL     1      46.135   2.515   7.804  0.00  0.00    +0.000 A 
ATOM     14  C   UNL     1      46.066   3.900   7.755  0.00  0.00    +0.000 A 
ATOM     15  N   UNL     1      45.419   4.639   8.688  0.00  0.00    +0.000 NA
ENDBRANCH   9  10
ENDBRANCH   6   9
ENDBRANCH   2   3
BRANCH   2  16
ATOM     16  N   UNL     1      48.288   7.789  14.285  0.00  0.00    +0.000 N 
ATOM     17  C   UNL     1      48.699   8.098  15.558  0.00  0.00    +0.000 C 
ATOM     18  O   UNL     1      48.283   9.075  16.172  0.00  0.00    +0.000 OA
ATOM     19  H   UNL     1      48.490   6.856  13.950  0.00  0.00    +0.000 HD
BRANCH  17  20
ATOM     20  C   UNL     1      49.720   7.204  16.124  0.00  0.00    +0.000 A 
ATOM     21  C   UNL     1      51.040   7.623  16.248  0.00  0.00    +0.000 A 
ATOM     22  S   UNL     1      52.074   6.423  16.894  0.00  0.00    +0.000 S 
ATOM     23  C   UNL     1      50.783   5.327  17.080  0.00  0.00    +0.000 A 
ATOM     24  N   UNL     1      50.976   4.094  17.616  0.00  0.00    +0.000 NA
ATOM     25  C   UNL     1      49.899   3.383  17.723  0.00  0.00    +0.000 A 
ATOM     26  N   UNL     1      48.635   3.776  17.339  0.00  0.00    +0.000 N 
ATOM     27  C   UNL     1      47.492   2.905  17.487  0.00  0.00    +0.000 C 
ATOM     28  C   UNL     1      48.419   5.009  16.744  0.00  0.00    +0.000 A 
ATOM     29  O   UNL     1      47.317   5.345  16.304  0.00  0.00    +0.000 OA
ATOM     30  C   UNL     1      49.591   5.857  16.630  0.00  0.00    +0.000 A 
ENDBRANCH  17  20
ENDBRANCH   2  16
TORSDOF 5
ENDMDL
MODEL 5
REMARK VINA RESULT:    -7.123      2.657      3.801
REMARK INTER + INTRA:          -9.943
REMARK INTER:                  -8.926
REMARK INTRA:                  -1.017
REMARK UNBOUND:                -0.738
REMARK  Name = 
REMARK  7 active torsions:
REMARK  status: ('A' for Active; 'I' for Inactive)
REMARK    1  A    between atoms: C_1  and  C_2
REMARK    2  A    between atoms: C_2  and  N_3
REMARK    3  A    between atoms: C_2  and  C_17
REMARK    4  A    between atoms: C_4  and  C_6
REMARK    5  A    between atoms: N_12  and  C_13
REMARK    6  A    between atoms: C_20  and  O_21
REMARK    7  A    between atoms: O_21  and  C_22
REMARK                            x       y       z     vdW  Elec       q    Type
REMARK                         _______ _______ _______ _____ _____    ______ ____
ROOT
ATOM      1  C   UNL     1      47.197   4.139  16.576  0.00  0.00    +0.000 C 
ATOM      2  C   UNL     1      47.748   4.849  15.333  0.00  0.00    +0.000 C 
ENDROOT
BRANCH   2   3
ATOM      3  C   UNL     1      46.864   4.644  14.121  0.00  0.00    +0.000 A 
ATOM      4  C   UNL     1      46.383   5.733  13.384  0.00  0.00    +0.000 A 
ATOM      5  C   UNL     1      45.579   5.522  12.262  0.00  0.00    +0.000 A 
ATOM      6  C   UNL     1      45.270   4.217  11.917  0.00  0.00    +0.000 A 
ATOM      7  N   UNL     1      45.725   3.145  12.599  0.00  0.00    +0.000 NA
ATOM      8  C   UNL     1      46.477   3.380  13.691  0.00  0.00    +0.000 A 
BRANCH   6   9
ATOM      9  O   UNL     1      44.427   4.013  10.836  0.00  0.00    +0.000 OA
BRANCH   9  10
ATOM     10  C   UNL     1      45.029   3.679   9.638  0.00  0.00    +0.000 A 
ATOM     11  C   UNL     1      45.535   4.627   8.748  0.00  0.00    +0.000 A 
ATOM     12  N   UNL     1      46.138   4.305   7.574  0.00  0.00    +0.000 NA
ATOM     13  C   UNL     1      46.230   2.981   7.337  0.00  0.00    +0.000 A 
ATOM     14  C   UNL     1      45.772   2.029   8.237  0.00  0.00    +0.000 A 
ATOM     15  N   UNL     1      45.176   2.351   9.410  0.00  0.00    +0.000 NA
ENDBRANCH   9  10
ENDBRANCH   6   9
ENDBRANCH   2   3
BRANCH   2  16
ATOM     16  N   UNL     1      47.897   6.263  15.620  0.00  0.00    +0.000 N 
ATOM     17  C   UNL     1      49.108   6.899  15.744  0.00  0.00    +0.000 C 
ATOM     18  O   UNL     1      50.175   6.294  15.781  0.00  0.00    +0.000 OA
ATOM     19  H   UNL     1      47.103   6.834  15.359  0.00  0.00    +0.000 HD
BRANCH  17  20
ATOM     20  C   UNL     1      49.040   8.361  15.885  0.00  0.00    +0.000 A 
ATOM     21  C   UNL     1      49.469   9.194  14.857  0.00  0.00    +0.000 A 
ATOM     22  S   UNL     1      49.340  10.857  15.236  0.00  0.00    +0.000 S 
ATOM     23  C   UNL     1      48.658  10.519  16.759  0.00  0.00    +0.000 A 
ATOM     24  N   UNL     1      48.280  11.516  17.600  0.00  0.00    +0.000 NA
ATOM     25  C   UNL     1      47.748  11.108  18.709  0.00  0.00    +0.000 A 
ATOM     26  N   UNL     1      47.562   9.792  19.074  0.00  0.00    +0.000 N 
ATOM     27  C   UNL     1      46.969   9.434  20.342  0.00  0.00    +0.000 C 
ATOM     28  C   UNL     1      47.984   8.756  18.257  0.00  0.00    +0.000 A 
ATOM     29  O   UNL     1      47.916   7.574  18.602  0.00  0.00    +0.000 OA
ATOM     30  C   UNL     1      48.557   9.162  16.986  0.00  0.00    +0.000 A 
ENDBRANCH  17  20
ENDBRANCH   2  16
TORSDOF 5
ENDMDL
MODEL 6
REMARK VINA RESULT:    -7.080      2.490      4.190
REMARK INTER + INTRA:          -9.888
REMARK INTER:                  -8.974
REMARK INTRA:                  -0.913
REMARK UNBOUND:                -0.738
REMARK  Name = 
REMARK  7 active torsions:
REMARK  status: ('A' for Active; 'I' for Inactive)
REMARK    1  A    between atoms: C_1  and  C_2
REMARK    2  A    between atoms: C_2  and  N_3
REMARK    3  A    between atoms: C_2  and  C_17
REMARK    4  A    between atoms: C_4  and  C_6
REMARK    5  A    between atoms: N_12  and  C_13
REMARK    6  A    between atoms: C_20  and  O_21
REMARK    7  A    between atoms: O_21  and  C_22
REMARK                            x       y       z     vdW  Elec       q    Type
REMARK                         _______ _______ _______ _____ _____    ______ ____
ROOT
ATOM      1  C   UNL     1      49.632   7.729  13.188  0.00  0.00    +0.000 C 
ATOM      2  C   UNL     1      48.220   7.952  13.744  0.00  0.00    +0.000 C 
ENDROOT
BRANCH   2   3
ATOM      3  C   UNL     1      47.174   7.180  12.967  0.00  0.00    +0.000 A 
ATOM      4  C   UNL     1      47.009   5.801  13.148  0.00  0.00    +0.000 A 
ATOM      5  C   UNL     1      46.031   5.110  12.431  0.00  0.00    +0.000 A 
ATOM      6  C   UNL     1      45.247   5.825  11.540  0.00  0.00    +0.000 A 
ATOM      7  N   UNL     1      45.373   7.155  11.349  0.00  0.00    +0.000 NA
ATOM      8  C   UNL     1      46.341   7.791  12.035  0.00  0.00    +0.000 A 
BRANCH   6   9
ATOM      9  O   UNL     1      44.315   5.127  10.789  0.00  0.00    +0.000 OA
BRANCH   9  10
ATOM     10  C   UNL     1      44.814   4.218   9.877  0.00  0.00    +0.000 A 
ATOM     11  C   UNL     1      44.593   2.843   9.969  0.00  0.00    +0.000 A 
ATOM     12  N   UNL     1      45.071   1.946   9.070  0.00  0.00    +0.000 NA
ATOM     13  C   UNL     1      45.773   2.489   8.055  0.00  0.00    +0.000 A 
ATOM     14  C   UNL     1      45.959   3.859   7.928  0.00  0.00    +0.000 A 
ATOM     15  N   UNL     1      45.476   4.754   8.822  0.00  0.00    +0.000 NA
ENDBRANCH   9  10
ENDBRANCH   6   9
ENDBRANCH   2   3
BRANCH   2  16
ATOM     16  N   UNL     1      48.194   7.573  15.144  0.00  0.00    +0.000 N 
ATOM     17  C   UNL     1      48.631   8.379  16.166  0.00  0.00    +0.000 C 
ATOM     18  O   UNL     1      49.232   9.431  15.972  0.00  0.00    +0.000 OA
ATOM     19  H   UNL     1      47.511   6.863  15.378  0.00  0.00    +0.000 HD
BRANCH  17  20
ATOM     20  C   UNL     1      48.379   7.870  17.522  0.00  0.00    +0.000 A 
ATOM     21  C   UNL     1      47.854   8.700  18.507  0.00  0.00    +0.000 A 
ATOM     22  S   UNL     1      47.672   7.924  20.020  0.00  0.00    +0.000 S 
ATOM     23  C   UNL     1      48.236   6.443  19.396  0.00  0.00    +0.000 A 
ATOM     24  N   UNL     1      48.308   5.331  20.173  0.00  0.00    +0.000 NA
ATOM     25  C   UNL     1      48.725   4.273  19.555  0.00  0.00    +0.000 A 
ATOM     26  N   UNL     1      49.092   4.210  18.228  0.00  0.00    +0.000 N 
ATOM     27  C   UNL     1      49.559   2.981  17.628  0.00  0.00    +0.000 C 
ATOM     28  C   UNL     1      49.076   5.340  17.426  0.00  0.00    +0.000 A 
ATOM     29  O   UNL     1      49.490   5.330  16.265  0.00  0.00    +0.000 OA
ATOM     30  C   UNL     1      48.584   6.546  18.065  0.00  0.00    +0.000 A 
ENDBRANCH  17  20
ENDBRANCH   2  16
TORSDOF 5
ENDMDL
MODEL 7
REMARK VINA RESULT:    -7.010      3.334      5.325
REMARK INTER + INTRA:          -9.796
REMARK INTER:                  -8.530
REMARK INTRA:                  -1.266
REMARK UNBOUND:                -0.738
REMARK  Name = 
REMARK  7 active torsions:
REMARK  status: ('A' for Active; 'I' for Inactive)
REMARK    1  A    between atoms: C_1  and  C_2
REMARK    2  A    between atoms: C_2  and  N_3
REMARK    3  A    between atoms: C_2  and  C_17
REMARK    4  A    between atoms: C_4  and  C_6
REMARK    5  A    between atoms: N_12  and  C_13
REMARK    6  A    between atoms: C_20  and  O_21
REMARK    7  A    between atoms: O_21  and  C_22
REMARK                            x       y       z     vdW  Elec       q    Type
REMARK                         _______ _______ _______ _____ _____    ______ ____
ROOT
ATOM      1  C   UNL     1      50.576   8.383  13.050  0.00  0.00    +0.000 C 
ATOM      2  C   UNL     1      49.306   8.617  13.879  0.00  0.00    +0.000 C 
ENDROOT
BRANCH   2   3
ATOM      3  C   UNL     1      48.069   8.081  13.189  0.00  0.00    +0.000 A 
ATOM      4  C   UNL     1      48.156   7.044  12.252  0.00  0.00    +0.000 A 
ATOM      5  C   UNL     1      47.002   6.555  11.637  0.00  0.00    +0.000 A 
ATOM      6  C   UNL     1      45.789   7.131  11.973  0.00  0.00    +0.000 A 
ATOM      7  N   UNL     1      45.668   8.125  12.879  0.00  0.00    +0.000 NA
ATOM      8  C   UNL     1      46.801   8.593  13.437  0.00  0.00    +0.000 A 
BRANCH   6   9
ATOM      9  O   UNL     1      44.652   6.682  11.320  0.00  0.00    +0.000 OA
BRANCH   9  10
ATOM     10  C   UNL     1      44.268   5.380  11.576  0.00  0.00    +0.000 A 
ATOM     11  C   UNL     1      43.877   4.934  12.839  0.00  0.00    +0.000 A 
ATOM     12  N   UNL     1      43.488   3.659  13.096  0.00  0.00    +0.000 NA
ATOM     13  C   UNL     1      43.490   2.846  12.020  0.00  0.00    +0.000 A 
ATOM     14  C   UNL     1      43.832   3.291  10.751  0.00  0.00    +0.000 A 
ATOM     15  N   UNL     1      44.214   4.564  10.495  0.00  0.00    +0.000 NA
ENDBRANCH   9  10
ENDBRANCH   6   9
ENDBRANCH   2   3
BRANCH   2  16
ATOM     16  N   UNL     1      49.468   8.002  15.183  0.00  0.00    +0.000 N 
ATOM     17  C   UNL     1      48.857   8.452  16.327  0.00  0.00    +0.000 C 
ATOM     18  O   UNL     1      48.243   9.513  16.378  0.00  0.00    +0.000 OA
ATOM     19  H   UNL     1      49.740   7.027  15.159  0.00  0.00    +0.000 HD
BRANCH  17  20
ATOM     20  C   UNL     1      49.031   7.599  17.512  0.00  0.00    +0.000 A 
ATOM     21  C   UNL     1      49.390   8.151  18.737  0.00  0.00    +0.000 A 
ATOM     22  S   UNL     1      49.578   6.986  19.975  0.00  0.00    +0.000 S 
ATOM     23  C   UNL     1      49.133   5.717  18.930  0.00  0.00    +0.000 A 
ATOM     24  N   UNL     1      49.060   4.433  19.369  0.00  0.00    +0.000 NA
ATOM     25  C   UNL     1      48.678   3.581  18.472  0.00  0.00    +0.000 A 
ATOM     26  N   UNL     1      48.367   3.879  17.162  0.00  0.00    +0.000 N 
ATOM     27  C   UNL     1      47.961   2.854  16.228  0.00  0.00    +0.000 C 
ATOM     28  C   UNL     1      48.480   5.171  16.675  0.00  0.00    +0.000 A 
ATOM     29  O   UNL     1      48.301   5.446  15.487  0.00  0.00    +0.000 OA
ATOM     30  C   UNL     1      48.874   6.170  17.653  0.00  0.00    +0.000 A 
ENDBRANCH  17  20
ENDBRANCH   2  16
TORSDOF 5
ENDMDL
MODEL 8
REMARK VINA RESULT:    -6.791      2.507      3.795
REMARK INTER + INTRA:          -9.513
REMARK INTER:                  -9.541
REMARK INTRA:                   0.028
REMARK UNBOUND:                -0.738
REMARK  Name = 
REMARK  7 active torsions:
REMARK  status: ('A' for Active; 'I' for Inactive)
REMARK    1  A    between atoms: C_1  and  C_2
REMARK    2  A    between atoms: C_2  and  N_3
REMARK    3  A    between atoms: C_2  and  C_17
REMARK    4  A    between atoms: C_4  and  C_6
REMARK    5  A    between atoms: N_12  and  C_13
REMARK    6  A    between atoms: C_20  and  O_21
REMARK    7  A    between atoms: O_21  and  C_22
REMARK                            x       y       z     vdW  Elec       q    Type
REMARK                         _______ _______ _______ _____ _____    ______ ____
ROOT
ATOM      1  C   UNL     1      49.135   7.345  13.189  0.00  0.00    +0.000 C 
ATOM      2  C   UNL     1      47.736   7.081  13.760  0.00  0.00    +0.000 C 
ENDROOT
BRANCH   2   3
ATOM      3  C   UNL     1      46.855   6.330  12.783  0.00  0.00    +0.000 A 
ATOM      4  C   UNL     1      46.238   5.126  13.145  0.00  0.00    +0.000 A 
ATOM      5  C   UNL     1      45.420   4.455  12.234  0.00  0.00    +0.000 A 
ATOM      6  C   UNL     1      45.252   5.009  10.976  0.00  0.00    +0.000 A 
ATOM      7  N   UNL     1      45.823   6.172  10.599  0.00  0.00    +0.000 NA
ATOM      8  C   UNL     1      46.627   6.784  11.489  0.00  0.00    +0.000 A 
BRANCH   6   9
ATOM      9  O   UNL     1      44.484   4.312  10.056  0.00  0.00    +0.000 OA
BRANCH   9  10
ATOM     10  C   UNL     1      45.170   3.525   9.151  0.00  0.00    +0.000 A 
ATOM     11  C   UNL     1      45.289   2.141   9.279  0.00  0.00    +0.000 A 
ATOM     12  N   UNL     1      45.952   1.361   8.388  0.00  0.00    +0.000 NA
ATOM     13  C   UNL     1      46.482   2.029   7.343  0.00  0.00    +0.000 A 
ATOM     14  C   UNL     1      46.329   3.399   7.182  0.00  0.00    +0.000 A 
ATOM     15  N   UNL     1      45.662   4.176   8.068  0.00  0.00    +0.000 NA
ENDBRANCH   9  10
ENDBRANCH   6   9
ENDBRANCH   2   3
BRANCH   2  16
ATOM     16  N   UNL     1      47.860   6.344  15.003  0.00  0.00    +0.000 N 
ATOM     17  C   UNL     1      48.822   6.591  15.950  0.00  0.00    +0.000 C 
ATOM     18  O   UNL     1      49.764   7.354  15.757  0.00  0.00    +0.000 OA
ATOM     19  H   UNL     1      47.006   5.901  15.320  0.00  0.00    +0.000 HD
BRANCH  17  20
ATOM     20  C   UNL     1      48.682   5.835  17.204  0.00  0.00    +0.000 A 
ATOM     21  C   UNL     1      48.987   4.479  17.253  0.00  0.00    +0.000 A 
ATOM     22  S   UNL     1      48.722   3.781  18.791  0.00  0.00    +0.000 S 
ATOM     23  C   UNL     1      48.243   5.276  19.453  0.00  0.00    +0.000 A 
ATOM     24  N   UNL     1      47.902   5.391  20.763  0.00  0.00    +0.000 NA
ATOM     25  C   UNL     1      47.591   6.593  21.131  0.00  0.00    +0.000 A 
ATOM     26  N   UNL     1      47.576   7.704  20.316  0.00  0.00    +0.000 N 
ATOM     27  C   UNL     1      47.201   9.007  20.816  0.00  0.00    +0.000 C 
ATOM     28  C   UNL     1      47.871   7.606  18.965  0.00  0.00    +0.000 A 
ATOM     29  O   UNL     1      47.772   8.565  18.197  0.00  0.00    +0.000 OA
ATOM     30  C   UNL     1      48.259   6.283  18.510  0.00  0.00    +0.000 A 
ENDBRANCH  17  20
ENDBRANCH   2  16
TORSDOF 5
ENDMDL
MODEL 9
REMARK VINA RESULT:    -6.670      2.728      4.348
REMARK INTER + INTRA:          -9.358
REMARK INTER:                  -8.354
REMARK INTRA:                  -1.004
REMARK UNBOUND:                -0.738
REMARK  Name = 
REMARK  7 active torsions:
REMARK  status: ('A' for Active; 'I' for Inactive)
REMARK    1  A    between atoms: C_1  and  C_2
REMARK    2  A    between atoms: C_2  and  N_3
REMARK    3  A    between atoms: C_2  and  C_17
REMARK    4  A    between atoms: C_4  and  C_6
REMARK    5  A    between atoms: N_12  and  C_13
REMARK    6  A    between atoms: C_20  and  O_21
REMARK    7  A    between atoms: O_21  and  C_22
REMARK                            x       y       z     vdW  Elec       q    Type
REMARK                         _______ _______ _______ _____ _____    ______ ____
ROOT
ATOM      1  C   UNL     1      46.993   4.074  16.514  0.00  0.00    +0.000 C 
ATOM      2  C   UNL     1      47.652   4.733  15.296  0.00  0.00    +0.000 C 
ENDROOT
BRANCH   2   3
ATOM      3  C   UNL     1      46.798   4.611  14.051  0.00  0.00    +0.000 A 
ATOM      4  C   UNL     1      46.488   3.358  13.507  0.00  0.00    +0.000 A 
ATOM      5  C   UNL     1      45.689   3.267  12.366  0.00  0.00    +0.000 A 
ATOM      6  C   UNL     1      45.229   4.442  11.794  0.00  0.00    +0.000 A 
ATOM      7  N   UNL     1      45.501   5.664  12.299  0.00  0.00    +0.000 NA
ATOM      8  C   UNL     1      46.295   5.723  13.385  0.00  0.00    +0.000 A 
BRANCH   6   9
ATOM      9  O   UNL     1      44.483   4.350  10.631  0.00  0.00    +0.000 OA
BRANCH   9  10
ATOM     10  C   UNL     1      45.130   3.840   9.522  0.00  0.00    +0.000 A 
ATOM     11  C   UNL     1      45.128   2.484   9.192  0.00  0.00    +0.000 A 
ATOM     12  N   UNL     1      45.753   1.978   8.098  0.00  0.00    +0.000 NA
ATOM     13  C   UNL     1      46.371   2.899   7.331  0.00  0.00    +0.000 A 
ATOM     14  C   UNL     1      46.340   4.255   7.624  0.00  0.00    +0.000 A 
ATOM     15  N   UNL     1      45.711   4.759   8.712  0.00  0.00    +0.000 NA
ENDBRANCH   9  10
ENDBRANCH   6   9
ENDBRANCH   2   3
BRANCH   2  16
ATOM     16  N   UNL     1      47.917   6.128  15.595  0.00  0.00    +0.000 N 
ATOM     17  C   UNL     1      49.140   6.609  15.994  0.00  0.00    +0.000 C 
ATOM     18  O   UNL     1      50.079   5.876  16.287  0.00  0.00    +0.000 OA
ATOM     19  H   UNL     1      47.288   6.784  15.149  0.00  0.00    +0.000 HD
BRANCH  17  20
ATOM     20  C   UNL     1      49.237   8.073  16.101  0.00  0.00    +0.000 A 
ATOM     21  C   UNL     1      49.413   8.684  17.337  0.00  0.00    +0.000 A 
ATOM     22  S   UNL     1      49.464  10.391  17.247  0.00  0.00    +0.000 S 
ATOM     23  C   UNL     1      49.307  10.366  15.551  0.00  0.00    +0.000 A 
ATOM     24  N   UNL     1      49.308  11.513  14.824  0.00  0.00    +0.000 NA
ATOM     25  C   UNL     1      49.213  11.337  13.545  0.00  0.00    +0.000 A 
ATOM     26  N   UNL     1      49.107  10.119  12.908  0.00  0.00    +0.000 N 
ATOM     27  C   UNL     1      48.993  10.023  11.470  0.00  0.00    +0.000 C 
ATOM     28  C   UNL     1      49.054   8.936  13.627  0.00  0.00    +0.000 A 
ATOM     29  O   UNL     1      48.864   7.844  13.088  0.00  0.00    +0.000 OA
ATOM     30  C   UNL     1      49.189   9.079  15.066  0.00  0.00    +0.000 A 
ENDBRANCH  17  20
ENDBRANCH   2  16
TORSDOF 5
ENDMDL
