MODEL 1
REMARK VINA RESULT:    -7.833      0.000      0.000
REMARK INTER + INTRA:         -12.260
REMARK INTER:                 -11.038
REMARK INTRA:                  -1.222
REMARK UNBOUND:                -1.222
REMARK  Name = 
REMARK  7 active torsions:
REMARK  status: ('A' for Active; 'I' for Inactive)
REMARK    1  A    between atoms: C_2  and  C_20
REMARK    2  A    between atoms: N_3  and  C_4
REMARK    3  A    between atoms: C_4  and  C_5
REMARK    4  A    between atoms: C_8  and  C_9
REMARK    5  A    between atoms: C_9  and  N_10
REMARK    6  A    between atoms: N_10  and  C_11
REMARK    7  A    between atoms: C_11  and  C_12
REMARK                            x       y       z     vdW  Elec       q    Type
REMARK                         _______ _______ _______ _____ _____    ______ ____
ROOT
ATOM      1  C   UNL     1      46.138   6.739  12.423  0.00  0.00    +0.000 A 
ATOM      2  C   UNL     1      45.277   5.815  13.018  0.00  0.00    +0.000 A 
ATOM      3  C   UNL     1      44.611   4.865  12.241  0.00  0.00    +0.000 A 
ATOM      4  C   UNL     1      44.762   4.840  10.848  0.00  0.00    +0.000 A 
ATOM      5  C   UNL     1      45.692   5.716  10.267  0.00  0.00    +0.000 A 
ATOM      6  C   UNL     1      46.379   6.652  11.046  0.00  0.00    +0.000 A 
ENDROOT
BRANCH   1   7
ATOM      7  C   UNL     1      46.811   7.790  13.264  0.00  0.00    +0.000 C 
BRANCH   7  10
ATOM      8  O   UNL     1      49.402   6.715  13.528  0.00  0.00    +0.000 OA
ATOM      9  C   UNL     1      48.668   6.764  14.513  0.00  0.00    +0.000 C 
ATOM     10  N   UNL     1      47.380   7.221  14.454  0.00  0.00    +0.000 N 
ATOM     11  H   UNL     1      46.881   7.412  15.316  0.00  0.00    +0.000 HD
BRANCH   9  12
ATOM     12  C   UNL     1      49.115   6.271  15.822  0.00  0.00    +0.000 A 
ATOM     13  C   UNL     1      50.115   6.944  16.508  0.00  0.00    +0.000 A 
ATOM     14  S   UNL     1      50.540   6.218  17.989  0.00  0.00    +0.000 S 
ATOM     15  C   UNL     1      49.361   5.008  17.795  0.00  0.00    +0.000 A 
ATOM     16  N   UNL     1      49.175   4.054  18.746  0.00  0.00    +0.000 NA
ATOM     17  C   UNL     1      48.217   3.227  18.493  0.00  0.00    +0.000 A 
ATOM     18  N   UNL     1      47.435   3.257  17.370  0.00  0.00    +0.000 N 
ATOM     19  C   UNL     1      47.638   4.152  16.347  0.00  0.00    +0.000 A 
ATOM     20  O   UNL     1      47.009   4.064  15.296  0.00  0.00    +0.000 OA
ATOM     21  C   UNL     1      48.672   5.138  16.602  0.00  0.00    +0.000 A 
ATOM     22  H   UNL     1      46.718   2.564  17.217  0.00  0.00    +0.000 HD
ENDBRANCH   9  12
ENDBRANCH   7  10
ENDBRANCH   1   7
BRANCH   4  23
ATOM     23  C   UNL     1      44.007   3.884   9.949  0.00  0.00    +0.000 C 
BRANCH  23  24
ATOM     24  N   UNL     1      43.929   4.241   8.529  0.00  0.00    +0.000 NA
ATOM     25  H   UNL     1      44.302   5.177   8.420  0.00  0.00    +0.000 HD
BRANCH  24  26
ATOM     26  C   UNL     1      44.601   3.304   7.625  0.00  0.00    +0.000 C 
BRANCH  26  27
ATOM     27  C   UNL     1      46.069   3.071   8.053  0.00  0.00    +0.000 C 
ATOM     28  C   UNL     1      47.042   3.643   7.005  0.00  0.00    +0.000 C 
ATOM     29  C   UNL     1      47.270   2.696   5.827  0.00  0.00    +0.000 C 
ATOM     30  N   UNL     1      47.787   1.410   6.292  0.00  0.00    +0.000 NA
ATOM     31  C   UNL     1      46.805   0.757   7.156  0.00  0.00    +0.000 C 
ATOM     32  C   UNL     1      46.438   1.604   8.371  0.00  0.00    +0.000 C 
ATOM     33  H   UNL     1      48.650   1.563   6.817  0.00  0.00    +0.000 HD
ENDBRANCH  26  27
ENDBRANCH  24  26
ENDBRANCH  23  24
ENDBRANCH   4  23
TORSDOF 7
ENDMDL
MODEL 2
REMARK VINA RESULT:    -7.532      1.881      2.203
REMARK INTER + INTRA:         -11.837
REMARK INTER:                 -10.820
REMARK INTRA:                  -1.017
REMARK UNBOUND:                -1.222
REMARK  Name = 
REMARK  7 active torsions:
REMARK  status: ('A' for Active; 'I' for Inactive)
REMARK    1  A    between atoms: C_2  and  C_20
REMARK    2  A    between atoms: N_3  and  C_4
REMARK    3  A    between atoms: C_4  and  C_5
REMARK    4  A    between atoms: C_8  and  C_9
REMARK    5  A    between atoms: C_9  and  N_10
REMARK    6  A    between atoms: N_10  and  C_11
REMARK    7  A    between atoms: C_11  and  C_12
REMARK                            x       y       z     vdW  Elec       q    Type
REMARK                         _______ _______ _______ _____ _____    ______ ____
ROOT
ATOM      1  C   UNL     1      46.709   6.045  12.676  0.00  0.00    +0.000 A 
ATOM      2  C   UNL     1      46.132   4.845  13.097  0.00  0.00    +0.000 A 
ATOM      3  C   UNL     1      45.305   4.118  12.239  0.00  0.00    +0.000 A 
ATOM      4  C   UNL     1      45.006   4.591  10.954  0.00  0.00    +0.000 A 
ATOM      5  C   UNL     1      45.655   5.753  10.509  0.00  0.00    +0.000 A 
ATOM      6  C   UNL     1      46.503   6.470  11.358  0.00  0.00    +0.000 A 
ENDROOT
BRANCH   1   7
ATOM      7  C   UNL     1      47.558   6.846  13.627  0.00  0.00    +0.000 C 
BRANCH   7  10
ATOM      8  O   UNL     1      49.821   6.636  15.292  0.00  0.00    +0.000 OA
ATOM      9  C   UNL     1      48.737   6.218  15.695  0.00  0.00    +0.000 C 
ATOM     10  N   UNL     1      47.605   6.235  14.925  0.00  0.00    +0.000 N 
ATOM     11  H   UNL     1      46.708   6.052  15.360  0.00  0.00    +0.000 HD
BRANCH   9  12
ATOM     12  C   UNL     1      48.600   5.611  17.025  0.00  0.00    +0.000 A 
ATOM     13  C   UNL     1      48.789   4.247  17.184  0.00  0.00    +0.000 A 
ATOM     14  S   UNL     1      48.554   3.702  18.781  0.00  0.00    +0.000 S 
ATOM     15  C   UNL     1      48.247   5.282  19.330  0.00  0.00    +0.000 A 
ATOM     16  N   UNL     1      47.992   5.528  20.643  0.00  0.00    +0.000 NA
ATOM     17  C   UNL     1      47.823   6.775  20.929  0.00  0.00    +0.000 A 
ATOM     18  N   UNL     1      47.874   7.799  20.023  0.00  0.00    +0.000 N 
ATOM     19  C   UNL     1      48.049   7.591  18.676  0.00  0.00    +0.000 A 
ATOM     20  O   UNL     1      47.953   8.516  17.875  0.00  0.00    +0.000 OA
ATOM     21  C   UNL     1      48.294   6.209  18.304  0.00  0.00    +0.000 A 
ATOM     22  H   UNL     1      47.706   8.753  20.306  0.00  0.00    +0.000 HD
ENDBRANCH   9  12
ENDBRANCH   7  10
ENDBRANCH   1   7
BRANCH   4  23
ATOM     23  C   UNL     1      44.056   3.884  10.011  0.00  0.00    +0.000 C 
BRANCH  23  24
ATOM     24  N   UNL     1      44.093   4.303   8.606  0.00  0.00    +0.000 NA
ATOM     25  H   UNL     1      44.579   5.191   8.556  0.00  0.00    +0.000 HD
BRANCH  24  26
ATOM     26  C   UNL     1      44.695   3.328   7.694  0.00  0.00    +0.000 C 
BRANCH  26  27
ATOM     27  C   UNL     1      46.161   3.026   8.084  0.00  0.00    +0.000 C 
ATOM     28  C   UNL     1      47.136   3.634   7.059  0.00  0.00    +0.000 C 
ATOM     29  C   UNL     1      47.321   2.754   5.823  0.00  0.00    +0.000 C 
ATOM     30  N   UNL     1      47.805   1.428   6.201  0.00  0.00    +0.000 NA
ATOM     31  C   UNL     1      46.816   0.752   7.039  0.00  0.00    +0.000 C 
ATOM     32  C   UNL     1      46.490   1.533   8.308  0.00  0.00    +0.000 C 
ATOM     33  H   UNL     1      48.680   1.523   6.722  0.00  0.00    +0.000 HD
ENDBRANCH  26  27
ENDBRANCH  24  26
ENDBRANCH  23  24
ENDBRANCH   4  23
TORSDOF 7
ENDMDL
MODEL 3
REMARK VINA RESULT:    -7.019      3.286      8.047
REMARK INTER + INTRA:         -11.113
REMARK INTER:                  -9.928
REMARK INTRA:                  -1.185
REMARK UNBOUND:                -1.222
REMARK  Name = 
REMARK  7 active torsions:
REMARK  status: ('A' for Active; 'I' for Inactive)
REMARK    1  A    between atoms: C_2  and  C_20
REMARK    2  A    between atoms: N_3  and  C_4
REMARK    3  A    between atoms: C_4  and  C_5
REMARK    4  A    between atoms: C_8  and  C_9
REMARK    5  A    between atoms: C_9  and  N_10
REMARK    6  A    between atoms: N_10  and  C_11
REMARK    7  A    between atoms: C_11  and  C_12
REMARK                            x       y       z     vdW  Elec       q    Type
REMARK                         _______ _______ _______ _____ _____    ______ ____
ROOT
ATOM      1  C   UNL     1      48.943   7.785  13.389  0.00  0.00    +0.000 A 
ATOM      2  C   UNL     1      48.314   6.989  14.349  0.00  0.00    +0.000 A 
ATOM      3  C   UNL     1      48.990   6.618  15.513  0.00  0.00    +0.000 A 
ATOM      4  C   UNL     1      50.321   7.003  15.728  0.00  0.00    +0.000 A 
ATOM      5  C   UNL     1      50.917   7.870  14.800  0.00  0.00    +0.000 A 
ATOM      6  C   UNL     1      50.233   8.264  13.645  0.00  0.00    +0.000 A 
ENDROOT
BRANCH   1   7
ATOM      7  C   UNL     1      48.221   8.137  12.116  0.00  0.00    +0.000 C 
BRANCH   7  10
ATOM      8  O   UNL     1      45.431   7.909  11.796  0.00  0.00    +0.000 OA
ATOM      9  C   UNL     1      46.157   6.992  11.416  0.00  0.00    +0.000 C 
ATOM     10  N   UNL     1      47.515   7.005  11.585  0.00  0.00    +0.000 N 
ATOM     11  H   UNL     1      48.082   6.320  11.097  0.00  0.00    +0.000 HD
BRANCH   9  12
ATOM     12  C   UNL     1      45.598   5.781  10.801  0.00  0.00    +0.000 A 
ATOM     13  C   UNL     1      45.838   5.514   9.462  0.00  0.00    +0.000 A 
ATOM     14  S   UNL     1      45.084   4.094   8.899  0.00  0.00    +0.000 S 
ATOM     15  C   UNL     1      44.456   3.753  10.443  0.00  0.00    +0.000 A 
ATOM     16  N   UNL     1      43.718   2.633  10.665  0.00  0.00    +0.000 NA
ATOM     17  C   UNL     1      43.345   2.474  11.890  0.00  0.00    +0.000 A 
ATOM     18  N   UNL     1      43.631   3.337  12.913  0.00  0.00    +0.000 N 
ATOM     19  C   UNL     1      44.305   4.519  12.721  0.00  0.00    +0.000 A 
ATOM     20  O   UNL     1      44.425   5.334  13.631  0.00  0.00    +0.000 OA
ATOM     21  C   UNL     1      44.792   4.725  11.369  0.00  0.00    +0.000 A 
ATOM     22  H   UNL     1      43.286   3.171  13.846  0.00  0.00    +0.000 HD
ENDBRANCH   9  12
ENDBRANCH   7  10
ENDBRANCH   1   7
BRANCH   4  23
ATOM     23  C   UNL     1      51.126   6.566  16.933  0.00  0.00    +0.000 C 
BRANCH  23  24
ATOM     24  N   UNL     1      50.505   5.570  17.812  0.00  0.00    +0.000 NA
ATOM     25  H   UNL     1      49.527   5.813  17.920  0.00  0.00    +0.000 HD
BRANCH  24  26
ATOM     26  C   UNL     1      50.651   4.183  17.362  0.00  0.00    +0.000 C 
BRANCH  26  27
ATOM     27  C   UNL     1      49.553   3.279  17.973  0.00  0.00    +0.000 C 
ATOM     28  C   UNL     1      48.923   2.379  16.894  0.00  0.00    +0.000 C 
ATOM     29  C   UNL     1      47.838   3.092  16.087  0.00  0.00    +0.000 C 
ATOM     30  N   UNL     1      46.778   3.582  16.966  0.00  0.00    +0.000 NA
ATOM     31  C   UNL     1      47.315   4.575  17.895  0.00  0.00    +0.000 C 
ATOM     32  C   UNL     1      48.447   4.022  18.755  0.00  0.00    +0.000 C 
ATOM     33  H   UNL     1      46.391   2.798  17.497  0.00  0.00    +0.000 HD
ENDBRANCH  26  27
ENDBRANCH  24  26
ENDBRANCH  23  24
ENDBRANCH   4  23
TORSDOF 7
ENDMDL
MODEL 4
REMARK VINA RESULT:    -6.961      2.842      8.544
REMARK INTER + INTRA:         -11.032
REMARK INTER:                  -9.809
REMARK INTRA:                  -1.223
REMARK UNBOUND:                -1.222
REMARK  Name = 
REMARK  7 active torsions:
REMARK  status: ('A' for Active; 'I' for Inactive)
REMARK    1  A    between atoms: C_2  and  C_20
REMARK    2  A    between atoms: N_3  and  C_4
REMARK    3  A    between atoms: C_4  and  C_5
REMARK    4  A    between atoms: C_8  and  C_9
REMARK    5  A    between atoms: C_9  and  N_10
REMARK    6  A    between atoms: N_10  and  C_11
REMARK    7  A    between atoms: C_11  and  C_12
REMARK                            x       y       z     vdW  Elec       q    Type
REMARK                         _______ _______ _______ _____ _____    ______ ____
ROOT
ATOM      1  C   UNL     1      48.597   7.552  13.212  0.00  0.00    +0.000 A 
ATOM      2  C   UNL     1      48.055   7.038  14.392  0.00  0.00    +0.000 A 
ATOM      3  C   UNL     1      48.847   6.903  15.534  0.00  0.00    +0.000 A 
ATOM      4  C   UNL     1      50.206   7.244  15.513  0.00  0.00    +0.000 A 
ATOM      5  C   UNL     1      50.722   7.837  14.351  0.00  0.00    +0.000 A 
ATOM      6  C   UNL     1      49.924   7.997  13.213  0.00  0.00    +0.000 A 
ENDROOT
BRANCH   1   7
ATOM      7  C   UNL     1      47.746   7.646  11.973  0.00  0.00    +0.000 C 
BRANCH   7  10
ATOM      8  O   UNL     1      44.940   7.432  12.097  0.00  0.00    +0.000 OA
ATOM      9  C   UNL     1      45.606   6.441  11.805  0.00  0.00    +0.000 C 
ATOM     10  N   UNL     1      46.975   6.451  11.777  0.00  0.00    +0.000 N 
ATOM     11  H   UNL     1      47.468   5.671  11.358  0.00  0.00    +0.000 HD
BRANCH   9  12
ATOM     12  C   UNL     1      44.969   5.149  11.522  0.00  0.00    +0.000 A 
ATOM     13  C   UNL     1      44.219   4.519  12.504  0.00  0.00    +0.000 A 
ATOM     14  S   UNL     1      43.584   3.013  12.024  0.00  0.00    +0.000 S 
ATOM     15  C   UNL     1      44.241   3.175  10.463  0.00  0.00    +0.000 A 
ATOM     16  N   UNL     1      44.039   2.219   9.518  0.00  0.00    +0.000 NA
ATOM     17  C   UNL     1      44.552   2.491   8.365  0.00  0.00    +0.000 A 
ATOM     18  N   UNL     1      45.260   3.625   8.072  0.00  0.00    +0.000 N 
ATOM     19  C   UNL     1      45.556   4.580   9.015  0.00  0.00    +0.000 A 
ATOM     20  O   UNL     1      46.307   5.515   8.754  0.00  0.00    +0.000 OA
ATOM     21  C   UNL     1      44.960   4.348  10.319  0.00  0.00    +0.000 A 
ATOM     22  H   UNL     1      45.661   3.767   7.157  0.00  0.00    +0.000 HD
ENDBRANCH   9  12
ENDBRANCH   7  10
ENDBRANCH   1   7
BRANCH   4  23
ATOM     23  C   UNL     1      51.129   7.047  16.697  0.00  0.00    +0.000 C 
BRANCH  23  24
ATOM     24  N   UNL     1      50.667   6.130  17.744  0.00  0.00    +0.000 NA
ATOM     25  H   UNL     1      49.716   6.384  17.985  0.00  0.00    +0.000 HD
BRANCH  24  26
ATOM     26  C   UNL     1      50.755   4.710  17.396  0.00  0.00    +0.000 C 
BRANCH  26  27
ATOM     27  C   UNL     1      49.805   3.859  18.272  0.00  0.00    +0.000 C 
ATOM     28  C   UNL     1      49.046   2.829  17.415  0.00  0.00    +0.000 C 
ATOM     29  C   UNL     1      47.820   3.423  16.722  0.00  0.00    +0.000 C 
ATOM     30  N   UNL     1      46.895   3.988  17.704  0.00  0.00    +0.000 NA
ATOM     31  C   UNL     1      47.534   5.092  18.418  0.00  0.00    +0.000 C 
ATOM     32  C   UNL     1      48.810   4.664  19.138  0.00  0.00    +0.000 C 
ATOM     33  H   UNL     1      46.629   3.262  18.372  0.00  0.00    +0.000 HD
ENDBRANCH  26  27
ENDBRANCH  24  26
ENDBRANCH  23  24
ENDBRANCH   4  23
TORSDOF 7
ENDMDL
MODEL 5
REMARK VINA RESULT:    -6.956      1.290      1.780
REMARK INTER + INTRA:         -11.024
REMARK INTER:                  -9.906
REMARK INTRA:                  -1.118
REMARK UNBOUND:                -1.222
REMARK  Name = 
REMARK  7 active torsions:
REMARK  status: ('A' for Active; 'I' for Inactive)
REMARK    1  A    between atoms: C_2  and  C_20
REMARK    2  A    between atoms: N_3  and  C_4
REMARK    3  A    between atoms: C_4  and  C_5
REMARK    4  A    between atoms: C_8  and  C_9
REMARK    5  A    between atoms: C_9  and  N_10
REMARK    6  A    between atoms: N_10  and  C_11
REMARK    7  A    between atoms: C_11  and  C_12
REMARK                            x       y       z     vdW  Elec       q    Type
REMARK                         _______ _______ _______ _____ _____    ______ ____
ROOT
ATOM      1  C   UNL     1      46.546   6.729  12.897  0.00  0.00    +0.000 A 
ATOM      2  C   UNL     1      46.200   5.579  13.610  0.00  0.00    +0.000 A 
ATOM      3  C   UNL     1      45.160   4.760  13.170  0.00  0.00    +0.000 A 
ATOM      4  C   UNL     1      44.417   5.088  12.028  0.00  0.00    +0.000 A 
ATOM      5  C   UNL     1      44.823   6.197  11.271  0.00  0.00    +0.000 A 
ATOM      6  C   UNL     1      45.881   7.006  11.696  0.00  0.00    +0.000 A 
ENDROOT
BRANCH   1   7
ATOM      7  C   UNL     1      47.636   7.632  13.408  0.00  0.00    +0.000 C 
BRANCH   7  10
ATOM      8  O   UNL     1      50.233   7.450  14.486  0.00  0.00    +0.000 OA
ATOM      9  C   UNL     1      49.262   7.304  15.227  0.00  0.00    +0.000 C 
ATOM     10  N   UNL     1      47.972   7.325  14.770  0.00  0.00    +0.000 N 
ATOM     11  H   UNL     1      47.211   7.384  15.437  0.00  0.00    +0.000 HD
BRANCH   9  12
ATOM     12  C   UNL     1      49.431   7.036  16.661  0.00  0.00    +0.000 A 
ATOM     13  C   UNL     1      49.965   8.013  17.487  0.00  0.00    +0.000 A 
ATOM     14  S   UNL     1      50.129   7.525  19.111  0.00  0.00    +0.000 S 
ATOM     15  C   UNL     1      49.436   6.007  18.779  0.00  0.00    +0.000 A 
ATOM     16  N   UNL     1      49.254   5.091  19.768  0.00  0.00    +0.000 NA
ATOM     17  C   UNL     1      48.675   4.002  19.386  0.00  0.00    +0.000 A 
ATOM     18  N   UNL     1      48.273   3.738  18.105  0.00  0.00    +0.000 N 
ATOM     19  C   UNL     1      48.507   4.599  17.061  0.00  0.00    +0.000 A 
ATOM     20  O   UNL     1      48.257   4.274  15.904  0.00  0.00    +0.000 OA
ATOM     21  C   UNL     1      49.111   5.863  17.442  0.00  0.00    +0.000 A 
ATOM     22  H   UNL     1      47.850   2.855  17.864  0.00  0.00    +0.000 HD
ENDBRANCH   9  12
ENDBRANCH   7  10
ENDBRANCH   1   7
BRANCH   4  23
ATOM     23  C   UNL     1      43.231   4.279  11.549  0.00  0.00    +0.000 C 
BRANCH  23  24
ATOM     24  N   UNL     1      43.499   2.893  11.149  0.00  0.00    +0.000 NA
ATOM     25  H   UNL     1      42.705   2.563  10.612  0.00  0.00    +0.000 HD
BRANCH  24  26
ATOM     26  C   UNL     1      44.746   2.703  10.405  0.00  0.00    +0.000 C 
BRANCH  26  27
ATOM     27  C   UNL     1      44.475   2.539   8.891  0.00  0.00    +0.000 C 
ATOM     28  C   UNL     1      45.161   1.272   8.346  0.00  0.00    +0.000 C 
ATOM     29  C   UNL     1      46.639   1.490   8.023  0.00  0.00    +0.000 C 
ATOM     30  N   UNL     1      46.801   2.567   7.047  0.00  0.00    +0.000 NA
ATOM     31  C   UNL     1      46.315   3.828   7.605  0.00  0.00    +0.000 C 
ATOM     32  C   UNL     1      44.848   3.759   8.018  0.00  0.00    +0.000 C 
ATOM     33  H   UNL     1      46.267   2.342   6.205  0.00  0.00    +0.000 HD
ENDBRANCH  26  27
ENDBRANCH  24  26
ENDBRANCH  23  24
ENDBRANCH   4  23
TORSDOF 7
ENDMDL
MODEL 6
REMARK VINA RESULT:    -6.741      2.602      3.308
REMARK INTER + INTRA:         -10.721
REMARK INTER:                  -9.723
REMARK INTRA:                  -0.998
REMARK UNBOUND:                -1.222
REMARK  Name = 
REMARK  7 active torsions:
REMARK  status: ('A' for Active; 'I' for Inactive)
REMARK    1  A    between atoms: C_2  and  C_20
REMARK    2  A    between atoms: N_3  and  C_4
REMARK    3  A    between atoms: C_4  and  C_5
REMARK    4  A    between atoms: C_8  and  C_9
REMARK    5  A    between atoms: C_9  and  N_10
REMARK    6  A    between atoms: N_10  and  C_11
REMARK    7  A    between atoms: C_11  and  C_12
REMARK                            x       y       z     vdW  Elec       q    Type
REMARK                         _______ _______ _______ _____ _____    ______ ____
ROOT
ATOM      1  C   UNL     1      47.485   6.365  13.347  0.00  0.00    +0.000 A 
ATOM      2  C   UNL     1      46.740   5.285  13.827  0.00  0.00    +0.000 A 
ATOM      3  C   UNL     1      45.670   4.778  13.088  0.00  0.00    +0.000 A 
ATOM      4  C   UNL     1      45.296   5.360  11.869  0.00  0.00    +0.000 A 
ATOM      5  C   UNL     1      46.098   6.390  11.354  0.00  0.00    +0.000 A 
ATOM      6  C   UNL     1      47.186   6.883  12.081  0.00  0.00    +0.000 A 
ENDROOT
BRANCH   1   7
ATOM      7  C   UNL     1      48.604   6.934  14.176  0.00  0.00    +0.000 C 
BRANCH   7  10
ATOM      8  O   UNL     1      50.094   5.790  16.276  0.00  0.00    +0.000 OA
ATOM      9  C   UNL     1      49.069   6.417  16.538  0.00  0.00    +0.000 C 
ATOM     10  N   UNL     1      48.263   6.955  15.570  0.00  0.00    +0.000 N 
ATOM     11  H   UNL     1      47.538   7.611  15.838  0.00  0.00    +0.000 HD
BRANCH   9  12
ATOM     12  C   UNL     1      48.606   6.579  17.922  0.00  0.00    +0.000 A 
ATOM     13  C   UNL     1      48.631   5.497  18.789  0.00  0.00    +0.000 A 
ATOM     14  S   UNL     1      48.023   5.846  20.341  0.00  0.00    +0.000 S 
ATOM     15  C   UNL     1      47.757   7.475  19.927  0.00  0.00    +0.000 A 
ATOM     16  N   UNL     1      47.262   8.355  20.838  0.00  0.00    +0.000 NA
ATOM     17  C   UNL     1      47.154   9.566  20.406  0.00  0.00    +0.000 A 
ATOM     18  N   UNL     1      47.484   9.978  19.143  0.00  0.00    +0.000 N 
ATOM     19  C   UNL     1      47.913   9.111  18.167  0.00  0.00    +0.000 A 
ATOM     20  O   UNL     1      48.069   9.488  17.009  0.00  0.00    +0.000 OA
ATOM     21  C   UNL     1      48.100   7.742  18.614  0.00  0.00    +0.000 A 
ATOM     22  H   UNL     1      47.351  10.936  18.856  0.00  0.00    +0.000 HD
ENDBRANCH   9  12
ENDBRANCH   7  10
ENDBRANCH   1   7
BRANCH   4  23
ATOM     23  C   UNL     1      44.099   4.903  11.064  0.00  0.00    +0.000 C 
BRANCH  23  24
ATOM     24  N   UNL     1      43.926   3.455  10.909  0.00  0.00    +0.000 NA
ATOM     25  H   UNL     1      43.054   3.293  10.418  0.00  0.00    +0.000 HD
BRANCH  24  26
ATOM     26  C   UNL     1      45.036   2.775  10.237  0.00  0.00    +0.000 C 
BRANCH  26  27
ATOM     27  C   UNL     1      44.680   2.439   8.769  0.00  0.00    +0.000 C 
ATOM     28  C   UNL     1      45.378   1.141   8.321  0.00  0.00    +0.000 C 
ATOM     29  C   UNL     1      46.824   1.367   7.882  0.00  0.00    +0.000 C 
ATOM     30  N   UNL     1      46.887   2.335   6.788  0.00  0.00    +0.000 NA
ATOM     31  C   UNL     1      46.390   3.634   7.238  0.00  0.00    +0.000 C 
ATOM     32  C   UNL     1      44.954   3.567   7.749  0.00  0.00    +0.000 C 
ATOM     33  H   UNL     1      46.311   2.004   6.011  0.00  0.00    +0.000 HD
ENDBRANCH  26  27
ENDBRANCH  24  26
ENDBRANCH  23  24
ENDBRANCH   4  23
TORSDOF 7
ENDMDL
MODEL 7
REMARK VINA RESULT:    -6.734      1.595      2.432
REMARK INTER + INTRA:         -10.712
REMARK INTER:                  -9.760
REMARK INTRA:                  -0.952
REMARK UNBOUND:                -1.222
REMARK  Name = 
REMARK  7 active torsions:
REMARK  status: ('A' for Active; 'I' for Inactive)
REMARK    1  A    between atoms: C_2  and  C_20
REMARK    2  A    between atoms: N_3  and  C_4
REMARK    3  A    between atoms: C_4  and  C_5
REMARK    4  A    between atoms: C_8  and  C_9
REMARK    5  A    between atoms: C_9  and  N_10
REMARK    6  A    between atoms: N_10  and  C_11
REMARK    7  A    between atoms: C_11  and  C_12
REMARK                            x       y       z     vdW  Elec       q    Type
REMARK                         _______ _______ _______ _____ _____    ______ ____
ROOT
ATOM      1  C   UNL     1      46.088   7.017  12.393  0.00  0.00    +0.000 A 
ATOM      2  C   UNL     1      44.999   6.348  12.957  0.00  0.00    +0.000 A 
ATOM      3  C   UNL     1      44.291   5.399  12.217  0.00  0.00    +0.000 A 
ATOM      4  C   UNL     1      44.632   5.122  10.886  0.00  0.00    +0.000 A 
ATOM      5  C   UNL     1      45.777   5.735  10.355  0.00  0.00    +0.000 A 
ATOM      6  C   UNL     1      46.503   6.668  11.102  0.00  0.00    +0.000 A 
ENDROOT
BRANCH   1   7
ATOM      7  C   UNL     1      46.812   8.074  13.183  0.00  0.00    +0.000 C 
BRANCH   7  10
ATOM      8  O   UNL     1      49.257   6.677  13.270  0.00  0.00    +0.000 OA
ATOM      9  C   UNL     1      48.651   6.894  14.318  0.00  0.00    +0.000 C 
ATOM     10  N   UNL     1      47.433   7.518  14.352  0.00  0.00    +0.000 N 
ATOM     11  H   UNL     1      47.064   7.835  15.241  0.00  0.00    +0.000 HD
BRANCH   9  12
ATOM     12  C   UNL     1      49.176   6.439  15.612  0.00  0.00    +0.000 A 
ATOM     13  C   UNL     1      48.414   5.599  16.408  0.00  0.00    +0.000 A 
ATOM     14  S   UNL     1      49.153   5.200  17.890  0.00  0.00    +0.000 S 
ATOM     15  C   UNL     1      50.547   6.092  17.495  0.00  0.00    +0.000 A 
ATOM     16  N   UNL     1      51.607   6.144  18.344  0.00  0.00    +0.000 NA
ATOM     17  C   UNL     1      52.615   6.816  17.899  0.00  0.00    +0.000 A 
ATOM     18  N   UNL     1      52.657   7.452  16.688  0.00  0.00    +0.000 N 
ATOM     19  C   UNL     1      51.583   7.492  15.832  0.00  0.00    +0.000 A 
ATOM     20  O   UNL     1      51.607   8.184  14.819  0.00  0.00    +0.000 OA
ATOM     21  C   UNL     1      50.438   6.710  16.262  0.00  0.00    +0.000 A 
ATOM     22  H   UNL     1      53.467   7.986  16.408  0.00  0.00    +0.000 HD
ENDBRANCH   9  12
ENDBRANCH   7  10
ENDBRANCH   1   7
BRANCH   4  23
ATOM     23  C   UNL     1      43.854   4.160  10.013  0.00  0.00    +0.000 C 
BRANCH  23  24
ATOM     24  N   UNL     1      43.968   4.350   8.563  0.00  0.00    +0.000 NA
ATOM     25  H   UNL     1      44.529   5.179   8.399  0.00  0.00    +0.000 HD
BRANCH  24  26
ATOM     26  C   UNL     1      44.513   3.200   7.838  0.00  0.00    +0.000 C 
BRANCH  26  27
ATOM     27  C   UNL     1      46.008   2.983   8.174  0.00  0.00    +0.000 C 
ATOM     28  C   UNL     1      46.908   3.707   7.156  0.00  0.00    +0.000 C 
ATOM     29  C   UNL     1      47.116   2.905   5.872  0.00  0.00    +0.000 C 
ATOM     30  N   UNL     1      47.701   1.598   6.169  0.00  0.00    +0.000 NA
ATOM     31  C   UNL     1      46.786   0.814   6.996  0.00  0.00    +0.000 C 
ATOM     32  C   UNL     1      46.445   1.507   8.312  0.00  0.00    +0.000 C 
ATOM     33  H   UNL     1      48.582   1.729   6.671  0.00  0.00    +0.000 HD
ENDBRANCH  26  27
ENDBRANCH  24  26
ENDBRANCH  23  24
ENDBRANCH   4  23
TORSDOF 7
ENDMDL
MODEL 8
REMARK VINA RESULT:    -6.645      3.015      9.086
REMARK INTER + INTRA:         -10.587
REMARK INTER:                  -9.415
REMARK INTRA:                  -1.172
REMARK UNBOUND:                -1.222
REMARK  Name = 
REMARK  7 active torsions:
REMARK  status: ('A' for Active; 'I' for Inactive)
REMARK    1  A    between atoms: C_2  and  C_20
REMARK    2  A    between atoms: N_3  and  C_4
REMARK    3  A    between atoms: C_4  and  C_5
REMARK    4  A    between atoms: C_8  and  C_9
REMARK    5  A    between atoms: C_9  and  N_10
REMARK    6  A    between atoms: N_10  and  C_11
REMARK    7  A    between atoms: C_11  and  C_12
REMARK                            x       y       z     vdW  Elec       q    Type
REMARK                         _______ _______ _______ _____ _____    ______ ____
ROOT
ATOM      1  C   UNL     1      48.286   8.121  13.219  0.00  0.00    +0.000 A 
ATOM      2  C   UNL     1      48.400   9.460  13.600  0.00  0.00    +0.000 A 
ATOM      3  C   UNL     1      48.621   9.799  14.936  0.00  0.00    +0.000 A 
ATOM      4  C   UNL     1      48.696   8.811  15.928  0.00  0.00    +0.000 A 
ATOM      5  C   UNL     1      48.664   7.467  15.526  0.00  0.00    +0.000 A 
ATOM      6  C   UNL     1      48.468   7.124  14.185  0.00  0.00    +0.000 A 
ENDROOT
BRANCH   1   7
ATOM      7  C   UNL     1      47.998   7.769  11.784  0.00  0.00    +0.000 C 
BRANCH   7  10
ATOM      8  O   UNL     1      45.191   7.654  11.993  0.00  0.00    +0.000 OA
ATOM      9  C   UNL     1      45.819   6.625  11.751  0.00  0.00    +0.000 C 
ATOM     10  N   UNL     1      47.185   6.590  11.688  0.00  0.00    +0.000 N 
ATOM     11  H   UNL     1      47.643   5.768  11.309  0.00  0.00    +0.000 HD
BRANCH   9  12
ATOM     12  C   UNL     1      45.134   5.338  11.571  0.00  0.00    +0.000 A 
ATOM     13  C   UNL     1      44.431   4.777  12.626  0.00  0.00    +0.000 A 
ATOM     14  S   UNL     1      43.732   3.267  12.260  0.00  0.00    +0.000 S 
ATOM     15  C   UNL     1      44.297   3.335  10.657  0.00  0.00    +0.000 A 
ATOM     16  N   UNL     1      44.016   2.340   9.775  0.00  0.00    +0.000 NA
ATOM     17  C   UNL     1      44.465   2.542   8.582  0.00  0.00    +0.000 A 
ATOM     18  N   UNL     1      45.180   3.641   8.191  0.00  0.00    +0.000 N 
ATOM     19  C   UNL     1      45.555   4.633   9.066  0.00  0.00    +0.000 A 
ATOM     20  O   UNL     1      46.311   5.534   8.715  0.00  0.00    +0.000 OA
ATOM     21  C   UNL     1      45.034   4.481  10.412  0.00  0.00    +0.000 A 
ATOM     22  H   UNL     1      45.528   3.729   7.248  0.00  0.00    +0.000 HD
ENDBRANCH   9  12
ENDBRANCH   7  10
ENDBRANCH   1   7
BRANCH   4  23
ATOM     23  C   UNL     1      48.857   9.124  17.400  0.00  0.00    +0.000 C 
BRANCH  23  24
ATOM     24  N   UNL     1      47.881   8.517  18.311  0.00  0.00    +0.000 NA
ATOM     25  H   UNL     1      47.129   8.130  17.752  0.00  0.00    +0.000 HD
BRANCH  24  26
ATOM     26  C   UNL     1      48.435   7.505  19.213  0.00  0.00    +0.000 C 
BRANCH  26  27
ATOM     27  C   UNL     1      47.426   6.356  19.452  0.00  0.00    +0.000 C 
ATOM     28  C   UNL     1      47.581   5.778  20.871  0.00  0.00    +0.000 C 
ATOM     29  C   UNL     1      48.715   4.759  20.975  0.00  0.00    +0.000 C 
ATOM     30  N   UNL     1      48.504   3.655  20.040  0.00  0.00    +0.000 NA
ATOM     31  C   UNL     1      48.526   4.150  18.665  0.00  0.00    +0.000 C 
ATOM     32  C   UNL     1      47.466   5.217  18.409  0.00  0.00    +0.000 C 
ATOM     33  H   UNL     1      47.597   3.222  20.229  0.00  0.00    +0.000 HD
ENDBRANCH  26  27
ENDBRANCH  24  26
ENDBRANCH  23  24
ENDBRANCH   4  23
TORSDOF 7
ENDMDL
MODEL 9
REMARK VINA RESULT:    -6.515      1.970      2.927
REMARK INTER + INTRA:         -10.404
REMARK INTER:                  -9.043
REMARK INTRA:                  -1.361
REMARK UNBOUND:                -1.222
REMARK  Name = 
REMARK  7 active torsions:
REMARK  status: ('A' for Active; 'I' for Inactive)
REMARK    1  A    between atoms: C_2  and  C_20
REMARK    2  A    between atoms: N_3  and  C_4
REMARK    3  A    between atoms: C_4  and  C_5
REMARK    4  A    between atoms: C_8  and  C_9
REMARK    5  A    between atoms: C_9  and  N_10
REMARK    6  A    between atoms: N_10  and  C_11
REMARK    7  A    between atoms: C_11  and  C_12
REMARK                            x       y       z     vdW  Elec       q    Type
REMARK                         _______ _______ _______ _____ _____    ______ ____
ROOT
ATOM      1  C   UNL     1      48.306   8.129  13.369  0.00  0.00    +0.000 A 
ATOM      2  C   UNL     1      48.212   7.215  12.317  0.00  0.00    +0.000 A 
ATOM      3  C   UNL     1      47.022   7.081  11.599  0.00  0.00    +0.000 A 
ATOM      4  C   UNL     1      45.887   7.831  11.939  0.00  0.00    +0.000 A 
ATOM      5  C   UNL     1      46.014   8.805  12.941  0.00  0.00    +0.000 A 
ATOM      6  C   UNL     1      47.212   8.959  13.644  0.00  0.00    +0.000 A 
ENDROOT
BRANCH   1   7
ATOM      7  C   UNL     1      49.578   8.229  14.167  0.00  0.00    +0.000 C 
BRANCH   7  10
ATOM      8  O   UNL     1      48.833   8.700  16.842  0.00  0.00    +0.000 OA
ATOM      9  C   UNL     1      49.173   7.568  16.503  0.00  0.00    +0.000 C 
ATOM     10  N   UNL     1      49.600   7.272  15.237  0.00  0.00    +0.000 N 
ATOM     11  H   UNL     1      49.693   6.301  14.960  0.00  0.00    +0.000 HD
BRANCH   9  12
ATOM     12  C   UNL     1      49.200   6.459  17.465  0.00  0.00    +0.000 A 
ATOM     13  C   UNL     1      49.847   6.616  18.682  0.00  0.00    +0.000 A 
ATOM     14  S   UNL     1      49.818   5.222  19.661  0.00  0.00    +0.000 S 
ATOM     15  C   UNL     1      48.888   4.374  18.516  0.00  0.00    +0.000 A 
ATOM     16  N   UNL     1      48.483   3.098  18.752  0.00  0.00    +0.000 NA
ATOM     17  C   UNL     1      47.744   2.592  17.823  0.00  0.00    +0.000 A 
ATOM     18  N   UNL     1      47.383   3.238  16.672  0.00  0.00    +0.000 N 
ATOM     19  C   UNL     1      47.833   4.497  16.355  0.00  0.00    +0.000 A 
ATOM     20  O   UNL     1      47.603   4.993  15.256  0.00  0.00    +0.000 OA
ATOM     21  C   UNL     1      48.628   5.134  17.389  0.00  0.00    +0.000 A 
ATOM     22  H   UNL     1      46.825   2.777  15.969  0.00  0.00    +0.000 HD
ENDBRANCH   9  12
ENDBRANCH   7  10
ENDBRANCH   1   7
BRANCH   4  23
ATOM     23  C   UNL     1      44.550   7.672  11.247  0.00  0.00    +0.000 C 
BRANCH  23  24
ATOM     24  N   UNL     1      43.691   6.582  11.722  0.00  0.00    +0.000 NA
ATOM     25  H   UNL     1      42.789   6.977  11.962  0.00  0.00    +0.000 HD
BRANCH  24  26
ATOM     26  C   UNL     1      43.540   5.469  10.782  0.00  0.00    +0.000 C 
BRANCH  26  27
ATOM     27  C   UNL     1      44.863   4.682  10.629  0.00  0.00    +0.000 C 
ATOM     28  C   UNL     1      45.392   4.775   9.186  0.00  0.00    +0.000 C 
ATOM     29  C   UNL     1      44.726   3.772   8.244  0.00  0.00    +0.000 C 
ATOM     30  N   UNL     1      44.918   2.405   8.726  0.00  0.00    +0.000 NA
ATOM     31  C   UNL     1      44.272   2.236  10.026  0.00  0.00    +0.000 C 
ATOM     32  C   UNL     1      44.805   3.204  11.077  0.00  0.00    +0.000 C 
ATOM     33  H   UNL     1      45.919   2.218   8.820  0.00  0.00    +0.000 HD
ENDBRANCH  26  27
ENDBRANCH  24  26
ENDBRANCH  23  24
ENDBRANCH   4  23
TORSDOF 7
ENDMDL
