MODEL 1
REMARK VINA RESULT:    -7.763      0.000      0.000
REMARK INTER + INTRA:         -11.143
REMARK INTER:                 -10.260
REMARK INTRA:                  -0.884
REMARK UNBOUND:                -0.884
REMARK  Name = 
REMARK  6 active torsions:
REMARK  status: ('A' for Active; 'I' for Inactive)
REMARK    1  A    between atoms: N_1  and  C_2
REMARK    2  A    between atoms: C_2  and  C_3
REMARK    3  A    between atoms: C_6  and  C_7
REMARK    4  A    between atoms: C_7  and  O_8
REMARK    5  A    between atoms: O_8  and  C_9
REMARK    6  A    between atoms: C_12  and  C_13
REMARK                            x       y       z     vdW  Elec       q    Type
REMARK                         _______ _______ _______ _____ _____    ______ ____
ROOT
ATOM      1  C   UNL     1      43.763   3.358  12.002  0.00  0.00    +0.000 C 
ENDROOT
BRANCH   1   5
ATOM      2  C   UNL     1      46.443   6.525  13.210  0.00  0.00    +0.000 A 
ATOM      3  C   UNL     1      46.842   5.183  13.290  0.00  0.00    +0.000 A 
ATOM      4  C   UNL     1      45.968   4.157  12.930  0.00  0.00    +0.000 A 
ATOM      5  C   UNL     1      44.674   4.455  12.489  0.00  0.00    +0.000 A 
ATOM      6  C   UNL     1      44.263   5.796  12.429  0.00  0.00    +0.000 A 
ATOM      7  C   UNL     1      45.142   6.821  12.782  0.00  0.00    +0.000 A 
BRANCH   2   8
ATOM      8  C   UNL     1      47.406   7.620  13.586  0.00  0.00    +0.000 C 
BRANCH   8   9
ATOM      9  N   UNL     1      46.700   8.835  13.977  0.00  0.00    +0.000 NA
ATOM     10  H   UNL     1      45.698   8.668  13.944  0.00  0.00    +0.000 HD
ATOM     11  H   UNL     1      46.900   9.563  13.292  0.00  0.00    +0.000 HD
ENDBRANCH   8   9
ENDBRANCH   2   8
ENDBRANCH   1   5
BRANCH   1  12
ATOM     12  O   UNL     1      43.348   3.610  10.659  0.00  0.00    +0.000 OA
BRANCH  12  13
ATOM     13  C   UNL     1      44.294   3.385   9.694  0.00  0.00    +0.000 A 
ATOM     14  C   UNL     1      44.873   4.366   8.884  0.00  0.00    +0.000 A 
ATOM     15  C   UNL     1      45.797   4.013   7.901  0.00  0.00    +0.000 A 
ATOM     16  C   UNL     1      46.165   2.675   7.714  0.00  0.00    +0.000 A 
ATOM     17  C   UNL     1      45.615   1.699   8.557  0.00  0.00    +0.000 A 
ATOM     18  C   UNL     1      44.678   2.053   9.533  0.00  0.00    +0.000 A 
BRANCH  16  19
ATOM     19  C   UNL     1      47.115   2.281   6.609  0.00  0.00    +0.000 C 
ATOM     20  F   UNL     1      48.409   2.628   6.858  0.00  0.00    +0.000 F 
ATOM     21  F   UNL     1      47.125   0.941   6.375  0.00  0.00    +0.000 F 
ATOM     22  F   UNL     1      46.798   2.868   5.422  0.00  0.00    +0.000 F 
ENDBRANCH  16  19
ENDBRANCH  12  13
ENDBRANCH   1  12
TORSDOF 6
ENDMDL
MODEL 2
REMARK VINA RESULT:    -7.612      0.992      1.685
REMARK INTER + INTRA:         -10.944
REMARK INTER:                 -10.109
REMARK INTRA:                  -0.835
REMARK UNBOUND:                -0.884
REMARK  Name = 
REMARK  6 active torsions:
REMARK  status: ('A' for Active; 'I' for Inactive)
REMARK    1  A    between atoms: N_1  and  C_2
REMARK    2  A    between atoms: C_2  and  C_3
REMARK    3  A    between atoms: C_6  and  C_7
REMARK    4  A    between atoms: C_7  and  O_8
REMARK    5  A    between atoms: O_8  and  C_9
REMARK    6  A    between atoms: C_12  and  C_13
REMARK                            x       y       z     vdW  Elec       q    Type
REMARK                         _______ _______ _______ _____ _____    ______ ____
ROOT
ATOM      1  C   UNL     1      43.627   3.376  11.767  0.00  0.00    +0.000 C 
ENDROOT
BRANCH   1   5
ATOM      2  C   UNL     1      46.891   5.553  13.575  0.00  0.00    +0.000 A 
ATOM      3  C   UNL     1      45.800   6.236  13.019  0.00  0.00    +0.000 A 
ATOM      4  C   UNL     1      44.759   5.537  12.407  0.00  0.00    +0.000 A 
ATOM      5  C   UNL     1      44.796   4.140  12.333  0.00  0.00    +0.000 A 
ATOM      6  C   UNL     1      45.897   3.455  12.869  0.00  0.00    +0.000 A 
ATOM      7  C   UNL     1      46.933   4.156  13.488  0.00  0.00    +0.000 A 
BRANCH   2   8
ATOM      8  C   UNL     1      47.997   6.324  14.248  0.00  0.00    +0.000 C 
BRANCH   8   9
ATOM      9  N   UNL     1      48.202   5.868  15.618  0.00  0.00    +0.000 NA
ATOM     10  H   UNL     1      48.891   6.462  16.071  0.00  0.00    +0.000 HD
ATOM     11  H   UNL     1      48.594   4.927  15.594  0.00  0.00    +0.000 HD
ENDBRANCH   8   9
ENDBRANCH   2   8
ENDBRANCH   1   5
BRANCH   1  12
ATOM     12  O   UNL     1      43.370   3.777  10.421  0.00  0.00    +0.000 OA
BRANCH  12  13
ATOM     13  C   UNL     1      44.347   3.464   9.513  0.00  0.00    +0.000 A 
ATOM     14  C   UNL     1      45.020   4.380   8.700  0.00  0.00    +0.000 A 
ATOM     15  C   UNL     1      45.968   3.940   7.777  0.00  0.00    +0.000 A 
ATOM     16  C   UNL     1      46.266   2.578   7.654  0.00  0.00    +0.000 A 
ATOM     17  C   UNL     1      45.621   1.666   8.500  0.00  0.00    +0.000 A 
ATOM     18  C   UNL     1      44.661   2.108   9.416  0.00  0.00    +0.000 A 
BRANCH  16  19
ATOM     19  C   UNL     1      47.244   2.091   6.612  0.00  0.00    +0.000 C 
ATOM     20  F   UNL     1      47.309   0.733   6.521  0.00  0.00    +0.000 F 
ATOM     21  F   UNL     1      46.947   2.536   5.361  0.00  0.00    +0.000 F 
ATOM     22  F   UNL     1      48.516   2.505   6.866  0.00  0.00    +0.000 F 
ENDBRANCH  16  19
ENDBRANCH  12  13
ENDBRANCH   1  12
TORSDOF 6
ENDMDL
MODEL 3
REMARK VINA RESULT:    -7.352      4.156      6.631
REMARK INTER + INTRA:         -10.600
REMARK INTER:                  -9.764
REMARK INTRA:                  -0.835
REMARK UNBOUND:                -0.884
REMARK  Name = 
REMARK  6 active torsions:
REMARK  status: ('A' for Active; 'I' for Inactive)
REMARK    1  A    between atoms: N_1  and  C_2
REMARK    2  A    between atoms: C_2  and  C_3
REMARK    3  A    between atoms: C_6  and  C_7
REMARK    4  A    between atoms: C_7  and  O_8
REMARK    5  A    between atoms: O_8  and  C_9
REMARK    6  A    between atoms: C_12  and  C_13
REMARK                            x       y       z     vdW  Elec       q    Type
REMARK                         _______ _______ _______ _____ _____    ______ ____
ROOT
ATOM      1  C   UNL     1      43.757   4.365   9.962  0.00  0.00    +0.000 C 
ENDROOT
BRANCH   1   5
ATOM      2  C   UNL     1      46.673   2.258   7.570  0.00  0.00    +0.000 A 
ATOM      3  C   UNL     1      46.511   3.646   7.440  0.00  0.00    +0.000 A 
ATOM      4  C   UNL     1      45.549   4.324   8.189  0.00  0.00    +0.000 A 
ATOM      5  C   UNL     1      44.725   3.624   9.077  0.00  0.00    +0.000 A 
ATOM      6  C   UNL     1      44.868   2.233   9.192  0.00  0.00    +0.000 A 
ATOM      7  C   UNL     1      45.837   1.557   8.448  0.00  0.00    +0.000 A 
BRANCH   2   8
ATOM      8  C   UNL     1      47.729   1.546   6.766  0.00  0.00    +0.000 C 
BRANCH   8   9
ATOM      9  N   UNL     1      48.646   2.491   6.140  0.00  0.00    +0.000 NA
ATOM     10  H   UNL     1      49.602   2.234   6.367  0.00  0.00    +0.000 HD
ATOM     11  H   UNL     1      48.485   3.415   6.540  0.00  0.00    +0.000 HD
ENDBRANCH   8   9
ENDBRANCH   2   8
ENDBRANCH   1   5
BRANCH   1  12
ATOM     12  O   UNL     1      43.995   4.057  11.336  0.00  0.00    +0.000 OA
BRANCH  12  13
ATOM     13  C   UNL     1      44.968   4.801  11.949  0.00  0.00    +0.000 A 
ATOM     14  C   UNL     1      45.280   6.131  11.651  0.00  0.00    +0.000 A 
ATOM     15  C   UNL     1      46.324   6.775  12.313  0.00  0.00    +0.000 A 
ATOM     16  C   UNL     1      47.071   6.107  13.290  0.00  0.00    +0.000 A 
ATOM     17  C   UNL     1      46.728   4.788  13.618  0.00  0.00    +0.000 A 
ATOM     18  C   UNL     1      45.689   4.139  12.943  0.00  0.00    +0.000 A 
BRANCH  16  19
ATOM     19  C   UNL     1      48.242   6.780  13.963  0.00  0.00    +0.000 C 
ATOM     20  F   UNL     1      48.563   6.233  15.170  0.00  0.00    +0.000 F 
ATOM     21  F   UNL     1      49.379   6.731  13.217  0.00  0.00    +0.000 F 
ATOM     22  F   UNL     1      48.010   8.099  14.206  0.00  0.00    +0.000 F 
ENDBRANCH  16  19
ENDBRANCH  12  13
ENDBRANCH   1  12
TORSDOF 6
ENDMDL
MODEL 4
REMARK VINA RESULT:    -7.318      4.174      6.633
REMARK INTER + INTRA:         -10.555
REMARK INTER:                  -9.745
REMARK INTRA:                  -0.811
REMARK UNBOUND:                -0.884
REMARK  Name = 
REMARK  6 active torsions:
REMARK  status: ('A' for Active; 'I' for Inactive)
REMARK    1  A    between atoms: N_1  and  C_2
REMARK    2  A    between atoms: C_2  and  C_3
REMARK    3  A    between atoms: C_6  and  C_7
REMARK    4  A    between atoms: C_7  and  O_8
REMARK    5  A    between atoms: O_8  and  C_9
REMARK    6  A    between atoms: C_12  and  C_13
REMARK                            x       y       z     vdW  Elec       q    Type
REMARK                         _______ _______ _______ _____ _____    ______ ____
ROOT
ATOM      1  C   UNL     1      43.764   4.413   9.955  0.00  0.00    +0.000 C 
ENDROOT
BRANCH   1   5
ATOM      2  C   UNL     1      46.670   2.332   7.527  0.00  0.00    +0.000 A 
ATOM      3  C   UNL     1      45.858   1.629   8.430  0.00  0.00    +0.000 A 
ATOM      4  C   UNL     1      44.941   2.302   9.237  0.00  0.00    +0.000 A 
ATOM      5  C   UNL     1      44.824   3.694   9.162  0.00  0.00    +0.000 A 
ATOM      6  C   UNL     1      45.650   4.403   8.276  0.00  0.00    +0.000 A 
ATOM      7  C   UNL     1      46.562   3.727   7.463  0.00  0.00    +0.000 A 
BRANCH   2   8
ATOM      8  C   UNL     1      47.642   1.587   6.651  0.00  0.00    +0.000 C 
BRANCH   8   9
ATOM      9  N   UNL     1      48.718   2.458   6.194  0.00  0.00    +0.000 NA
ATOM     10  H   UNL     1      48.324   3.232   5.666  0.00  0.00    +0.000 HD
ATOM     11  H   UNL     1      49.311   1.935   5.551  0.00  0.00    +0.000 HD
ENDBRANCH   8   9
ENDBRANCH   2   8
ENDBRANCH   1   5
BRANCH   1  12
ATOM     12  O   UNL     1      43.925   4.162  11.351  0.00  0.00    +0.000 OA
BRANCH  12  13
ATOM     13  C   UNL     1      44.911   4.880  11.973  0.00  0.00    +0.000 A 
ATOM     14  C   UNL     1      45.288   6.187  11.649  0.00  0.00    +0.000 A 
ATOM     15  C   UNL     1      46.340   6.804  12.325  0.00  0.00    +0.000 A 
ATOM     16  C   UNL     1      47.030   6.132  13.340  0.00  0.00    +0.000 A 
ATOM     17  C   UNL     1      46.622   4.838  13.692  0.00  0.00    +0.000 A 
ATOM     18  C   UNL     1      45.575   4.215  13.004  0.00  0.00    +0.000 A 
BRANCH  16  19
ATOM     19  C   UNL     1      48.211   6.773  14.029  0.00  0.00    +0.000 C 
ATOM     20  F   UNL     1      49.340   6.790  13.266  0.00  0.00    +0.000 F 
ATOM     21  F   UNL     1      47.977   8.066  14.381  0.00  0.00    +0.000 F 
ATOM     22  F   UNL     1      48.551   6.126  15.178  0.00  0.00    +0.000 F 
ENDBRANCH  16  19
ENDBRANCH  12  13
ENDBRANCH   1  12
TORSDOF 6
ENDMDL
MODEL 5
REMARK VINA RESULT:    -7.094      1.796      2.457
REMARK INTER + INTRA:         -10.259
REMARK INTER:                  -9.593
REMARK INTRA:                  -0.666
REMARK UNBOUND:                -0.884
REMARK  Name = 
REMARK  6 active torsions:
REMARK  status: ('A' for Active; 'I' for Inactive)
REMARK    1  A    between atoms: N_1  and  C_2
REMARK    2  A    between atoms: C_2  and  C_3
REMARK    3  A    between atoms: C_6  and  C_7
REMARK    4  A    between atoms: C_7  and  O_8
REMARK    5  A    between atoms: O_8  and  C_9
REMARK    6  A    between atoms: C_12  and  C_13
REMARK                            x       y       z     vdW  Elec       q    Type
REMARK                         _______ _______ _______ _____ _____    ______ ____
ROOT
ATOM      1  C   UNL     1      45.238   6.070  10.880  0.00  0.00    +0.000 C 
ENDROOT
BRANCH   1   5
ATOM      2  C   UNL     1      47.029   4.856  14.619  0.00  0.00    +0.000 A 
ATOM      3  C   UNL     1      45.854   4.244  14.158  0.00  0.00    +0.000 A 
ATOM      4  C   UNL     1      45.257   4.655  12.967  0.00  0.00    +0.000 A 
ATOM      5  C   UNL     1      45.821   5.693  12.217  0.00  0.00    +0.000 A 
ATOM      6  C   UNL     1      46.983   6.323  12.686  0.00  0.00    +0.000 A 
ATOM      7  C   UNL     1      47.584   5.904  13.875  0.00  0.00    +0.000 A 
BRANCH   2   8
ATOM      8  C   UNL     1      47.669   4.387  15.899  0.00  0.00    +0.000 C 
BRANCH   8   9
ATOM      9  N   UNL     1      46.717   3.663  16.734  0.00  0.00    +0.000 NA
ATOM     10  H   UNL     1      47.162   2.831  17.110  0.00  0.00    +0.000 HD
ATOM     11  H   UNL     1      45.945   3.347  16.149  0.00  0.00    +0.000 HD
ENDBRANCH   8   9
ENDBRANCH   2   8
ENDBRANCH   1   5
BRANCH   1  12
ATOM     12  O   UNL     1      44.363   5.046  10.406  0.00  0.00    +0.000 OA
BRANCH  12  13
ATOM     13  C   UNL     1      44.936   4.105   9.593  0.00  0.00    +0.000 A 
ATOM     14  C   UNL     1      44.805   2.721   9.739  0.00  0.00    +0.000 A 
ATOM     15  C   UNL     1      45.472   1.855   8.874  0.00  0.00    +0.000 A 
ATOM     16  C   UNL     1      46.276   2.354   7.843  0.00  0.00    +0.000 A 
ATOM     17  C   UNL     1      46.370   3.742   7.672  0.00  0.00    +0.000 A 
ATOM     18  C   UNL     1      45.712   4.610   8.549  0.00  0.00    +0.000 A 
BRANCH  16  19
ATOM     19  C   UNL     1      47.051   1.421   6.945  0.00  0.00    +0.000 C 
ATOM     20  F   UNL     1      48.402   1.521   7.094  0.00  0.00    +0.000 F 
ATOM     21  F   UNL     1      46.748   0.112   7.157  0.00  0.00    +0.000 F 
ATOM     22  F   UNL     1      46.807   1.654   5.626  0.00  0.00    +0.000 F 
ENDBRANCH  16  19
ENDBRANCH  12  13
ENDBRANCH   1  12
TORSDOF 6
ENDMDL
MODEL 6
REMARK VINA RESULT:    -6.748      1.349      2.175
REMARK INTER + INTRA:          -9.802
REMARK INTER:                  -9.092
REMARK INTRA:                  -0.710
REMARK UNBOUND:                -0.884
REMARK  Name = 
REMARK  6 active torsions:
REMARK  status: ('A' for Active; 'I' for Inactive)
REMARK    1  A    between atoms: N_1  and  C_2
REMARK    2  A    between atoms: C_2  and  C_3
REMARK    3  A    between atoms: C_6  and  C_7
REMARK    4  A    between atoms: C_7  and  O_8
REMARK    5  A    between atoms: O_8  and  C_9
REMARK    6  A    between atoms: C_12  and  C_13
REMARK                            x       y       z     vdW  Elec       q    Type
REMARK                         _______ _______ _______ _____ _____    ______ ____
ROOT
ATOM      1  C   UNL     1      45.047   4.799  12.062  0.00  0.00    +0.000 C 
ENDROOT
BRANCH   1   5
ATOM      2  C   UNL     1      46.895   8.693  12.344  0.00  0.00    +0.000 A 
ATOM      3  C   UNL     1      47.679   7.541  12.189  0.00  0.00    +0.000 A 
ATOM      4  C   UNL     1      47.087   6.279  12.128  0.00  0.00    +0.000 A 
ATOM      5  C   UNL     1      45.698   6.147  12.230  0.00  0.00    +0.000 A 
ATOM      6  C   UNL     1      44.912   7.296  12.409  0.00  0.00    +0.000 A 
ATOM      7  C   UNL     1      45.506   8.558  12.460  0.00  0.00    +0.000 A 
BRANCH   2   8
ATOM      8  C   UNL     1      47.551  10.049  12.390  0.00  0.00    +0.000 C 
BRANCH   8   9
ATOM      9  N   UNL     1      48.580  10.174  11.363  0.00  0.00    +0.000 NA
ATOM     10  H   UNL     1      48.614   9.319  10.815  0.00  0.00    +0.000 HD
ATOM     11  H   UNL     1      49.486  10.269  11.820  0.00  0.00    +0.000 HD
ENDBRANCH   8   9
ENDBRANCH   2   8
ENDBRANCH   1   5
BRANCH   1  12
ATOM     12  O   UNL     1      44.326   4.739  10.831  0.00  0.00    +0.000 OA
BRANCH  12  13
ATOM     13  C   UNL     1      44.921   4.017   9.830  0.00  0.00    +0.000 A 
ATOM     14  C   UNL     1      44.907   2.623   9.721  0.00  0.00    +0.000 A 
ATOM     15  C   UNL     1      45.587   1.991   8.679  0.00  0.00    +0.000 A 
ATOM     16  C   UNL     1      46.286   2.740   7.725  0.00  0.00    +0.000 A 
ATOM     17  C   UNL     1      46.261   4.138   7.813  0.00  0.00    +0.000 A 
ATOM     18  C   UNL     1      45.591   4.770   8.865  0.00  0.00    +0.000 A 
BRANCH  16  19
ATOM     19  C   UNL     1      47.075   2.058   6.634  0.00  0.00    +0.000 C 
ATOM     20  F   UNL     1      46.735   2.470   5.380  0.00  0.00    +0.000 F 
ATOM     21  F   UNL     1      48.415   2.265   6.744  0.00  0.00    +0.000 F 
ATOM     22  F   UNL     1      46.902   0.708   6.639  0.00  0.00    +0.000 F 
ENDBRANCH  16  19
ENDBRANCH  12  13
ENDBRANCH   1  12
TORSDOF 6
ENDMDL
MODEL 7
REMARK VINA RESULT:    -5.703      3.601      4.629
REMARK INTER + INTRA:          -8.420
REMARK INTER:                  -7.837
REMARK INTRA:                  -0.583
REMARK UNBOUND:                -0.884
REMARK  Name = 
REMARK  6 active torsions:
REMARK  status: ('A' for Active; 'I' for Inactive)
REMARK    1  A    between atoms: N_1  and  C_2
REMARK    2  A    between atoms: C_2  and  C_3
REMARK    3  A    between atoms: C_6  and  C_7
REMARK    4  A    between atoms: C_7  and  O_8
REMARK    5  A    between atoms: O_8  and  C_9
REMARK    6  A    between atoms: C_12  and  C_13
REMARK                            x       y       z     vdW  Elec       q    Type
REMARK                         _______ _______ _______ _____ _____    ______ ____
ROOT
ATOM      1  C   UNL     1      47.498   6.007  13.802  0.00  0.00    +0.000 C 
ENDROOT
BRANCH   1   5
ATOM      2  C   UNL     1      48.405   4.786  17.846  0.00  0.00    +0.000 A 
ATOM      3  C   UNL     1      49.020   5.916  17.286  0.00  0.00    +0.000 A 
ATOM      4  C   UNL     1      48.752   6.295  15.970  0.00  0.00    +0.000 A 
ATOM      5  C   UNL     1      47.869   5.544  15.187  0.00  0.00    +0.000 A 
ATOM      6  C   UNL     1      47.270   4.399  15.736  0.00  0.00    +0.000 A 
ATOM      7  C   UNL     1      47.533   4.027  17.055  0.00  0.00    +0.000 A 
BRANCH   2   8
ATOM      8  C   UNL     1      48.693   4.403  19.274  0.00  0.00    +0.000 C 
BRANCH   8   9
ATOM      9  N   UNL     1      48.303   3.023  19.540  0.00  0.00    +0.000 NA
ATOM     10  H   UNL     1      48.104   2.914  20.531  0.00  0.00    +0.000 HD
ATOM     11  H   UNL     1      49.094   2.414  19.329  0.00  0.00    +0.000 HD
ENDBRANCH   8   9
ENDBRANCH   2   8
ENDBRANCH   1   5
BRANCH   1  12
ATOM     12  O   UNL     1      46.094   5.870  13.586  0.00  0.00    +0.000 OA
BRANCH  12  13
ATOM     13  C   UNL     1      45.732   5.190  12.454  0.00  0.00    +0.000 A 
ATOM     14  C   UNL     1      45.249   3.878  12.418  0.00  0.00    +0.000 A 
ATOM     15  C   UNL     1      44.952   3.270  11.199  0.00  0.00    +0.000 A 
ATOM     16  C   UNL     1      45.125   3.961   9.994  0.00  0.00    +0.000 A 
ATOM     17  C   UNL     1      45.567   5.291  10.037  0.00  0.00    +0.000 A 
ATOM     18  C   UNL     1      45.878   5.895  11.259  0.00  0.00    +0.000 A 
BRANCH  16  19
ATOM     19  C   UNL     1      44.866   3.285   8.670  0.00  0.00    +0.000 C 
ATOM     20  F   UNL     1      46.005   2.959   7.996  0.00  0.00    +0.000 F 
ATOM     21  F   UNL     1      44.163   2.128   8.797  0.00  0.00    +0.000 F 
ATOM     22  F   UNL     1      44.147   4.071   7.822  0.00  0.00    +0.000 F 
ENDBRANCH  16  19
ENDBRANCH  12  13
ENDBRANCH   1  12
TORSDOF 6
ENDMDL
MODEL 8
REMARK VINA RESULT:    -5.675      5.008      7.561
REMARK INTER + INTRA:          -8.384
REMARK INTER:                  -7.838
REMARK INTRA:                  -0.546
REMARK UNBOUND:                -0.884
REMARK  Name = 
REMARK  6 active torsions:
REMARK  status: ('A' for Active; 'I' for Inactive)
REMARK    1  A    between atoms: N_1  and  C_2
REMARK    2  A    between atoms: C_2  and  C_3
REMARK    3  A    between atoms: C_6  and  C_7
REMARK    4  A    between atoms: C_7  and  O_8
REMARK    5  A    between atoms: O_8  and  C_9
REMARK    6  A    between atoms: C_12  and  C_13
REMARK                            x       y       z     vdW  Elec       q    Type
REMARK                         _______ _______ _______ _____ _____    ______ ____
ROOT
ATOM      1  C   UNL     1      44.865   4.555  12.848  0.00  0.00    +0.000 C 
ENDROOT
BRANCH   1   5
ATOM      2  C   UNL     1      45.417   3.655   8.659  0.00  0.00    +0.000 A 
ATOM      3  C   UNL     1      45.590   4.962   9.137  0.00  0.00    +0.000 A 
ATOM      4  C   UNL     1      45.383   5.262  10.484  0.00  0.00    +0.000 A 
ATOM      5  C   UNL     1      44.990   4.259  11.376  0.00  0.00    +0.000 A 
ATOM      6  C   UNL     1      44.793   2.954  10.897  0.00  0.00    +0.000 A 
ATOM      7  C   UNL     1      45.010   2.655   9.551  0.00  0.00    +0.000 A 
BRANCH   2   8
ATOM      8  C   UNL     1      45.663   3.347   7.205  0.00  0.00    +0.000 C 
BRANCH   8   9
ATOM      9  N   UNL     1      46.765   4.141   6.674  0.00  0.00    +0.000 NA
ATOM     10  H   UNL     1      46.391   4.934   6.160  0.00  0.00    +0.000 HD
ATOM     11  H   UNL     1      47.284   3.574   6.006  0.00  0.00    +0.000 HD
ENDBRANCH   8   9
ENDBRANCH   2   8
ENDBRANCH   1   5
BRANCH   1  12
ATOM     12  O   UNL     1      45.835   3.819  13.593  0.00  0.00    +0.000 OA
BRANCH  12  13
ATOM     13  C   UNL     1      46.750   4.570  14.281  0.00  0.00    +0.000 A 
ATOM     14  C   UNL     1      47.219   4.295  15.569  0.00  0.00    +0.000 A 
ATOM     15  C   UNL     1      48.122   5.159  16.189  0.00  0.00    +0.000 A 
ATOM     16  C   UNL     1      48.578   6.308  15.532  0.00  0.00    +0.000 A 
ATOM     17  C   UNL     1      48.140   6.557  14.225  0.00  0.00    +0.000 A 
ATOM     18  C   UNL     1      47.224   5.698  13.609  0.00  0.00    +0.000 A 
BRANCH  16  19
ATOM     19  C   UNL     1      49.504   7.278  16.224  0.00  0.00    +0.000 C 
ATOM     20  F   UNL     1      50.540   7.692  15.441  0.00  0.00    +0.000 F 
ATOM     21  F   UNL     1      48.871   8.410  16.636  0.00  0.00    +0.000 F 
ATOM     22  F   UNL     1      50.076   6.741  17.337  0.00  0.00    +0.000 F 
ENDBRANCH  16  19
ENDBRANCH  12  13
ENDBRANCH   1  12
TORSDOF 6
ENDMDL
MODEL 9
REMARK VINA RESULT:    -5.527      4.368      6.834
REMARK INTER + INTRA:          -8.188
REMARK INTER:                  -7.918
REMARK INTRA:                  -0.270
REMARK UNBOUND:                -0.884
REMARK  Name = 
REMARK  6 active torsions:
REMARK  status: ('A' for Active; 'I' for Inactive)
REMARK    1  A    between atoms: N_1  and  C_2
REMARK    2  A    between atoms: C_2  and  C_3
REMARK    3  A    between atoms: C_6  and  C_7
REMARK    4  A    between atoms: C_7  and  O_8
REMARK    5  A    between atoms: O_8  and  C_9
REMARK    6  A    between atoms: C_12  and  C_13
REMARK                            x       y       z     vdW  Elec       q    Type
REMARK                         _______ _______ _______ _____ _____    ______ ____
ROOT
ATOM      1  C   UNL     1      43.837   4.568  12.067  0.00  0.00    +0.000 C 
ENDROOT
BRANCH   1   5
ATOM      2  C   UNL     1      45.518   3.482   8.238  0.00  0.00    +0.000 A 
ATOM      3  C   UNL     1      44.834   2.533   9.012  0.00  0.00    +0.000 A 
ATOM      4  C   UNL     1      44.317   2.873  10.263  0.00  0.00    +0.000 A 
ATOM      5  C   UNL     1      44.482   4.168  10.765  0.00  0.00    +0.000 A 
ATOM      6  C   UNL     1      45.186   5.114  10.003  0.00  0.00    +0.000 A 
ATOM      7  C   UNL     1      45.695   4.774   8.749  0.00  0.00    +0.000 A 
BRANCH   2   8
ATOM      8  C   UNL     1      46.054   3.101   6.882  0.00  0.00    +0.000 C 
BRANCH   8   9
ATOM      9  N   UNL     1      47.386   3.655   6.665  0.00  0.00    +0.000 NA
ATOM     10  H   UNL     1      47.334   4.395   5.970  0.00  0.00    +0.000 HD
ATOM     11  H   UNL     1      47.983   2.926   6.277  0.00  0.00    +0.000 HD
ENDBRANCH   8   9
ENDBRANCH   2   8
ENDBRANCH   1   5
BRANCH   1  12
ATOM     12  O   UNL     1      44.133   5.930  12.377  0.00  0.00    +0.000 OA
BRANCH  12  13
ATOM     13  C   UNL     1      45.377   6.162  12.899  0.00  0.00    +0.000 A 
ATOM     14  C   UNL     1      46.179   5.209  13.535  0.00  0.00    +0.000 A 
ATOM     15  C   UNL     1      47.415   5.571  14.069  0.00  0.00    +0.000 A 
ATOM     16  C   UNL     1      47.877   6.889  13.973  0.00  0.00    +0.000 A 
ATOM     17  C   UNL     1      47.090   7.832  13.296  0.00  0.00    +0.000 A 
ATOM     18  C   UNL     1      45.845   7.470  12.773  0.00  0.00    +0.000 A 
BRANCH  16  19
ATOM     19  C   UNL     1      49.184   7.299  14.606  0.00  0.00    +0.000 C 
ATOM     20  F   UNL     1      49.138   8.526  15.198  0.00  0.00    +0.000 F 
ATOM     21  F   UNL     1      49.597   6.433  15.571  0.00  0.00    +0.000 F 
ATOM     22  F   UNL     1      50.198   7.364  13.700  0.00  0.00    +0.000 F 
ENDBRANCH  16  19
ENDBRANCH  12  13
ENDBRANCH   1  12
TORSDOF 6
ENDMDL
