MODEL 1
REMARK VINA RESULT:    -7.660      0.000      0.000
REMARK INTER + INTRA:         -11.273
REMARK INTER:                 -10.347
REMARK INTRA:                  -0.926
REMARK UNBOUND:                -0.926
REMARK  Name = 
REMARK  7 active torsions:
REMARK  status: ('A' for Active; 'I' for Inactive)
REMARK    1  A    between atoms: C_2  and  C_4
REMARK    2  A    between atoms: C_7  and  C_8
REMARK    3  A    between atoms: C_8  and  C_9
REMARK    4  A    between atoms: C_9  and  C_10
REMARK    5  A    between atoms: C_13  and  N_14
REMARK    6  A    between atoms: C_13  and  C_15
REMARK    7  A    between atoms: C_15  and  O_16
REMARK                            x       y       z     vdW  Elec       q    Type
REMARK                         _______ _______ _______ _____ _____    ______ ____
ROOT
ATOM      1  C   UNL     1      43.709   4.189  11.800  0.00  0.00    +0.000 C 
ENDROOT
BRANCH   1   2
ATOM      2  C   UNL     1      44.557   5.152  12.662  0.00  0.00    +0.000 C 
ATOM      3  C   UNL     1      45.999   4.655  12.855  0.00  0.00    +0.000 C 
ATOM      4  C   UNL     1      46.890   5.687  13.557  0.00  0.00    +0.000 C 
ATOM      5  C   UNL     1      46.898   7.065  12.862  0.00  0.00    +0.000 C 
ATOM      6  C   UNL     1      45.447   7.557  12.703  0.00  0.00    +0.000 C 
ATOM      7  C   UNL     1      44.527   6.548  12.014  0.00  0.00    +0.000 C 
BRANCH   5   8
ATOM      8  N   UNL     1      47.555   6.948  11.539  0.00  0.00    +0.000 NA
ATOM      9  H   UNL     1      47.753   5.969  11.335  0.00  0.00    +0.000 HD
ATOM     10  H   UNL     1      48.472   7.393  11.585  0.00  0.00    +0.000 HD
ENDBRANCH   5   8
BRANCH   5  11
ATOM     11  C   UNL     1      47.694   8.099  13.699  0.00  0.00    +0.000 C 
BRANCH  11  12
ATOM     12  O   UNL     1      46.819   8.913  14.482  0.00  0.00    +0.000 OA
ATOM     13  H   UNL     1      45.942   8.502  14.387  0.00  0.00    +0.000 HD
ENDBRANCH  11  12
ENDBRANCH   5  11
ENDBRANCH   1   2
BRANCH   1  14
ATOM     14  C   UNL     1      43.586   4.590  10.327  0.00  0.00    +0.000 C 
BRANCH  14  18
ATOM     15  C   UNL     1      46.392   2.472   7.805  0.00  0.00    +0.000 A 
ATOM     16  C   UNL     1      45.584   1.767   8.703  0.00  0.00    +0.000 A 
ATOM     17  C   UNL     1      44.685   2.457   9.525  0.00  0.00    +0.000 A 
ATOM     18  C   UNL     1      44.581   3.853   9.455  0.00  0.00    +0.000 A 
ATOM     19  C   UNL     1      45.423   4.554   8.582  0.00  0.00    +0.000 A 
ATOM     20  C   UNL     1      46.326   3.868   7.763  0.00  0.00    +0.000 A 
BRANCH  15  22
ATOM     21  N   UNL     1      48.456   2.462   6.512  0.00  0.00    +0.000 N 
ATOM     22  C   UNL     1      47.335   1.773   6.890  0.00  0.00    +0.000 C 
ATOM     23  O   UNL     1      47.148   0.623   6.526  0.00  0.00    +0.000 OA
ATOM     24  H   UNL     1      49.146   1.939   5.990  0.00  0.00    +0.000 HD
ATOM     25  H   UNL     1      48.767   3.291   6.999  0.00  0.00    +0.000 HD
ENDBRANCH  15  22
ENDBRANCH  14  18
ENDBRANCH   1  14
TORSDOF 7
ENDMDL
MODEL 2
REMARK VINA RESULT:    -7.640      1.350      2.008
REMARK INTER + INTRA:         -11.245
REMARK INTER:                 -10.442
REMARK INTRA:                  -0.803
REMARK UNBOUND:                -0.926
REMARK  Name = 
REMARK  7 active torsions:
REMARK  status: ('A' for Active; 'I' for Inactive)
REMARK    1  A    between atoms: C_2  and  C_4
REMARK    2  A    between atoms: C_7  and  C_8
REMARK    3  A    between atoms: C_8  and  C_9
REMARK    4  A    between atoms: C_9  and  C_10
REMARK    5  A    between atoms: C_13  and  N_14
REMARK    6  A    between atoms: C_13  and  C_15
REMARK    7  A    between atoms: C_15  and  O_16
REMARK                            x       y       z     vdW  Elec       q    Type
REMARK                         _______ _______ _______ _____ _____    ______ ____
ROOT
ATOM      1  C   UNL     1      44.205   4.718  11.669  0.00  0.00    +0.000 C 
ENDROOT
BRANCH   1   2
ATOM      2  C   UNL     1      45.673   5.132  11.917  0.00  0.00    +0.000 C 
ATOM      3  C   UNL     1      46.003   6.516  11.334  0.00  0.00    +0.000 C 
ATOM      4  C   UNL     1      47.401   7.006  11.728  0.00  0.00    +0.000 C 
ATOM      5  C   UNL     1      47.644   7.006  13.252  0.00  0.00    +0.000 C 
ATOM      6  C   UNL     1      47.335   5.605  13.813  0.00  0.00    +0.000 C 
ATOM      7  C   UNL     1      45.951   5.081  13.430  0.00  0.00    +0.000 C 
BRANCH   5   8
ATOM      8  N   UNL     1      46.776   8.024  13.890  0.00  0.00    +0.000 NA
ATOM      9  H   UNL     1      46.641   8.812  13.257  0.00  0.00    +0.000 HD
ATOM     10  H   UNL     1      47.265   8.418  14.695  0.00  0.00    +0.000 HD
ENDBRANCH   5   8
BRANCH   5  11
ATOM     11  C   UNL     1      49.117   7.367  13.575  0.00  0.00    +0.000 C 
BRANCH  11  12
ATOM     12  O   UNL     1      49.985   6.998  12.503  0.00  0.00    +0.000 OA
ATOM     13  H   UNL     1      50.258   6.085  12.704  0.00  0.00    +0.000 HD
ENDBRANCH  11  12
ENDBRANCH   5  11
ENDBRANCH   1   2
BRANCH   1  14
ATOM     14  C   UNL     1      43.778   4.725  10.198  0.00  0.00    +0.000 C 
BRANCH  14  18
ATOM     15  C   UNL     1      46.398   2.273   7.782  0.00  0.00    +0.000 A 
ATOM     16  C   UNL     1      46.367   3.659   7.600  0.00  0.00    +0.000 A 
ATOM     17  C   UNL     1      45.510   4.448   8.376  0.00  0.00    +0.000 A 
ATOM     18  C   UNL     1      44.680   3.862   9.343  0.00  0.00    +0.000 A 
ATOM     19  C   UNL     1      44.688   2.469   9.490  0.00  0.00    +0.000 A 
ATOM     20  C   UNL     1      45.540   1.678   8.713  0.00  0.00    +0.000 A 
BRANCH  15  22
ATOM     21  N   UNL     1      48.445   1.994   6.493  0.00  0.00    +0.000 N 
ATOM     22  C   UNL     1      47.320   1.404   7.002  0.00  0.00    +0.000 C 
ATOM     23  O   UNL     1      47.113   0.209   6.858  0.00  0.00    +0.000 OA
ATOM     24  H   UNL     1      49.122   1.374   6.068  0.00  0.00    +0.000 HD
ATOM     25  H   UNL     1      48.774   2.893   6.816  0.00  0.00    +0.000 HD
ENDBRANCH  15  22
ENDBRANCH  14  18
ENDBRANCH   1  14
TORSDOF 7
ENDMDL
MODEL 3
REMARK VINA RESULT:    -5.584      5.127      7.784
REMARK INTER + INTRA:          -8.468
REMARK INTER:                  -7.821
REMARK INTRA:                  -0.647
REMARK UNBOUND:                -0.926
REMARK  Name = 
REMARK  7 active torsions:
REMARK  status: ('A' for Active; 'I' for Inactive)
REMARK    1  A    between atoms: C_2  and  C_4
REMARK    2  A    between atoms: C_7  and  C_8
REMARK    3  A    between atoms: C_8  and  C_9
REMARK    4  A    between atoms: C_9  and  C_10
REMARK    5  A    between atoms: C_13  and  N_14
REMARK    6  A    between atoms: C_13  and  C_15
REMARK    7  A    between atoms: C_15  and  O_16
REMARK                            x       y       z     vdW  Elec       q    Type
REMARK                         _______ _______ _______ _____ _____    ______ ____
ROOT
ATOM      1  C   UNL     1      47.923   5.865  15.306  0.00  0.00    +0.000 C 
ENDROOT
BRANCH   1   2
ATOM      2  C   UNL     1      47.350   5.400  13.948  0.00  0.00    +0.000 C 
ATOM      3  C   UNL     1      46.242   4.346  14.104  0.00  0.00    +0.000 C 
ATOM      4  C   UNL     1      45.552   4.012  12.776  0.00  0.00    +0.000 C 
ATOM      5  C   UNL     1      44.997   5.253  12.045  0.00  0.00    +0.000 C 
ATOM      6  C   UNL     1      46.128   6.286  11.874  0.00  0.00    +0.000 C 
ATOM      7  C   UNL     1      46.845   6.634  13.178  0.00  0.00    +0.000 C 
BRANCH   5   8
ATOM      8  N   UNL     1      43.880   5.831  12.830  0.00  0.00    +0.000 NA
ATOM      9  H   UNL     1      43.237   6.321  12.209  0.00  0.00    +0.000 HD
ATOM     10  H   UNL     1      44.249   6.556  13.446  0.00  0.00    +0.000 HD
ENDBRANCH   5   8
BRANCH   5  11
ATOM     11  C   UNL     1      44.447   4.869  10.647  0.00  0.00    +0.000 C 
BRANCH  11  12
ATOM     12  O   UNL     1      43.253   5.593  10.346  0.00  0.00    +0.000 OA
ATOM     13  H   UNL     1      42.900   5.172   9.542  0.00  0.00    +0.000 HD
ENDBRANCH  11  12
ENDBRANCH   5  11
ENDBRANCH   1   2
BRANCH   1  14
ATOM     14  C   UNL     1      47.591   4.948  16.487  0.00  0.00    +0.000 C 
BRANCH  14  18
ATOM     15  C   UNL     1      50.899   2.321  17.423  0.00  0.00    +0.000 A 
ATOM     16  C   UNL     1      49.704   1.795  16.923  0.00  0.00    +0.000 A 
ATOM     17  C   UNL     1      48.632   2.647  16.632  0.00  0.00    +0.000 A 
ATOM     18  C   UNL     1      48.744   4.030  16.832  0.00  0.00    +0.000 A 
ATOM     19  C   UNL     1      49.931   4.544  17.371  0.00  0.00    +0.000 A 
ATOM     20  C   UNL     1      51.002   3.694  17.668  0.00  0.00    +0.000 A 
BRANCH  15  22
ATOM     21  N   UNL     1      51.811   0.170  18.110  0.00  0.00    +0.000 N 
ATOM     22  C   UNL     1      52.073   1.453  17.712  0.00  0.00    +0.000 C 
ATOM     23  O   UNL     1      53.219   1.846  17.558  0.00  0.00    +0.000 OA
ATOM     24  H   UNL     1      52.611  -0.445  18.188  0.00  0.00    +0.000 HD
ATOM     25  H   UNL     1      50.903  -0.257  17.987  0.00  0.00    +0.000 HD
ENDBRANCH  15  22
ENDBRANCH  14  18
ENDBRANCH   1  14
TORSDOF 7
ENDMDL
MODEL 4
REMARK VINA RESULT:    -5.468      3.583      7.409
REMARK INTER + INTRA:          -8.311
REMARK INTER:                  -7.670
REMARK INTRA:                  -0.642
REMARK UNBOUND:                -0.926
REMARK  Name = 
REMARK  7 active torsions:
REMARK  status: ('A' for Active; 'I' for Inactive)
REMARK    1  A    between atoms: C_2  and  C_4
REMARK    2  A    between atoms: C_7  and  C_8
REMARK    3  A    between atoms: C_8  and  C_9
REMARK    4  A    between atoms: C_9  and  C_10
REMARK    5  A    between atoms: C_13  and  N_14
REMARK    6  A    between atoms: C_13  and  C_15
REMARK    7  A    between atoms: C_15  and  O_16
REMARK                            x       y       z     vdW  Elec       q    Type
REMARK                         _______ _______ _______ _____ _____    ______ ____
ROOT
ATOM      1  C   UNL     1      46.366   7.560  12.962  0.00  0.00    +0.000 C 
ENDROOT
BRANCH   1   2
ATOM      2  C   UNL     1      45.399   6.635  12.189  0.00  0.00    +0.000 C 
ATOM      3  C   UNL     1      46.133   5.668  11.246  0.00  0.00    +0.000 C 
ATOM      4  C   UNL     1      45.195   4.634  10.612  0.00  0.00    +0.000 C 
ATOM      5  C   UNL     1      44.374   3.836  11.647  0.00  0.00    +0.000 C 
ATOM      6  C   UNL     1      43.624   4.821  12.564  0.00  0.00    +0.000 C 
ATOM      7  C   UNL     1      44.528   5.873  13.205  0.00  0.00    +0.000 C 
BRANCH   5   8
ATOM      8  N   UNL     1      45.282   2.975  12.440  0.00  0.00    +0.000 NA
ATOM      9  H   UNL     1      45.313   2.039  12.038  0.00  0.00    +0.000 HD
ATOM     10  H   UNL     1      44.884   2.844  13.371  0.00  0.00    +0.000 HD
ENDBRANCH   5   8
BRANCH   5  11
ATOM     11  C   UNL     1      43.344   2.917  10.941  0.00  0.00    +0.000 C 
BRANCH  11  12
ATOM     12  O   UNL     1      43.029   1.780  11.746  0.00  0.00    +0.000 OA
ATOM     13  H   UNL     1      43.825   1.220  11.713  0.00  0.00    +0.000 HD
ENDBRANCH  11  12
ENDBRANCH   5  11
ENDBRANCH   1   2
BRANCH   1  14
ATOM     14  C   UNL     1      47.777   6.995  13.151  0.00  0.00    +0.000 C 
BRANCH  14  18
ATOM     15  C   UNL     1      48.119   4.825  16.878  0.00  0.00    +0.000 A 
ATOM     16  C   UNL     1      48.771   6.053  16.717  0.00  0.00    +0.000 A 
ATOM     17  C   UNL     1      48.666   6.746  15.506  0.00  0.00    +0.000 A 
ATOM     18  C   UNL     1      47.909   6.225  14.447  0.00  0.00    +0.000 A 
ATOM     19  C   UNL     1      47.294   4.976  14.603  0.00  0.00    +0.000 A 
ATOM     20  C   UNL     1      47.400   4.278  15.811  0.00  0.00    +0.000 A 
BRANCH  15  22
ATOM     21  N   UNL     1      47.410   2.944  18.251  0.00  0.00    +0.000 N 
ATOM     22  C   UNL     1      48.177   4.074  18.161  0.00  0.00    +0.000 C 
ATOM     23  O   UNL     1      48.908   4.416  19.077  0.00  0.00    +0.000 OA
ATOM     24  H   UNL     1      47.546   2.377  19.078  0.00  0.00    +0.000 HD
ATOM     25  H   UNL     1      47.014   2.495  17.437  0.00  0.00    +0.000 HD
ENDBRANCH  15  22
ENDBRANCH  14  18
ENDBRANCH   1  14
TORSDOF 7
ENDMDL
MODEL 5
REMARK VINA RESULT:    -5.466      4.242      5.769
REMARK INTER + INTRA:          -8.309
REMARK INTER:                  -7.706
REMARK INTRA:                  -0.603
REMARK UNBOUND:                -0.926
REMARK  Name = 
REMARK  7 active torsions:
REMARK  status: ('A' for Active; 'I' for Inactive)
REMARK    1  A    between atoms: C_2  and  C_4
REMARK    2  A    between atoms: C_7  and  C_8
REMARK    3  A    between atoms: C_8  and  C_9
REMARK    4  A    between atoms: C_9  and  C_10
REMARK    5  A    between atoms: C_13  and  N_14
REMARK    6  A    between atoms: C_13  and  C_15
REMARK    7  A    between atoms: C_15  and  O_16
REMARK                            x       y       z     vdW  Elec       q    Type
REMARK                         _______ _______ _______ _____ _____    ______ ____
ROOT
ATOM      1  C   UNL     1      48.529   6.297  14.357  0.00  0.00    +0.000 C 
ENDROOT
BRANCH   1   2
ATOM      2  C   UNL     1      48.340   6.104  15.880  0.00  0.00    +0.000 C 
ATOM      3  C   UNL     1      47.754   4.728  16.232  0.00  0.00    +0.000 C 
ATOM      4  C   UNL     1      47.730   4.465  17.743  0.00  0.00    +0.000 C 
ATOM      5  C   UNL     1      49.108   4.638  18.417  0.00  0.00    +0.000 C 
ATOM      6  C   UNL     1      49.665   6.033  18.075  0.00  0.00    +0.000 C 
ATOM      7  C   UNL     1      49.695   6.332  16.576  0.00  0.00    +0.000 C 
BRANCH   5   8
ATOM      8  N   UNL     1      50.028   3.579  17.941  0.00  0.00    +0.000 NA
ATOM      9  H   UNL     1      50.587   3.229  18.718  0.00  0.00    +0.000 HD
ATOM     10  H   UNL     1      50.706   3.993  17.300  0.00  0.00    +0.000 HD
ENDBRANCH   5   8
BRANCH   5  11
ATOM     11  C   UNL     1      48.987   4.506  19.958  0.00  0.00    +0.000 C 
BRANCH  11  12
ATOM     12  O   UNL     1      48.306   3.304  20.320  0.00  0.00    +0.000 OA
ATOM     13  H   UNL     1      48.881   2.584  20.003  0.00  0.00    +0.000 HD
ENDBRANCH  11  12
ENDBRANCH   5  11
ENDBRANCH   1   2
BRANCH   1  14
ATOM     14  C   UNL     1      47.461   7.166  13.686  0.00  0.00    +0.000 C 
BRANCH  14  18
ATOM     15  C   UNL     1      44.945   4.827  11.056  0.00  0.00    +0.000 A 
ATOM     16  C   UNL     1      45.770   5.828  10.532  0.00  0.00    +0.000 A 
ATOM     17  C   UNL     1      46.574   6.590  11.388  0.00  0.00    +0.000 A 
ATOM     18  C   UNL     1      46.567   6.357  12.770  0.00  0.00    +0.000 A 
ATOM     19  C   UNL     1      45.708   5.380  13.290  0.00  0.00    +0.000 A 
ATOM     20  C   UNL     1      44.899   4.620  12.438  0.00  0.00    +0.000 A 
BRANCH  15  22
ATOM     21  N   UNL     1      44.071   4.293   8.846  0.00  0.00    +0.000 N 
ATOM     22  C   UNL     1      44.102   3.972  10.177  0.00  0.00    +0.000 C 
ATOM     23  O   UNL     1      43.500   3.000  10.607  0.00  0.00    +0.000 OA
ATOM     24  H   UNL     1      43.593   3.639   8.241  0.00  0.00    +0.000 HD
ATOM     25  H   UNL     1      44.754   4.907   8.425  0.00  0.00    +0.000 HD
ENDBRANCH  15  22
ENDBRANCH  14  18
ENDBRANCH   1  14
TORSDOF 7
ENDMDL
MODEL 6
REMARK VINA RESULT:    -5.405      4.398      6.348
REMARK INTER + INTRA:          -8.226
REMARK INTER:                  -7.738
REMARK INTRA:                  -0.488
REMARK UNBOUND:                -0.926
REMARK  Name = 
REMARK  7 active torsions:
REMARK  status: ('A' for Active; 'I' for Inactive)
REMARK    1  A    between atoms: C_2  and  C_4
REMARK    2  A    between atoms: C_7  and  C_8
REMARK    3  A    between atoms: C_8  and  C_9
REMARK    4  A    between atoms: C_9  and  C_10
REMARK    5  A    between atoms: C_13  and  N_14
REMARK    6  A    between atoms: C_13  and  C_15
REMARK    7  A    between atoms: C_15  and  O_16
REMARK                            x       y       z     vdW  Elec       q    Type
REMARK                         _______ _______ _______ _____ _____    ______ ____
ROOT
ATOM      1  C   UNL     1      48.331   7.397  14.878  0.00  0.00    +0.000 C 
ENDROOT
BRANCH   1   2
ATOM      2  C   UNL     1      48.816   6.670  16.154  0.00  0.00    +0.000 C 
ATOM      3  C   UNL     1      48.435   7.419  17.441  0.00  0.00    +0.000 C 
ATOM      4  C   UNL     1      48.757   6.618  18.708  0.00  0.00    +0.000 C 
ATOM      5  C   UNL     1      48.132   5.207  18.717  0.00  0.00    +0.000 C 
ATOM      6  C   UNL     1      48.548   4.463  17.433  0.00  0.00    +0.000 C 
ATOM      7  C   UNL     1      48.250   5.238  16.150  0.00  0.00    +0.000 C 
BRANCH   5   8
ATOM      8  N   UNL     1      46.657   5.320  18.797  0.00  0.00    +0.000 NA
ATOM      9  H   UNL     1      46.395   6.270  19.060  0.00  0.00    +0.000 HD
ATOM     10  H   UNL     1      46.321   4.737  19.565  0.00  0.00    +0.000 HD
ENDBRANCH   5   8
BRANCH   5  11
ATOM     11  C   UNL     1      48.615   4.399  19.949  0.00  0.00    +0.000 C 
BRANCH  11  12
ATOM     12  O   UNL     1      48.296   3.013  19.815  0.00  0.00    +0.000 OA
ATOM     13  H   UNL     1      47.829   2.782  20.637  0.00  0.00    +0.000 HD
ENDBRANCH  11  12
ENDBRANCH   5  11
ENDBRANCH   1   2
BRANCH   1  14
ATOM     14  C   UNL     1      48.413   6.563  13.597  0.00  0.00    +0.000 C 
BRANCH  14  18
ATOM     15  C   UNL     1      44.476   5.519  12.140  0.00  0.00    +0.000 A 
ATOM     16  C   UNL     1      45.274   4.553  12.761  0.00  0.00    +0.000 A 
ATOM     17  C   UNL     1      46.552   4.892  13.221  0.00  0.00    +0.000 A 
ATOM     18  C   UNL     1      47.042   6.196  13.070  0.00  0.00    +0.000 A 
ATOM     19  C   UNL     1      46.252   7.147  12.411  0.00  0.00    +0.000 A 
ATOM     20  C   UNL     1      44.977   6.810  11.945  0.00  0.00    +0.000 A 
BRANCH  15  22
ATOM     21  N   UNL     1      42.173   6.211  11.758  0.00  0.00    +0.000 N 
ATOM     22  C   UNL     1      43.099   5.207  11.668  0.00  0.00    +0.000 C 
ATOM     23  O   UNL     1      42.814   4.125  11.180  0.00  0.00    +0.000 OA
ATOM     24  H   UNL     1      41.276   6.030  11.326  0.00  0.00    +0.000 HD
ATOM     25  H   UNL     1      42.437   7.176  11.900  0.00  0.00    +0.000 HD
ENDBRANCH  15  22
ENDBRANCH  14  18
ENDBRANCH   1  14
TORSDOF 7
ENDMDL
MODEL 7
REMARK VINA RESULT:    -5.173      3.355      5.093
REMARK INTER + INTRA:          -7.913
REMARK INTER:                  -6.973
REMARK INTRA:                  -0.940
REMARK UNBOUND:                -0.926
REMARK  Name = 
REMARK  7 active torsions:
REMARK  status: ('A' for Active; 'I' for Inactive)
REMARK    1  A    between atoms: C_2  and  C_4
REMARK    2  A    between atoms: C_7  and  C_8
REMARK    3  A    between atoms: C_8  and  C_9
REMARK    4  A    between atoms: C_9  and  C_10
REMARK    5  A    between atoms: C_13  and  N_14
REMARK    6  A    between atoms: C_13  and  C_15
REMARK    7  A    between atoms: C_15  and  O_16
REMARK                            x       y       z     vdW  Elec       q    Type
REMARK                         _______ _______ _______ _____ _____    ______ ____
ROOT
ATOM      1  C   UNL     1      46.564   9.491  11.977  0.00  0.00    +0.000 C 
ENDROOT
BRANCH   1   2
ATOM      2  C   UNL     1      48.057   9.571  12.373  0.00  0.00    +0.000 C 
ATOM      3  C   UNL     1      48.266   9.528  13.895  0.00  0.00    +0.000 C 
ATOM      4  C   UNL     1      49.746   9.429  14.285  0.00  0.00    +0.000 C 
ATOM      5  C   UNL     1      50.478   8.245  13.619  0.00  0.00    +0.000 C 
ATOM      6  C   UNL     1      50.279   8.322  12.094  0.00  0.00    +0.000 C 
ATOM      7  C   UNL     1      48.815   8.431  11.669  0.00  0.00    +0.000 C 
BRANCH   5   8
ATOM      8  N   UNL     1      49.940   6.970  14.150  0.00  0.00    +0.000 NA
ATOM      9  H   UNL     1      49.659   6.365  13.380  0.00  0.00    +0.000 HD
ATOM     10  H   UNL     1      49.076   7.162  14.659  0.00  0.00    +0.000 HD
ENDBRANCH   5   8
BRANCH   5  11
ATOM     11  C   UNL     1      51.996   8.289  13.935  0.00  0.00    +0.000 C 
BRANCH  11  12
ATOM     12  O   UNL     1      52.334   7.366  14.971  0.00  0.00    +0.000 OA
ATOM     13  H   UNL     1      52.845   6.666  14.528  0.00  0.00    +0.000 HD
ENDBRANCH  11  12
ENDBRANCH   5  11
ENDBRANCH   1   2
BRANCH   1  14
ATOM     14  C   UNL     1      45.678   8.741  12.975  0.00  0.00    +0.000 C 
BRANCH  14  18
ATOM     15  C   UNL     1      45.008   4.621  11.837  0.00  0.00    +0.000 A 
ATOM     16  C   UNL     1      45.969   4.935  12.803  0.00  0.00    +0.000 A 
ATOM     17  C   UNL     1      46.191   6.271  13.161  0.00  0.00    +0.000 A 
ATOM     18  C   UNL     1      45.453   7.302  12.562  0.00  0.00    +0.000 A 
ATOM     19  C   UNL     1      44.522   6.980  11.566  0.00  0.00    +0.000 A 
ATOM     20  C   UNL     1      44.302   5.647  11.203  0.00  0.00    +0.000 A 
BRANCH  15  22
ATOM     21  N   UNL     1      44.141   2.418  12.409  0.00  0.00    +0.000 N 
ATOM     22  C   UNL     1      44.719   3.212  11.455  0.00  0.00    +0.000 C 
ATOM     23  O   UNL     1      44.940   2.790  10.330  0.00  0.00    +0.000 OA
ATOM     24  H   UNL     1      43.840   1.501  12.104  0.00  0.00    +0.000 HD
ATOM     25  H   UNL     1      43.707   2.801  13.237  0.00  0.00    +0.000 HD
ENDBRANCH  15  22
ENDBRANCH  14  18
ENDBRANCH   1  14
TORSDOF 7
ENDMDL
MODEL 8
REMARK VINA RESULT:    -5.066      3.444      6.720
REMARK INTER + INTRA:          -7.769
REMARK INTER:                  -7.187
REMARK INTRA:                  -0.581
REMARK UNBOUND:                -0.926
REMARK  Name = 
REMARK  7 active torsions:
REMARK  status: ('A' for Active; 'I' for Inactive)
REMARK    1  A    between atoms: C_2  and  C_4
REMARK    2  A    between atoms: C_7  and  C_8
REMARK    3  A    between atoms: C_8  and  C_9
REMARK    4  A    between atoms: C_9  and  C_10
REMARK    5  A    between atoms: C_13  and  N_14
REMARK    6  A    between atoms: C_13  and  C_15
REMARK    7  A    between atoms: C_15  and  O_16
REMARK                            x       y       z     vdW  Elec       q    Type
REMARK                         _______ _______ _______ _____ _____    ______ ____
ROOT
ATOM      1  C   UNL     1      45.737   7.799  12.925  0.00  0.00    +0.000 C 
ENDROOT
BRANCH   1   2
ATOM      2  C   UNL     1      45.007   6.713  12.102  0.00  0.00    +0.000 C 
ATOM      3  C   UNL     1      45.970   5.875  11.246  0.00  0.00    +0.000 C 
ATOM      4  C   UNL     1      45.277   4.688  10.566  0.00  0.00    +0.000 C 
ATOM      5  C   UNL     1      44.520   3.773  11.553  0.00  0.00    +0.000 C 
ATOM      6  C   UNL     1      43.541   4.626  12.382  0.00  0.00    +0.000 C 
ATOM      7  C   UNL     1      44.198   5.825  13.066  0.00  0.00    +0.000 C 
BRANCH   5   8
ATOM      8  N   UNL     1      45.492   3.090  12.438  0.00  0.00    +0.000 NA
ATOM      9  H   UNL     1      46.443   3.340  12.168  0.00  0.00    +0.000 HD
ATOM     10  H   UNL     1      45.434   2.083  12.279  0.00  0.00    +0.000 HD
ENDBRANCH   5   8
BRANCH   5  11
ATOM     11  C   UNL     1      43.723   2.683  10.791  0.00  0.00    +0.000 C 
BRANCH  11  12
ATOM     12  O   UNL     1      43.037   1.818  11.697  0.00  0.00    +0.000 OA
ATOM     13  H   UNL     1      42.311   1.432  11.175  0.00  0.00    +0.000 HD
ENDBRANCH  11  12
ENDBRANCH   5  11
ENDBRANCH   1   2
BRANCH   1  14
ATOM     14  C   UNL     1      46.344   8.932  12.093  0.00  0.00    +0.000 C 
BRANCH  14  18
ATOM     15  C   UNL     1      50.664   8.717  11.989  0.00  0.00    +0.000 A 
ATOM     16  C   UNL     1      49.926   7.712  12.623  0.00  0.00    +0.000 A 
ATOM     17  C   UNL     1      48.529   7.791  12.664  0.00  0.00    +0.000 A 
ATOM     18  C   UNL     1      47.857   8.868  12.070  0.00  0.00    +0.000 A 
ATOM     19  C   UNL     1      48.606   9.891  11.473  0.00  0.00    +0.000 A 
ATOM     20  C   UNL     1      50.002   9.817  11.435  0.00  0.00    +0.000 A 
BRANCH  15  22
ATOM     21  N   UNL     1      52.684   7.524  11.333  0.00  0.00    +0.000 N 
ATOM     22  C   UNL     1      52.148   8.653  11.893  0.00  0.00    +0.000 C 
ATOM     23  O   UNL     1      52.858   9.578  12.253  0.00  0.00    +0.000 OA
ATOM     24  H   UNL     1      53.681   7.541  11.163  0.00  0.00    +0.000 HD
ATOM     25  H   UNL     1      52.128   6.877  10.792  0.00  0.00    +0.000 HD
ENDBRANCH  15  22
ENDBRANCH  14  18
ENDBRANCH   1  14
TORSDOF 7
ENDMDL
MODEL 9
REMARK VINA RESULT:    -5.024      3.508      8.001
REMARK INTER + INTRA:          -7.712
REMARK INTER:                  -6.961
REMARK INTRA:                  -0.751
REMARK UNBOUND:                -0.926
REMARK  Name = 
REMARK  7 active torsions:
REMARK  status: ('A' for Active; 'I' for Inactive)
REMARK    1  A    between atoms: C_2  and  C_4
REMARK    2  A    between atoms: C_7  and  C_8
REMARK    3  A    between atoms: C_8  and  C_9
REMARK    4  A    between atoms: C_9  and  C_10
REMARK    5  A    between atoms: C_13  and  N_14
REMARK    6  A    between atoms: C_13  and  C_15
REMARK    7  A    between atoms: C_15  and  O_16
REMARK                            x       y       z     vdW  Elec       q    Type
REMARK                         _______ _______ _______ _____ _____    ______ ____
ROOT
ATOM      1  C   UNL     1      47.059   7.804  11.805  0.00  0.00    +0.000 C 
ENDROOT
BRANCH   1   2
ATOM      2  C   UNL     1      46.389   6.414  11.904  0.00  0.00    +0.000 C 
ATOM      3  C   UNL     1      45.184   6.407  12.859  0.00  0.00    +0.000 C 
ATOM      4  C   UNL     1      44.412   5.083  12.826  0.00  0.00    +0.000 C 
ATOM      5  C   UNL     1      43.961   4.670  11.409  0.00  0.00    +0.000 C 
ATOM      6  C   UNL     1      45.186   4.657  10.474  0.00  0.00    +0.000 C 
ATOM      7  C   UNL     1      45.986   5.960  10.489  0.00  0.00    +0.000 C 
BRANCH   5   8
ATOM      8  N   UNL     1      42.943   5.627  10.916  0.00  0.00    +0.000 NA
ATOM      9  H   UNL     1      42.302   5.872  11.671  0.00  0.00    +0.000 HD
ATOM     10  H   UNL     1      42.358   5.160  10.222  0.00  0.00    +0.000 HD
ENDBRANCH   5   8
BRANCH   5  11
ATOM     11  C   UNL     1      43.320   3.259  11.424  0.00  0.00    +0.000 C 
BRANCH  11  12
ATOM     12  O   UNL     1      43.756   2.506  12.557  0.00  0.00    +0.000 OA
ATOM     13  H   UNL     1      43.748   1.579  12.261  0.00  0.00    +0.000 HD
ENDBRANCH  11  12
ENDBRANCH   5  11
ENDBRANCH   1   2
BRANCH   1  14
ATOM     14  C   UNL     1      48.495   7.860  12.334  0.00  0.00    +0.000 C 
BRANCH  14  18
ATOM     15  C   UNL     1      48.577   7.831  16.659  0.00  0.00    +0.000 A 
ATOM     16  C   UNL     1      48.314   9.019  15.970  0.00  0.00    +0.000 A 
ATOM     17  C   UNL     1      48.300   9.027  14.570  0.00  0.00    +0.000 A 
ATOM     18  C   UNL     1      48.542   7.850  13.847  0.00  0.00    +0.000 A 
ATOM     19  C   UNL     1      48.844   6.674  14.545  0.00  0.00    +0.000 A 
ATOM     20  C   UNL     1      48.864   6.664  15.944  0.00  0.00    +0.000 A 
BRANCH  15  22
ATOM     21  N   UNL     1      47.455   7.239  18.738  0.00  0.00    +0.000 N 
ATOM     22  C   UNL     1      48.568   7.774  18.146  0.00  0.00    +0.000 C 
ATOM     23  O   UNL     1      49.523   8.141  18.813  0.00  0.00    +0.000 OA
ATOM     24  H   UNL     1      47.507   7.094  19.738  0.00  0.00    +0.000 HD
ATOM     25  H   UNL     1      46.781   6.691  18.221  0.00  0.00    +0.000 HD
ENDBRANCH  15  22
ENDBRANCH  14  18
ENDBRANCH   1  14
TORSDOF 7
ENDMDL
