MODEL 1
REMARK VINA RESULT:    -8.468      0.000      0.000
REMARK INTER + INTRA:         -12.064
REMARK INTER:                 -11.439
REMARK INTRA:                  -0.625
REMARK UNBOUND:                -0.625
REMARK  Name = 
REMARK  7 active torsions:
REMARK  status: ('A' for Active; 'I' for Inactive)
REMARK    1  A    between atoms: C_1  and  C_2
REMARK    2  A    between atoms: C_7  and  C_8
REMARK    3  A    between atoms: C_13  and  C_14
REMARK    4  A    between atoms: C_14  and  C_15
REMARK    5  A    between atoms: C_15  and  N_16
REMARK    6  A    between atoms: N_16  and  C_17
REMARK    7  A    between atoms: C_20  and  C_21
REMARK                            x       y       z     vdW  Elec       q    Type
REMARK                         _______ _______ _______ _____ _____    ______ ____
ROOT
ATOM      1  C   UNL     1      50.439   6.951  15.822  0.00  0.00    +0.000 C 
ATOM      2  C   UNL     1      49.819   7.617  14.600  0.00  0.00    +0.000 C 
ATOM      3  C   UNL     1      48.357   8.019  14.883  0.00  0.00    +0.000 C 
ATOM      4  N   UNL     1      47.810   8.872  13.822  0.00  0.00    +0.000 N 
ATOM      5  C   UNL     1      46.803   8.404  13.000  0.00  0.00    +0.000 A 
ATOM      6  C   UNL     1      45.933   9.319  12.412  0.00  0.00    +0.000 A 
ATOM      7  C   UNL     1      44.872   8.887  11.614  0.00  0.00    +0.000 A 
ATOM      8  C   UNL     1      44.712   7.516  11.418  0.00  0.00    +0.000 A 
ATOM      9  C   UNL     1      45.598   6.640  12.036  0.00  0.00    +0.000 A 
ATOM     10  N   UNL     1      46.626   7.075  12.816  0.00  0.00    +0.000 NA
ATOM     11  C   UNL     1      48.691   9.957  13.368  0.00  0.00    +0.000 C 
ATOM     12  C   UNL     1      50.119   9.441  13.136  0.00  0.00    +0.000 C 
ATOM     13  O   UNL     1      50.629   8.771  14.295  0.00  0.00    +0.000 OA
ENDROOT
BRANCH   7  14
ATOM     14  C   UNL     1      43.920   9.875  11.001  0.00  0.00    +0.000 C 
ATOM     15  F   UNL     1      42.792   9.304  10.493  0.00  0.00    +0.000 F 
ATOM     16  F   UNL     1      43.493  10.804  11.900  0.00  0.00    +0.000 F 
ATOM     17  F   UNL     1      44.480  10.574   9.977  0.00  0.00    +0.000 F 
ENDBRANCH   7  14
BRANCH   9  18
ATOM     18  C   UNL     1      45.443   5.147  11.837  0.00  0.00    +0.000 C 
BRANCH  18  19
ATOM     19  C   UNL     1      43.989   4.768  11.534  0.00  0.00    +0.000 C 
BRANCH  19  20
ATOM     20  N   UNL     1      43.762   4.627  10.085  0.00  0.00    +0.000 N 
ATOM     21  H   UNL     1      43.535   5.509   9.631  0.00  0.00    +0.000 HD
BRANCH  20  22
ATOM     22  C   UNL     1      44.698   3.894   9.337  0.00  0.00    +0.000 A 
ATOM     23  C   UNL     1      44.768   2.496   9.357  0.00  0.00    +0.000 A 
ATOM     24  C   UNL     1      45.678   1.798   8.554  0.00  0.00    +0.000 A 
ATOM     25  C   UNL     1      46.519   2.481   7.675  0.00  0.00    +0.000 A 
ATOM     26  C   UNL     1      46.439   3.874   7.606  0.00  0.00    +0.000 A 
ATOM     27  C   UNL     1      45.524   4.567   8.421  0.00  0.00    +0.000 A 
BRANCH  25  28
ATOM     28  C   UNL     1      47.471   1.682   6.860  0.00  0.00    +0.000 C 
ATOM     29  N   UNL     1      48.536   2.336   6.304  0.00  0.00    +0.000 N 
ATOM     30  O   UNL     1      47.299   0.487   6.654  0.00  0.00    +0.000 OA
ATOM     31  H   UNL     1      48.573   3.341   6.228  0.00  0.00    +0.000 HD
ATOM     32  H   UNL     1      49.091   1.794   5.652  0.00  0.00    +0.000 HD
ENDBRANCH  25  28
ENDBRANCH  20  22
ENDBRANCH  19  20
ENDBRANCH  18  19
ENDBRANCH   9  18
TORSDOF 6
ENDMDL
MODEL 2
REMARK VINA RESULT:    -8.356      3.449      4.335
REMARK INTER + INTRA:         -11.913
REMARK INTER:                 -11.196
REMARK INTRA:                  -0.716
REMARK UNBOUND:                -0.625
REMARK  Name = 
REMARK  7 active torsions:
REMARK  status: ('A' for Active; 'I' for Inactive)
REMARK    1  A    between atoms: C_1  and  C_2
REMARK    2  A    between atoms: C_7  and  C_8
REMARK    3  A    between atoms: C_13  and  C_14
REMARK    4  A    between atoms: C_14  and  C_15
REMARK    5  A    between atoms: C_15  and  N_16
REMARK    6  A    between atoms: N_16  and  C_17
REMARK    7  A    between atoms: C_20  and  C_21
REMARK                            x       y       z     vdW  Elec       q    Type
REMARK                         _______ _______ _______ _____ _____    ______ ____
ROOT
ATOM      1  C   UNL     1      48.672  10.779  10.873  0.00  0.00    +0.000 C 
ATOM      2  C   UNL     1      48.329  10.060  12.173  0.00  0.00    +0.000 C 
ATOM      3  C   UNL     1      48.831   8.602  12.136  0.00  0.00    +0.000 C 
ATOM      4  N   UNL     1      48.734   7.959  13.452  0.00  0.00    +0.000 N 
ATOM      5  C   UNL     1      47.841   6.926  13.659  0.00  0.00    +0.000 A 
ATOM      6  C   UNL     1      48.117   5.985  14.649  0.00  0.00    +0.000 A 
ATOM      7  C   UNL     1      47.266   4.898  14.859  0.00  0.00    +0.000 A 
ATOM      8  C   UNL     1      46.133   4.782  14.054  0.00  0.00    +0.000 A 
ATOM      9  C   UNL     1      45.908   5.739  13.071  0.00  0.00    +0.000 A 
ATOM     10  N   UNL     1      46.747   6.792  12.873  0.00  0.00    +0.000 NA
ATOM     11  C   UNL     1      49.207   8.765  14.585  0.00  0.00    +0.000 C 
ATOM     12  C   UNL     1      48.657  10.197  14.504  0.00  0.00    +0.000 C 
ATOM     13  O   UNL     1      48.955  10.803  13.239  0.00  0.00    +0.000 OA
ENDROOT
BRANCH   7  14
ATOM     14  C   UNL     1      47.578   3.870  15.911  0.00  0.00    +0.000 C 
ATOM     15  F   UNL     1      47.861   2.638  15.405  0.00  0.00    +0.000 F 
ATOM     16  F   UNL     1      48.657   4.218  16.666  0.00  0.00    +0.000 F 
ATOM     17  F   UNL     1      46.552   3.690  16.785  0.00  0.00    +0.000 F 
ENDBRANCH   7  14
BRANCH   9  18
ATOM     18  C   UNL     1      44.683   5.635  12.186  0.00  0.00    +0.000 C 
BRANCH  18  19
ATOM     19  C   UNL     1      44.293   4.173  11.935  0.00  0.00    +0.000 C 
BRANCH  19  20
ATOM     20  N   UNL     1      43.740   3.990  10.582  0.00  0.00    +0.000 N 
ATOM     21  H   UNL     1      43.163   4.771  10.279  0.00  0.00    +0.000 HD
BRANCH  20  22
ATOM     22  C   UNL     1      44.613   3.576   9.562  0.00  0.00    +0.000 A 
ATOM     23  C   UNL     1      45.308   4.470   8.739  0.00  0.00    +0.000 A 
ATOM     24  C   UNL     1      46.213   4.020   7.770  0.00  0.00    +0.000 A 
ATOM     25  C   UNL     1      46.480   2.658   7.626  0.00  0.00    +0.000 A 
ATOM     26  C   UNL     1      45.831   1.748   8.465  0.00  0.00    +0.000 A 
ATOM     27  C   UNL     1      44.920   2.210   9.431  0.00  0.00    +0.000 A 
BRANCH  25  28
ATOM     28  C   UNL     1      47.442   2.245   6.570  0.00  0.00    +0.000 C 
ATOM     29  N   UNL     1      47.597   3.074   5.493  0.00  0.00    +0.000 N 
ATOM     30  O   UNL     1      48.051   1.185   6.632  0.00  0.00    +0.000 OA
ATOM     31  H   UNL     1      46.940   3.807   5.276  0.00  0.00    +0.000 HD
ATOM     32  H   UNL     1      48.158   2.705   4.734  0.00  0.00    +0.000 HD
ENDBRANCH  25  28
ENDBRANCH  20  22
ENDBRANCH  19  20
ENDBRANCH  18  19
ENDBRANCH   9  18
TORSDOF 6
ENDMDL
MODEL 3
REMARK VINA RESULT:    -7.424      2.023      2.913
REMARK INTER + INTRA:         -10.653
REMARK INTER:                  -9.994
REMARK INTRA:                  -0.659
REMARK UNBOUND:                -0.625
REMARK  Name = 
REMARK  7 active torsions:
REMARK  status: ('A' for Active; 'I' for Inactive)
REMARK    1  A    between atoms: C_1  and  C_2
REMARK    2  A    between atoms: C_7  and  C_8
REMARK    3  A    between atoms: C_13  and  C_14
REMARK    4  A    between atoms: C_14  and  C_15
REMARK    5  A    between atoms: C_15  and  N_16
REMARK    6  A    between atoms: N_16  and  C_17
REMARK    7  A    between atoms: C_20  and  C_21
REMARK                            x       y       z     vdW  Elec       q    Type
REMARK                         _______ _______ _______ _____ _____    ______ ____
ROOT
ATOM      1  C   UNL     1      48.825   4.122  17.998  0.00  0.00    +0.000 C 
ATOM      2  C   UNL     1      49.265   5.058  16.878  0.00  0.00    +0.000 C 
ATOM      3  C   UNL     1      48.254   6.210  16.705  0.00  0.00    +0.000 C 
ATOM      4  N   UNL     1      48.766   7.254  15.810  0.00  0.00    +0.000 N 
ATOM      5  C   UNL     1      48.178   7.465  14.577  0.00  0.00    +0.000 A 
ATOM      6  C   UNL     1      48.262   8.730  13.998  0.00  0.00    +0.000 A 
ATOM      7  C   UNL     1      47.641   9.000  12.777  0.00  0.00    +0.000 A 
ATOM      8  C   UNL     1      46.940   7.969  12.152  0.00  0.00    +0.000 A 
ATOM      9  C   UNL     1      46.874   6.727  12.775  0.00  0.00    +0.000 A 
ATOM     10  N   UNL     1      47.481   6.478  13.968  0.00  0.00    +0.000 NA
ATOM     11  C   UNL     1      50.158   7.660  16.044  0.00  0.00    +0.000 C 
ATOM     12  C   UNL     1      51.064   6.432  16.217  0.00  0.00    +0.000 C 
ATOM     13  O   UNL     1      50.570   5.556  17.239  0.00  0.00    +0.000 OA
ENDROOT
BRANCH   7  14
ATOM     14  C   UNL     1      47.710  10.372  12.167  0.00  0.00    +0.000 C 
ATOM     15  F   UNL     1      48.465  11.251  12.883  0.00  0.00    +0.000 F 
ATOM     16  F   UNL     1      48.248  10.352  10.916  0.00  0.00    +0.000 F 
ATOM     17  F   UNL     1      46.484  10.949  12.039  0.00  0.00    +0.000 F 
ENDBRANCH   7  14
BRANCH   9  18
ATOM     18  C   UNL     1      46.120   5.593  12.114  0.00  0.00    +0.000 C 
BRANCH  18  19
ATOM     19  C   UNL     1      45.157   6.109  11.039  0.00  0.00    +0.000 C 
BRANCH  19  20
ATOM     20  N   UNL     1      44.422   5.002  10.401  0.00  0.00    +0.000 N 
ATOM     21  H   UNL     1      43.510   5.283  10.049  0.00  0.00    +0.000 HD
BRANCH  20  22
ATOM     22  C   UNL     1      45.107   4.207   9.467  0.00  0.00    +0.000 A 
ATOM     23  C   UNL     1      45.944   4.736   8.478  0.00  0.00    +0.000 A 
ATOM     24  C   UNL     1      46.655   3.908   7.601  0.00  0.00    +0.000 A 
ATOM     25  C   UNL     1      46.578   2.520   7.717  0.00  0.00    +0.000 A 
ATOM     26  C   UNL     1      45.782   1.966   8.723  0.00  0.00    +0.000 A 
ATOM     27  C   UNL     1      45.068   2.808   9.596  0.00  0.00    +0.000 A 
BRANCH  25  28
ATOM     28  C   UNL     1      47.347   1.697   6.747  0.00  0.00    +0.000 C 
ATOM     29  N   UNL     1      48.369   2.302   6.069  0.00  0.00    +0.000 N 
ATOM     30  O   UNL     1      47.060   0.527   6.524  0.00  0.00    +0.000 OA
ATOM     31  H   UNL     1      48.469   3.305   6.026  0.00  0.00    +0.000 HD
ATOM     32  H   UNL     1      48.787   1.754   5.326  0.00  0.00    +0.000 HD
ENDBRANCH  25  28
ENDBRANCH  20  22
ENDBRANCH  19  20
ENDBRANCH  18  19
ENDBRANCH   9  18
TORSDOF 6
ENDMDL
MODEL 4
REMARK VINA RESULT:    -6.872      4.294      6.008
REMARK INTER + INTRA:          -9.907
REMARK INTER:                  -8.772
REMARK INTRA:                  -1.136
REMARK UNBOUND:                -0.625
REMARK  Name = 
REMARK  7 active torsions:
REMARK  status: ('A' for Active; 'I' for Inactive)
REMARK    1  A    between atoms: C_1  and  C_2
REMARK    2  A    between atoms: C_7  and  C_8
REMARK    3  A    between atoms: C_13  and  C_14
REMARK    4  A    between atoms: C_14  and  C_15
REMARK    5  A    between atoms: C_15  and  N_16
REMARK    6  A    between atoms: N_16  and  C_17
REMARK    7  A    between atoms: C_20  and  C_21
REMARK                            x       y       z     vdW  Elec       q    Type
REMARK                         _______ _______ _______ _____ _____    ______ ____
ROOT
ATOM      1  C   UNL     1      50.178   7.518  11.746  0.00  0.00    +0.000 C 
ATOM      2  C   UNL     1      49.344   7.856  12.976  0.00  0.00    +0.000 C 
ATOM      3  C   UNL     1      50.134   7.558  14.267  0.00  0.00    +0.000 C 
ATOM      4  N   UNL     1      49.460   8.095  15.454  0.00  0.00    +0.000 N 
ATOM      5  C   UNL     1      48.925   7.240  16.399  0.00  0.00    +0.000 A 
ATOM      6  C   UNL     1      48.805   7.680  17.715  0.00  0.00    +0.000 A 
ATOM      7  C   UNL     1      48.315   6.833  18.711  0.00  0.00    +0.000 A 
ATOM      8  C   UNL     1      47.946   5.538  18.350  0.00  0.00    +0.000 A 
ATOM      9  C   UNL     1      48.096   5.140  17.026  0.00  0.00    +0.000 A 
ATOM     10  N   UNL     1      48.579   5.975  16.066  0.00  0.00    +0.000 NA
ATOM     11  C   UNL     1      48.949   9.466  15.324  0.00  0.00    +0.000 C 
ATOM     12  C   UNL     1      48.197   9.646  13.997  0.00  0.00    +0.000 C 
ATOM     13  O   UNL     1      49.006   9.255  12.880  0.00  0.00    +0.000 OA
ENDROOT
BRANCH   7  14
ATOM     14  C   UNL     1      48.210   7.301  20.135  0.00  0.00    +0.000 C 
ATOM     15  F   UNL     1      49.277   6.952  20.906  0.00  0.00    +0.000 F 
ATOM     16  F   UNL     1      48.115   8.657  20.225  0.00  0.00    +0.000 F 
ATOM     17  F   UNL     1      47.112   6.806  20.768  0.00  0.00    +0.000 F 
ENDBRANCH   7  14
BRANCH   9  18
ATOM     18  C   UNL     1      47.701   3.738  16.611  0.00  0.00    +0.000 C 
BRANCH  18  19
ATOM     19  C   UNL     1      47.437   3.651  15.104  0.00  0.00    +0.000 C 
BRANCH  19  20
ATOM     20  N   UNL     1      46.292   4.492  14.710  0.00  0.00    +0.000 N 
ATOM     21  H   UNL     1      46.302   5.408  15.151  0.00  0.00    +0.000 HD
BRANCH  20  22
ATOM     22  C   UNL     1      45.983   4.587  13.342  0.00  0.00    +0.000 A 
ATOM     23  C   UNL     1      46.294   5.708  12.564  0.00  0.00    +0.000 A 
ATOM     24  C   UNL     1      46.020   5.743  11.191  0.00  0.00    +0.000 A 
ATOM     25  C   UNL     1      45.463   4.637  10.550  0.00  0.00    +0.000 A 
ATOM     26  C   UNL     1      45.182   3.490  11.297  0.00  0.00    +0.000 A 
ATOM     27  C   UNL     1      45.456   3.467  12.677  0.00  0.00    +0.000 A 
BRANCH  25  28
ATOM     28  C   UNL     1      45.185   4.744   9.093  0.00  0.00    +0.000 C 
ATOM     29  N   UNL     1      43.952   4.349   8.651  0.00  0.00    +0.000 N 
ATOM     30  O   UNL     1      46.034   5.134   8.302  0.00  0.00    +0.000 OA
ATOM     31  H   UNL     1      43.330   3.788   9.213  0.00  0.00    +0.000 HD
ATOM     32  H   UNL     1      43.839   4.312   7.644  0.00  0.00    +0.000 HD
ENDBRANCH  25  28
ENDBRANCH  20  22
ENDBRANCH  19  20
ENDBRANCH  18  19
ENDBRANCH   9  18
TORSDOF 6
ENDMDL
MODEL 5
REMARK VINA RESULT:    -6.872      4.326      6.219
REMARK INTER + INTRA:          -9.907
REMARK INTER:                  -8.829
REMARK INTRA:                  -1.078
REMARK UNBOUND:                -0.625
REMARK  Name = 
REMARK  7 active torsions:
REMARK  status: ('A' for Active; 'I' for Inactive)
REMARK    1  A    between atoms: C_1  and  C_2
REMARK    2  A    between atoms: C_7  and  C_8
REMARK    3  A    between atoms: C_13  and  C_14
REMARK    4  A    between atoms: C_14  and  C_15
REMARK    5  A    between atoms: C_15  and  N_16
REMARK    6  A    between atoms: N_16  and  C_17
REMARK    7  A    between atoms: C_20  and  C_21
REMARK                            x       y       z     vdW  Elec       q    Type
REMARK                         _______ _______ _______ _____ _____    ______ ____
ROOT
ATOM      1  C   UNL     1      47.155   3.092  17.392  0.00  0.00    +0.000 C 
ATOM      2  C   UNL     1      48.485   3.761  17.063  0.00  0.00    +0.000 C 
ATOM      3  C   UNL     1      48.375   5.292  17.218  0.00  0.00    +0.000 C 
ATOM      4  N   UNL     1      49.688   5.942  17.146  0.00  0.00    +0.000 N 
ATOM      5  C   UNL     1      50.005   6.759  16.078  0.00  0.00    +0.000 A 
ATOM      6  C   UNL     1      50.946   7.771  16.259  0.00  0.00    +0.000 A 
ATOM      7  C   UNL     1      51.260   8.650  15.220  0.00  0.00    +0.000 A 
ATOM      8  C   UNL     1      50.610   8.484  13.998  0.00  0.00    +0.000 A 
ATOM      9  C   UNL     1      49.669   7.468  13.870  0.00  0.00    +0.000 A 
ATOM     10  N   UNL     1      49.369   6.620  14.892  0.00  0.00    +0.000 NA
ATOM     11  C   UNL     1      50.754   5.300  17.927  0.00  0.00    +0.000 C 
ATOM     12  C   UNL     1      50.754   3.780  17.705  0.00  0.00    +0.000 C 
ATOM     13  O   UNL     1      49.464   3.212  17.969  0.00  0.00    +0.000 OA
ENDROOT
BRANCH   7  14
ATOM     14  C   UNL     1      52.256   9.756  15.425  0.00  0.00    +0.000 C 
ATOM     15  F   UNL     1      51.693  10.938  15.802  0.00  0.00    +0.000 F 
ATOM     16  F   UNL     1      53.168   9.455  16.391  0.00  0.00    +0.000 F 
ATOM     17  F   UNL     1      52.975  10.026  14.302  0.00  0.00    +0.000 F 
ENDBRANCH   7  14
BRANCH   9  18
ATOM     18  C   UNL     1      48.951   7.269  12.552  0.00  0.00    +0.000 C 
BRANCH  18  19
ATOM     19  C   UNL     1      47.636   8.055  12.503  0.00  0.00    +0.000 C 
BRANCH  19  20
ATOM     20  N   UNL     1      46.580   7.382  13.280  0.00  0.00    +0.000 N 
ATOM     21  H   UNL     1      45.878   8.027  13.637  0.00  0.00    +0.000 HD
BRANCH  20  22
ATOM     22  C   UNL     1      45.985   6.234  12.731  0.00  0.00    +0.000 A 
ATOM     23  C   UNL     1      45.695   5.089  13.481  0.00  0.00    +0.000 A 
ATOM     24  C   UNL     1      45.049   3.985  12.912  0.00  0.00    +0.000 A 
ATOM     25  C   UNL     1      44.637   4.014  11.579  0.00  0.00    +0.000 A 
ATOM     26  C   UNL     1      44.877   5.162  10.820  0.00  0.00    +0.000 A 
ATOM     27  C   UNL     1      45.531   6.264  11.401  0.00  0.00    +0.000 A 
BRANCH  25  28
ATOM     28  C   UNL     1      43.969   2.804  11.031  0.00  0.00    +0.000 C 
ATOM     29  N   UNL     1      44.493   2.247   9.898  0.00  0.00    +0.000 N 
ATOM     30  O   UNL     1      42.960   2.336  11.545  0.00  0.00    +0.000 OA
ATOM     31  H   UNL     1      45.146   2.738   9.306  0.00  0.00    +0.000 HD
ATOM     32  H   UNL     1      43.943   1.506   9.479  0.00  0.00    +0.000 HD
ENDBRANCH  25  28
ENDBRANCH  20  22
ENDBRANCH  19  20
ENDBRANCH  18  19
ENDBRANCH   9  18
TORSDOF 6
ENDMDL
MODEL 6
REMARK VINA RESULT:    -6.782      4.115      6.185
REMARK INTER + INTRA:          -9.787
REMARK INTER:                  -8.877
REMARK INTRA:                  -0.910
REMARK UNBOUND:                -0.625
REMARK  Name = 
REMARK  7 active torsions:
REMARK  status: ('A' for Active; 'I' for Inactive)
REMARK    1  A    between atoms: C_1  and  C_2
REMARK    2  A    between atoms: C_7  and  C_8
REMARK    3  A    between atoms: C_13  and  C_14
REMARK    4  A    between atoms: C_14  and  C_15
REMARK    5  A    between atoms: C_15  and  N_16
REMARK    6  A    between atoms: N_16  and  C_17
REMARK    7  A    between atoms: C_20  and  C_21
REMARK                            x       y       z     vdW  Elec       q    Type
REMARK                         _______ _______ _______ _____ _____    ______ ____
ROOT
ATOM      1  C   UNL     1      50.529   2.337  17.027  0.00  0.00    +0.000 C 
ATOM      2  C   UNL     1      50.638   3.764  17.551  0.00  0.00    +0.000 C 
ATOM      3  C   UNL     1      49.237   4.366  17.780  0.00  0.00    +0.000 C 
ATOM      4  N   UNL     1      49.303   5.639  18.507  0.00  0.00    +0.000 N 
ATOM      5  C   UNL     1      48.958   6.820  17.878  0.00  0.00    +0.000 A 
ATOM      6  C   UNL     1      48.489   7.882  18.649  0.00  0.00    +0.000 A 
ATOM      7  C   UNL     1      48.084   9.076  18.050  0.00  0.00    +0.000 A 
ATOM      8  C   UNL     1      48.165   9.178  16.662  0.00  0.00    +0.000 A 
ATOM      9  C   UNL     1      48.627   8.086  15.934  0.00  0.00    +0.000 A 
ATOM     10  N   UNL     1      49.015   6.926  16.530  0.00  0.00    +0.000 NA
ATOM     11  C   UNL     1      50.200   5.656  19.671  0.00  0.00    +0.000 C 
ATOM     12  C   UNL     1      51.554   5.017  19.326  0.00  0.00    +0.000 C 
ATOM     13  O   UNL     1      51.389   3.702  18.781  0.00  0.00    +0.000 OA
ENDROOT
BRANCH   7  14
ATOM     14  C   UNL     1      47.554  10.211  18.881  0.00  0.00    +0.000 C 
ATOM     15  F   UNL     1      48.482  10.757  19.716  0.00  0.00    +0.000 F 
ATOM     16  F   UNL     1      47.094  11.239  18.116  0.00  0.00    +0.000 F 
ATOM     17  F   UNL     1      46.512   9.837  19.672  0.00  0.00    +0.000 F 
ENDBRANCH   7  14
BRANCH   9  18
ATOM     18  C   UNL     1      48.725   8.174  14.426  0.00  0.00    +0.000 C 
BRANCH  18  19
ATOM     19  C   UNL     1      48.602   6.792  13.773  0.00  0.00    +0.000 C 
BRANCH  19  20
ATOM     20  N   UNL     1      47.322   6.148  14.117  0.00  0.00    +0.000 N 
ATOM     21  H   UNL     1      46.712   6.747  14.668  0.00  0.00    +0.000 HD
BRANCH  20  22
ATOM     22  C   UNL     1      46.611   5.502  13.091  0.00  0.00    +0.000 A 
ATOM     23  C   UNL     1      46.015   4.245  13.248  0.00  0.00    +0.000 A 
ATOM     24  C   UNL     1      45.265   3.658  12.221  0.00  0.00    +0.000 A 
ATOM     25  C   UNL     1      45.058   4.334  11.019  0.00  0.00    +0.000 A 
ATOM     26  C   UNL     1      45.607   5.608  10.853  0.00  0.00    +0.000 A 
ATOM     27  C   UNL     1      46.363   6.187  11.889  0.00  0.00    +0.000 A 
BRANCH  25  28
ATOM     28  C   UNL     1      44.264   3.650   9.964  0.00  0.00    +0.000 C 
ATOM     29  N   UNL     1      44.090   4.303   8.776  0.00  0.00    +0.000 N 
ATOM     30  O   UNL     1      43.748   2.556  10.154  0.00  0.00    +0.000 OA
ATOM     31  H   UNL     1      44.268   5.290   8.670  0.00  0.00    +0.000 HD
ATOM     32  H   UNL     1      43.441   3.870   8.129  0.00  0.00    +0.000 HD
ENDBRANCH  25  28
ENDBRANCH  20  22
ENDBRANCH  19  20
ENDBRANCH  18  19
ENDBRANCH   9  18
TORSDOF 6
ENDMDL
MODEL 7
REMARK VINA RESULT:    -6.766      5.340      8.915
REMARK INTER + INTRA:          -9.765
REMARK INTER:                  -8.899
REMARK INTRA:                  -0.866
REMARK UNBOUND:                -0.625
REMARK  Name = 
REMARK  7 active torsions:
REMARK  status: ('A' for Active; 'I' for Inactive)
REMARK    1  A    between atoms: C_1  and  C_2
REMARK    2  A    between atoms: C_7  and  C_8
REMARK    3  A    between atoms: C_13  and  C_14
REMARK    4  A    between atoms: C_14  and  C_15
REMARK    5  A    between atoms: C_15  and  N_16
REMARK    6  A    between atoms: N_16  and  C_17
REMARK    7  A    between atoms: C_20  and  C_21
REMARK                            x       y       z     vdW  Elec       q    Type
REMARK                         _______ _______ _______ _____ _____    ______ ____
ROOT
ATOM      1  C   UNL     1      43.377   2.507  11.782  0.00  0.00    +0.000 C 
ATOM      2  C   UNL     1      43.976   3.772  12.385  0.00  0.00    +0.000 C 
ATOM      3  C   UNL     1      45.517   3.718  12.341  0.00  0.00    +0.000 C 
ATOM      4  N   UNL     1      46.118   5.011  12.686  0.00  0.00    +0.000 N 
ATOM      5  C   UNL     1      46.839   5.154  13.856  0.00  0.00    +0.000 A 
ATOM      6  C   UNL     1      47.831   6.130  13.921  0.00  0.00    +0.000 A 
ATOM      7  C   UNL     1      48.617   6.276  15.067  0.00  0.00    +0.000 A 
ATOM      8  C   UNL     1      48.377   5.423  16.143  0.00  0.00    +0.000 A 
ATOM      9  C   UNL     1      47.384   4.456  16.026  0.00  0.00    +0.000 A 
ATOM     10  N   UNL     1      46.628   4.321  14.902  0.00  0.00    +0.000 NA
ATOM     11  C   UNL     1      45.505   6.183  12.048  0.00  0.00    +0.000 C 
ATOM     12  C   UNL     1      43.973   6.117  12.141  0.00  0.00    +0.000 C 
ATOM     13  O   UNL     1      43.469   4.882  11.617  0.00  0.00    +0.000 OA
ENDROOT
BRANCH   7  14
ATOM     14  C   UNL     1      49.704   7.312  15.125  0.00  0.00    +0.000 C 
ATOM     15  F   UNL     1      50.257   7.594  13.913  0.00  0.00    +0.000 F 
ATOM     16  F   UNL     1      49.255   8.502  15.614  0.00  0.00    +0.000 F 
ATOM     17  F   UNL     1      50.735   6.942  15.931  0.00  0.00    +0.000 F 
ENDBRANCH   7  14
BRANCH   9  18
ATOM     18  C   UNL     1      47.106   3.519  17.183  0.00  0.00    +0.000 C 
BRANCH  18  19
ATOM     19  C   UNL     1      48.389   3.171  17.946  0.00  0.00    +0.000 C 
BRANCH  19  20
ATOM     20  N   UNL     1      49.280   2.321  17.137  0.00  0.00    +0.000 N 
ATOM     21  H   UNL     1      49.071   2.360  16.141  0.00  0.00    +0.000 HD
BRANCH  20  22
ATOM     22  C   UNL     1      50.663   2.402  17.371  0.00  0.00    +0.000 A 
ATOM     23  C   UNL     1      51.318   3.600  17.682  0.00  0.00    +0.000 A 
ATOM     24  C   UNL     1      52.689   3.632  17.965  0.00  0.00    +0.000 A 
ATOM     25  C   UNL     1      53.437   2.455  17.984  0.00  0.00    +0.000 A 
ATOM     26  C   UNL     1      52.798   1.241  17.718  0.00  0.00    +0.000 A 
ATOM     27  C   UNL     1      51.422   1.220  17.430  0.00  0.00    +0.000 A 
BRANCH  25  28
ATOM     28  C   UNL     1      54.890   2.559  18.278  0.00  0.00    +0.000 C 
ATOM     29  N   UNL     1      55.413   3.809  18.467  0.00  0.00    +0.000 N 
ATOM     30  O   UNL     1      55.613   1.571  18.316  0.00  0.00    +0.000 OA
ATOM     31  H   UNL     1      54.923   4.647  18.192  0.00  0.00    +0.000 HD
ATOM     32  H   UNL     1      56.422   3.856  18.537  0.00  0.00    +0.000 HD
ENDBRANCH  25  28
ENDBRANCH  20  22
ENDBRANCH  19  20
ENDBRANCH  18  19
ENDBRANCH   9  18
TORSDOF 6
ENDMDL
MODEL 8
REMARK VINA RESULT:    -6.705      4.749      6.721
REMARK INTER + INTRA:          -9.683
REMARK INTER:                  -8.849
REMARK INTRA:                  -0.834
REMARK UNBOUND:                -0.625
REMARK  Name = 
REMARK  7 active torsions:
REMARK  status: ('A' for Active; 'I' for Inactive)
REMARK    1  A    between atoms: C_1  and  C_2
REMARK    2  A    between atoms: C_7  and  C_8
REMARK    3  A    between atoms: C_13  and  C_14
REMARK    4  A    between atoms: C_14  and  C_15
REMARK    5  A    between atoms: C_15  and  N_16
REMARK    6  A    between atoms: N_16  and  C_17
REMARK    7  A    between atoms: C_20  and  C_21
REMARK                            x       y       z     vdW  Elec       q    Type
REMARK                         _______ _______ _______ _____ _____    ______ ____
ROOT
ATOM      1  C   UNL     1      54.957   8.290  16.483  0.00  0.00    +0.000 C 
ATOM      2  C   UNL     1      53.787   7.693  17.257  0.00  0.00    +0.000 C 
ATOM      3  C   UNL     1      53.267   6.420  16.559  0.00  0.00    +0.000 C 
ATOM      4  N   UNL     1      52.310   5.691  17.399  0.00  0.00    +0.000 N 
ATOM      5  C   UNL     1      50.980   5.610  17.031  0.00  0.00    +0.000 A 
ATOM      6  C   UNL     1      50.226   4.523  17.466  0.00  0.00    +0.000 A 
ATOM      7  C   UNL     1      48.893   4.376  17.078  0.00  0.00    +0.000 A 
ATOM      8  C   UNL     1      48.337   5.349  16.247  0.00  0.00    +0.000 A 
ATOM      9  C   UNL     1      49.134   6.409  15.828  0.00  0.00    +0.000 A 
ATOM     10  N   UNL     1      50.434   6.538  16.210  0.00  0.00    +0.000 NA
ATOM     11  C   UNL     1      52.698   5.531  18.806  0.00  0.00    +0.000 C 
ATOM     12  C   UNL     1      53.213   6.857  19.386  0.00  0.00    +0.000 C 
ATOM     13  O   UNL     1      54.269   7.404  18.585  0.00  0.00    +0.000 OA
ENDROOT
BRANCH   7  14
ATOM     14  C   UNL     1      48.088   3.189  17.528  0.00  0.00    +0.000 C 
ATOM     15  F   UNL     1      46.747   3.331  17.332  0.00  0.00    +0.000 F 
ATOM     16  F   UNL     1      48.440   2.049  16.872  0.00  0.00    +0.000 F 
ATOM     17  F   UNL     1      48.246   2.923  18.853  0.00  0.00    +0.000 F 
ENDBRANCH   7  14
BRANCH   9  18
ATOM     18  C   UNL     1      48.553   7.477  14.927  0.00  0.00    +0.000 C 
BRANCH  18  19
ATOM     19  C   UNL     1      48.545   7.033  13.460  0.00  0.00    +0.000 C 
BRANCH  19  20
ATOM     20  N   UNL     1      47.239   7.289  12.828  0.00  0.00    +0.000 N 
ATOM     21  H   UNL     1      47.272   8.038  12.139  0.00  0.00    +0.000 HD
BRANCH  20  22
ATOM     22  C   UNL     1      46.508   6.188  12.350  0.00  0.00    +0.000 A 
ATOM     23  C   UNL     1      46.327   5.012  13.087  0.00  0.00    +0.000 A 
ATOM     24  C   UNL     1      45.543   3.958  12.602  0.00  0.00    +0.000 A 
ATOM     25  C   UNL     1      44.885   4.070  11.377  0.00  0.00    +0.000 A 
ATOM     26  C   UNL     1      45.016   5.250  10.641  0.00  0.00    +0.000 A 
ATOM     27  C   UNL     1      45.809   6.301  11.136  0.00  0.00    +0.000 A 
BRANCH  25  28
ATOM     28  C   UNL     1      44.080   2.910  10.912  0.00  0.00    +0.000 C 
ATOM     29  N   UNL     1      44.582   2.158   9.886  0.00  0.00    +0.000 N 
ATOM     30  O   UNL     1      42.985   2.649  11.396  0.00  0.00    +0.000 OA
ATOM     31  H   UNL     1      45.333   2.482   9.296  0.00  0.00    +0.000 HD
ATOM     32  H   UNL     1      43.955   1.457   9.509  0.00  0.00    +0.000 HD
ENDBRANCH  25  28
ENDBRANCH  20  22
ENDBRANCH  19  20
ENDBRANCH  18  19
ENDBRANCH   9  18
TORSDOF 6
ENDMDL
MODEL 9
REMARK VINA RESULT:    -6.674      4.861      9.593
REMARK INTER + INTRA:          -9.640
REMARK INTER:                  -8.295
REMARK INTRA:                  -1.346
REMARK UNBOUND:                -0.625
REMARK  Name = 
REMARK  7 active torsions:
REMARK  status: ('A' for Active; 'I' for Inactive)
REMARK    1  A    between atoms: C_1  and  C_2
REMARK    2  A    between atoms: C_7  and  C_8
REMARK    3  A    between atoms: C_13  and  C_14
REMARK    4  A    between atoms: C_14  and  C_15
REMARK    5  A    between atoms: C_15  and  N_16
REMARK    6  A    between atoms: N_16  and  C_17
REMARK    7  A    between atoms: C_20  and  C_21
REMARK                            x       y       z     vdW  Elec       q    Type
REMARK                         _______ _______ _______ _____ _____    ______ ____
ROOT
ATOM      1  C   UNL     1      43.410   2.440  11.858  0.00  0.00    +0.000 C 
ATOM      2  C   UNL     1      43.958   3.686  12.544  0.00  0.00    +0.000 C 
ATOM      3  C   UNL     1      45.498   3.718  12.463  0.00  0.00    +0.000 C 
ATOM      4  N   UNL     1      46.040   5.011  12.896  0.00  0.00    +0.000 N 
ATOM      5  C   UNL     1      46.782   5.102  14.057  0.00  0.00    +0.000 A 
ATOM      6  C   UNL     1      47.724   6.122  14.177  0.00  0.00    +0.000 A 
ATOM      7  C   UNL     1      48.529   6.222  15.313  0.00  0.00    +0.000 A 
ATOM      8  C   UNL     1      48.362   5.277  16.324  0.00  0.00    +0.000 A 
ATOM      9  C   UNL     1      47.418   4.270  16.154  0.00  0.00    +0.000 A 
ATOM     10  N   UNL     1      46.642   4.181  15.039  0.00  0.00    +0.000 NA
ATOM     11  C   UNL     1      45.350   6.194  12.364  0.00  0.00    +0.000 C 
ATOM     12  C   UNL     1      43.827   6.039  12.485  0.00  0.00    +0.000 C 
ATOM     13  O   UNL     1      43.374   4.823  11.877  0.00  0.00    +0.000 OA
ENDROOT
BRANCH   7  14
ATOM     14  C   UNL     1      49.562   7.308  15.429  0.00  0.00    +0.000 C 
ATOM     15  F   UNL     1      50.843   6.861  15.305  0.00  0.00    +0.000 F 
ATOM     16  F   UNL     1      49.410   8.268  14.475  0.00  0.00    +0.000 F 
ATOM     17  F   UNL     1      49.506   7.956  16.624  0.00  0.00    +0.000 F 
ENDBRANCH   7  14
BRANCH   9  18
ATOM     18  C   UNL     1      47.219   3.234  17.239  0.00  0.00    +0.000 C 
BRANCH  18  19
ATOM     19  C   UNL     1      48.486   3.050  18.081  0.00  0.00    +0.000 C 
BRANCH  19  20
ATOM     20  N   UNL     1      48.300   3.563  19.450  0.00  0.00    +0.000 N 
ATOM     21  H   UNL     1      48.743   2.979  20.157  0.00  0.00    +0.000 HD
BRANCH  20  22
ATOM     22  C   UNL     1      48.548   4.926  19.686  0.00  0.00    +0.000 A 
ATOM     23  C   UNL     1      49.829   5.488  19.646  0.00  0.00    +0.000 A 
ATOM     24  C   UNL     1      50.031   6.862  19.829  0.00  0.00    +0.000 A 
ATOM     25  C   UNL     1      48.947   7.719  20.017  0.00  0.00    +0.000 A 
ATOM     26  C   UNL     1      47.654   7.188  20.019  0.00  0.00    +0.000 A 
ATOM     27  C   UNL     1      47.463   5.806  19.839  0.00  0.00    +0.000 A 
BRANCH  25  28
ATOM     28  C   UNL     1      49.229   9.165  20.219  0.00  0.00    +0.000 C 
ATOM     29  N   UNL     1      50.409   9.503  20.823  0.00  0.00    +0.000 N 
ATOM     30  O   UNL     1      48.426  10.030  19.896  0.00  0.00    +0.000 OA
ATOM     31  H   UNL     1      50.967   8.834  21.331  0.00  0.00    +0.000 HD
ATOM     32  H   UNL     1      50.514  10.482  21.062  0.00  0.00    +0.000 HD
ENDBRANCH  25  28
ENDBRANCH  20  22
ENDBRANCH  19  20
ENDBRANCH  18  19
ENDBRANCH   9  18
TORSDOF 6
ENDMDL
