MODEL 1
REMARK VINA RESULT:    -6.662      0.000      0.000
REMARK INTER + INTRA:         -12.173
REMARK INTER:                 -10.362
REMARK INTRA:                  -1.811
REMARK UNBOUND:                -1.811
REMARK  Name = 
REMARK  10 active torsions:
REMARK  status: ('A' for Active; 'I' for Inactive)
REMARK    1  A    between atoms: N_1  and  C_2
REMARK    2  A    between atoms: C_2  and  C_3
REMARK    3  A    between atoms: C_3  and  N_4
REMARK    4  A    between atoms: N_4  and  C_5
REMARK    5  A    between atoms: C_5  and  C_6
REMARK    6  A    between atoms: C_9  and  C_10
REMARK    7  A    between atoms: C_10  and  C_11
REMARK    8  A    between atoms: C_11  and  N_12
REMARK    9  A    between atoms: N_12  and  C_13
REMARK   10  A    between atoms: C_20  and  C_22
REMARK                            x       y       z     vdW  Elec       q    Type
REMARK                         _______ _______ _______ _____ _____    ______ ____
ROOT
ATOM      1  N   UNL     1      49.183   7.707  13.675  0.00  0.00    +0.000 N 
ATOM      2  C   UNL     1      50.005   7.833  14.817  0.00  0.00    +0.000 C 
ATOM      3  O   UNL     1      51.217   7.614  14.754  0.00  0.00    +0.000 OA
ENDROOT
BRANCH   2   4
ATOM      4  C   UNL     1      49.412   8.235  16.109  0.00  0.00    +0.000 A 
ATOM      5  C   UNL     1      49.309   9.540  16.567  0.00  0.00    +0.000 A 
ATOM      6  S   UNL     1      48.549   9.681  18.090  0.00  0.00    +0.000 S 
ATOM      7  C   UNL     1      48.182   8.021  18.115  0.00  0.00    +0.000 A 
ATOM      8  N   UNL     1      47.425   7.488  19.109  0.00  0.00    +0.000 NA
ATOM      9  C   UNL     1      47.174   6.230  18.964  0.00  0.00    +0.000 A 
ATOM     10  N   UNL     1      47.645   5.452  17.935  0.00  0.00    +0.000 N 
ATOM     11  C   UNL     1      48.525   5.920  16.984  0.00  0.00    +0.000 A 
ATOM     12  O   UNL     1      49.110   5.149  16.231  0.00  0.00    +0.000 OA
ATOM     13  C   UNL     1      48.731   7.358  17.033  0.00  0.00    +0.000 A 
ATOM     14  H   UNL     1      47.465   4.462  17.918  0.00  0.00    +0.000 HD
ENDBRANCH   2   4
BRANCH   1  15
ATOM     15  C   UNL     1      49.841   7.312  12.419  0.00  0.00    +0.000 C 
BRANCH  15  16
ATOM     16  C   UNL     1      50.709   8.395  11.737  0.00  0.00    +0.000 C 
BRANCH  16  17
ATOM     17  N   UNL     1      52.155   8.152  11.831  0.00  0.00    +0.000 NA
ATOM     18  H   UNL     1      52.483   8.559  12.710  0.00  0.00    +0.000 HD
ATOM     19  H   UNL     1      52.627   8.681  11.099  0.00  0.00    +0.000 HD
ENDBRANCH  16  17
ENDBRANCH  15  16
ENDBRANCH   1  15
BRANCH   1  20
ATOM     20  C   UNL     1      47.760   8.030  13.713  0.00  0.00    +0.000 C 
BRANCH  20  21
ATOM     21  C   UNL     1      46.721   7.070  13.216  0.00  0.00    +0.000 A 
ATOM     22  C   UNL     1      46.722   5.731  13.617  0.00  0.00    +0.000 A 
ATOM     23  C   UNL     1      45.612   4.926  13.360  0.00  0.00    +0.000 A 
ATOM     24  C   UNL     1      44.532   5.471  12.677  0.00  0.00    +0.000 A 
ATOM     25  N   UNL     1      44.542   6.753  12.229  0.00  0.00    +0.000 NA
ATOM     26  C   UNL     1      45.623   7.517  12.497  0.00  0.00    +0.000 A 
BRANCH  24  27
ATOM     27  C   UNL     1      43.255   4.675  12.496  0.00  0.00    +0.000 C 
BRANCH  27  28
ATOM     28  C   UNL     1      43.211   4.031  11.107  0.00  0.00    +0.000 C 
BRANCH  28  29
ATOM     29  N   UNL     1      43.681   4.903  10.022  0.00  0.00    +0.000 NA
ATOM     30  H   UNL     1      44.415   5.522  10.363  0.00  0.00    +0.000 HD
BRANCH  29  31
ATOM     31  C   UNL     1      44.259   4.104   8.964  0.00  0.00    +0.000 C 
ATOM     32  C   UNL     1      44.865   2.773   9.392  0.00  0.00    +0.000 C 
ATOM     33  C   UNL     1      45.800   2.468   8.242  0.00  0.00    +0.000 C 
ATOM     34  C   UNL     1      46.256   3.843   7.773  0.00  0.00    +0.000 C 
ATOM     35  N   UNL     1      45.420   4.821   8.477  0.00  0.00    +0.000 NA
ATOM     36  H   UNL     1      45.114   5.562   7.850  0.00  0.00    +0.000 HD
ENDBRANCH  29  31
ENDBRANCH  28  29
ENDBRANCH  27  28
ENDBRANCH  24  27
ENDBRANCH  20  21
ENDBRANCH   1  20
TORSDOF 10
ENDMDL
MODEL 2
REMARK VINA RESULT:    -6.588      2.301      3.030
REMARK INTER + INTRA:         -12.059
REMARK INTER:                 -10.408
REMARK INTRA:                  -1.651
REMARK UNBOUND:                -1.811
REMARK  Name = 
REMARK  10 active torsions:
REMARK  status: ('A' for Active; 'I' for Inactive)
REMARK    1  A    between atoms: N_1  and  C_2
REMARK    2  A    between atoms: C_2  and  C_3
REMARK    3  A    between atoms: C_3  and  N_4
REMARK    4  A    between atoms: N_4  and  C_5
REMARK    5  A    between atoms: C_5  and  C_6
REMARK    6  A    between atoms: C_9  and  C_10
REMARK    7  A    between atoms: C_10  and  C_11
REMARK    8  A    between atoms: C_11  and  N_12
REMARK    9  A    between atoms: N_12  and  C_13
REMARK   10  A    between atoms: C_20  and  C_22
REMARK                            x       y       z     vdW  Elec       q    Type
REMARK                         _______ _______ _______ _____ _____    ______ ____
ROOT
ATOM      1  N   UNL     1      48.658   7.488  15.258  0.00  0.00    +0.000 N 
ATOM      2  C   UNL     1      48.647   7.119  16.622  0.00  0.00    +0.000 C 
ATOM      3  O   UNL     1      48.649   7.974  17.511  0.00  0.00    +0.000 OA
ENDROOT
BRANCH   2   4
ATOM      4  C   UNL     1      48.631   5.691  16.998  0.00  0.00    +0.000 A 
ATOM      5  C   UNL     1      47.503   4.884  17.018  0.00  0.00    +0.000 A 
ATOM      6  S   UNL     1      47.816   3.267  17.471  0.00  0.00    +0.000 S 
ATOM      7  C   UNL     1      49.493   3.546  17.492  0.00  0.00    +0.000 A 
ATOM      8  N   UNL     1      50.368   2.529  17.701  0.00  0.00    +0.000 NA
ATOM      9  C   UNL     1      51.610   2.876  17.626  0.00  0.00    +0.000 A 
ATOM     10  N   UNL     1      52.050   4.158  17.401  0.00  0.00    +0.000 N 
ATOM     11  C   UNL     1      51.201   5.240  17.321  0.00  0.00    +0.000 A 
ATOM     12  O   UNL     1      51.633   6.385  17.362  0.00  0.00    +0.000 OA
ATOM     13  C   UNL     1      49.795   4.878  17.269  0.00  0.00    +0.000 A 
ATOM     14  H   UNL     1      53.034   4.371  17.420  0.00  0.00    +0.000 HD
ENDBRANCH   2   4
BRANCH   1  15
ATOM     15  C   UNL     1      48.664   8.929  14.956  0.00  0.00    +0.000 C 
BRANCH  15  16
ATOM     16  C   UNL     1      50.051   9.562  14.699  0.00  0.00    +0.000 C 
BRANCH  16  17
ATOM     17  N   UNL     1      50.897   9.662  15.896  0.00  0.00    +0.000 NA
ATOM     18  H   UNL     1      51.644   8.969  15.808  0.00  0.00    +0.000 HD
ATOM     19  H   UNL     1      50.355   9.368  16.707  0.00  0.00    +0.000 HD
ENDBRANCH  16  17
ENDBRANCH  15  16
ENDBRANCH   1  15
BRANCH   1  20
ATOM     20  C   UNL     1      48.584   6.493  14.193  0.00  0.00    +0.000 C 
BRANCH  20  21
ATOM     21  C   UNL     1      47.274   6.070  13.600  0.00  0.00    +0.000 A 
ATOM     22  C   UNL     1      46.849   4.739  13.660  0.00  0.00    +0.000 A 
ATOM     23  C   UNL     1      45.530   4.414  13.345  0.00  0.00    +0.000 A 
ATOM     24  C   UNL     1      44.668   5.427  12.943  0.00  0.00    +0.000 A 
ATOM     25  N   UNL     1      45.082   6.714  12.822  0.00  0.00    +0.000 NA
ATOM     26  C   UNL     1      46.362   7.007  13.142  0.00  0.00    +0.000 A 
BRANCH  24  27
ATOM     27  C   UNL     1      43.195   5.140  12.722  0.00  0.00    +0.000 C 
BRANCH  27  28
ATOM     28  C   UNL     1      42.959   4.575  11.319  0.00  0.00    +0.000 C 
BRANCH  28  29
ATOM     29  N   UNL     1      43.804   5.174  10.276  0.00  0.00    +0.000 NA
ATOM     30  H   UNL     1      44.673   5.516  10.684  0.00  0.00    +0.000 HD
BRANCH  29  31
ATOM     31  C   UNL     1      44.162   4.171   9.296  0.00  0.00    +0.000 C 
ATOM     32  C   UNL     1      44.817   2.910   9.846  0.00  0.00    +0.000 C 
ATOM     33  C   UNL     1      45.516   2.359   8.622  0.00  0.00    +0.000 C 
ATOM     34  C   UNL     1      45.897   3.604   7.832  0.00  0.00    +0.000 C 
ATOM     35  N   UNL     1      45.222   4.732   8.484  0.00  0.00    +0.000 NA
ATOM     36  H   UNL     1      44.815   5.363   7.797  0.00  0.00    +0.000 HD
ENDBRANCH  29  31
ENDBRANCH  28  29
ENDBRANCH  27  28
ENDBRANCH  24  27
ENDBRANCH  20  21
ENDBRANCH   1  20
TORSDOF 10
ENDMDL
MODEL 3
REMARK VINA RESULT:    -6.339      2.222      2.992
REMARK INTER + INTRA:         -11.670
REMARK INTER:                  -9.606
REMARK INTRA:                  -2.065
REMARK UNBOUND:                -1.811
REMARK  Name = 
REMARK  10 active torsions:
REMARK  status: ('A' for Active; 'I' for Inactive)
REMARK    1  A    between atoms: N_1  and  C_2
REMARK    2  A    between atoms: C_2  and  C_3
REMARK    3  A    between atoms: C_3  and  N_4
REMARK    4  A    between atoms: N_4  and  C_5
REMARK    5  A    between atoms: C_5  and  C_6
REMARK    6  A    between atoms: C_9  and  C_10
REMARK    7  A    between atoms: C_10  and  C_11
REMARK    8  A    between atoms: C_11  and  N_12
REMARK    9  A    between atoms: N_12  and  C_13
REMARK   10  A    between atoms: C_20  and  C_22
REMARK                            x       y       z     vdW  Elec       q    Type
REMARK                         _______ _______ _______ _____ _____    ______ ____
ROOT
ATOM      1  N   UNL     1      48.333   8.343  13.836  0.00  0.00    +0.000 N 
ATOM      2  C   UNL     1      48.719   8.669  15.156  0.00  0.00    +0.000 C 
ATOM      3  O   UNL     1      48.440   9.765  15.646  0.00  0.00    +0.000 OA
ENDROOT
BRANCH   2   4
ATOM      4  C   UNL     1      49.467   7.686  15.967  0.00  0.00    +0.000 A 
ATOM      5  C   UNL     1      48.897   6.792  16.861  0.00  0.00    +0.000 A 
ATOM      6  S   UNL     1      50.027   5.765  17.628  0.00  0.00    +0.000 S 
ATOM      7  C   UNL     1      51.296   6.365  16.669  0.00  0.00    +0.000 A 
ATOM      8  N   UNL     1      52.540   5.824  16.739  0.00  0.00    +0.000 NA
ATOM      9  C   UNL     1      53.386   6.336  15.908  0.00  0.00    +0.000 A 
ATOM     10  N   UNL     1      53.107   7.368  15.045  0.00  0.00    +0.000 N 
ATOM     11  C   UNL     1      51.902   8.035  15.038  0.00  0.00    +0.000 A 
ATOM     12  O   UNL     1      51.769   9.092  14.433  0.00  0.00    +0.000 OA
ATOM     13  C   UNL     1      50.881   7.408  15.861  0.00  0.00    +0.000 A 
ATOM     14  H   UNL     1      53.833   7.763  14.470  0.00  0.00    +0.000 HD
ENDBRANCH   2   4
BRANCH   1  15
ATOM     15  C   UNL     1      47.583   9.366  13.088  0.00  0.00    +0.000 C 
BRANCH  15  16
ATOM     16  C   UNL     1      48.329  10.026  11.906  0.00  0.00    +0.000 C 
BRANCH  16  17
ATOM     17  N   UNL     1      49.758  10.262  12.155  0.00  0.00    +0.000 NA
ATOM     18  H   UNL     1      49.885  11.264  12.315  0.00  0.00    +0.000 HD
ATOM     19  H   UNL     1      50.280  10.059  11.304  0.00  0.00    +0.000 HD
ENDBRANCH  16  17
ENDBRANCH  15  16
ENDBRANCH   1  15
BRANCH   1  20
ATOM     20  C   UNL     1      48.592   7.026  13.262  0.00  0.00    +0.000 C 
BRANCH  20  21
ATOM     21  C   UNL     1      47.477   6.109  12.859  0.00  0.00    +0.000 A 
ATOM     22  C   UNL     1      46.973   5.150  13.744  0.00  0.00    +0.000 A 
ATOM     23  C   UNL     1      45.778   4.494  13.453  0.00  0.00    +0.000 A 
ATOM     24  C   UNL     1      45.123   4.789  12.263  0.00  0.00    +0.000 A 
ATOM     25  N   UNL     1      45.631   5.674  11.368  0.00  0.00    +0.000 NA
ATOM     26  C   UNL     1      46.785   6.305  11.674  0.00  0.00    +0.000 A 
BRANCH  24  27
ATOM     27  C   UNL     1      43.757   4.201  11.971  0.00  0.00    +0.000 C 
BRANCH  27  28
ATOM     28  C   UNL     1      43.740   3.527  10.596  0.00  0.00    +0.000 C 
BRANCH  28  29
ATOM     29  N   UNL     1      43.705   4.464   9.464  0.00  0.00    +0.000 NA
ATOM     30  H   UNL     1      44.110   5.358   9.738  0.00  0.00    +0.000 HD
BRANCH  29  31
ATOM     31  C   UNL     1      44.509   3.951   8.376  0.00  0.00    +0.000 C 
ATOM     32  C   UNL     1      45.158   2.593   8.612  0.00  0.00    +0.000 C 
ATOM     33  C   UNL     1      46.283   2.601   7.600  0.00  0.00    +0.000 C 
ATOM     34  C   UNL     1      46.682   4.068   7.515  0.00  0.00    +0.000 C 
ATOM     35  N   UNL     1      45.663   4.820   8.256  0.00  0.00    +0.000 NA
ATOM     36  H   UNL     1      45.393   5.664   7.756  0.00  0.00    +0.000 HD
ENDBRANCH  29  31
ENDBRANCH  28  29
ENDBRANCH  27  28
ENDBRANCH  24  27
ENDBRANCH  20  21
ENDBRANCH   1  20
TORSDOF 10
ENDMDL
MODEL 4
REMARK VINA RESULT:    -6.163      1.758      2.273
REMARK INTER + INTRA:         -11.396
REMARK INTER:                  -9.690
REMARK INTRA:                  -1.706
REMARK UNBOUND:                -1.811
REMARK  Name = 
REMARK  10 active torsions:
REMARK  status: ('A' for Active; 'I' for Inactive)
REMARK    1  A    between atoms: N_1  and  C_2
REMARK    2  A    between atoms: C_2  and  C_3
REMARK    3  A    between atoms: C_3  and  N_4
REMARK    4  A    between atoms: N_4  and  C_5
REMARK    5  A    between atoms: C_5  and  C_6
REMARK    6  A    between atoms: C_9  and  C_10
REMARK    7  A    between atoms: C_10  and  C_11
REMARK    8  A    between atoms: C_11  and  N_12
REMARK    9  A    between atoms: N_12  and  C_13
REMARK   10  A    between atoms: C_20  and  C_22
REMARK                            x       y       z     vdW  Elec       q    Type
REMARK                         _______ _______ _______ _____ _____    ______ ____
ROOT
ATOM      1  N   UNL     1      48.755   7.509  14.023  0.00  0.00    +0.000 N 
ATOM      2  C   UNL     1      49.441   6.930  15.114  0.00  0.00    +0.000 C 
ATOM      3  O   UNL     1      50.673   6.910  15.150  0.00  0.00    +0.000 OA
ENDROOT
BRANCH   2   4
ATOM      4  C   UNL     1      48.677   6.340  16.233  0.00  0.00    +0.000 A 
ATOM      5  C   UNL     1      48.215   5.033  16.281  0.00  0.00    +0.000 A 
ATOM      6  S   UNL     1      47.388   4.644  17.724  0.00  0.00    +0.000 S 
ATOM      7  C   UNL     1      47.762   6.156  18.404  0.00  0.00    +0.000 A 
ATOM      8  N   UNL     1      47.440   6.442  19.692  0.00  0.00    +0.000 NA
ATOM      9  C   UNL     1      47.843   7.602  20.093  0.00  0.00    +0.000 A 
ATOM     10  N   UNL     1      48.502   8.515  19.306  0.00  0.00    +0.000 N 
ATOM     11  C   UNL     1      48.727   8.322  17.961  0.00  0.00    +0.000 A 
ATOM     12  O   UNL     1      49.097   9.244  17.244  0.00  0.00    +0.000 OA
ATOM     13  C   UNL     1      48.409   6.980  17.500  0.00  0.00    +0.000 A 
ATOM     14  H   UNL     1      48.730   9.428  19.664  0.00  0.00    +0.000 HD
ENDBRANCH   2   4
BRANCH   1  15
ATOM     15  C   UNL     1      49.578   8.087  12.948  0.00  0.00    +0.000 C 
BRANCH  15  16
ATOM     16  C   UNL     1      49.900   9.594  13.074  0.00  0.00    +0.000 C 
BRANCH  16  17
ATOM     17  N   UNL     1      49.974  10.077  14.459  0.00  0.00    +0.000 NA
ATOM     18  H   UNL     1      49.608   9.340  15.066  0.00  0.00    +0.000 HD
ATOM     19  H   UNL     1      49.331  10.859  14.571  0.00  0.00    +0.000 HD
ENDBRANCH  16  17
ENDBRANCH  15  16
ENDBRANCH   1  15
BRANCH   1  20
ATOM     20  C   UNL     1      47.299   7.607  13.995  0.00  0.00    +0.000 C 
BRANCH  20  21
ATOM     21  C   UNL     1      46.474   6.796  13.041  0.00  0.00    +0.000 A 
ATOM     22  C   UNL     1      46.595   5.404  12.981  0.00  0.00    +0.000 A 
ATOM     23  C   UNL     1      45.647   4.652  12.289  0.00  0.00    +0.000 A 
ATOM     24  C   UNL     1      44.610   5.312  11.641  0.00  0.00    +0.000 A 
ATOM     25  N   UNL     1      44.513   6.666  11.640  0.00  0.00    +0.000 NA
ATOM     26  C   UNL     1      45.437   7.374  12.325  0.00  0.00    +0.000 A 
BRANCH  24  27
ATOM     27  C   UNL     1      43.485   4.528  10.993  0.00  0.00    +0.000 C 
BRANCH  27  28
ATOM     28  C   UNL     1      43.840   3.040  10.912  0.00  0.00    +0.000 C 
BRANCH  28  29
ATOM     29  N   UNL     1      43.942   2.517   9.542  0.00  0.00    +0.000 NA
ATOM     30  H   UNL     1      43.310   3.026   8.926  0.00  0.00    +0.000 HD
BRANCH  29  31
ATOM     31  C   UNL     1      45.282   2.719   9.036  0.00  0.00    +0.000 C 
ATOM     32  C   UNL     1      45.396   3.578   7.783  0.00  0.00    +0.000 C 
ATOM     33  C   UNL     1      46.746   3.166   7.240  0.00  0.00    +0.000 C 
ATOM     34  C   UNL     1      46.869   1.704   7.649  0.00  0.00    +0.000 C 
ATOM     35  N   UNL     1      45.755   1.434   8.565  0.00  0.00    +0.000 NA
ATOM     36  H   UNL     1      46.061   0.880   9.362  0.00  0.00    +0.000 HD
ENDBRANCH  29  31
ENDBRANCH  28  29
ENDBRANCH  27  28
ENDBRANCH  24  27
ENDBRANCH  20  21
ENDBRANCH   1  20
TORSDOF 10
ENDMDL
MODEL 5
REMARK VINA RESULT:    -6.053      2.765      6.192
REMARK INTER + INTRA:         -11.226
REMARK INTER:                  -8.588
REMARK INTRA:                  -2.638
REMARK UNBOUND:                -1.811
REMARK  Name = 
REMARK  10 active torsions:
REMARK  status: ('A' for Active; 'I' for Inactive)
REMARK    1  A    between atoms: N_1  and  C_2
REMARK    2  A    between atoms: C_2  and  C_3
REMARK    3  A    between atoms: C_3  and  N_4
REMARK    4  A    between atoms: N_4  and  C_5
REMARK    5  A    between atoms: C_5  and  C_6
REMARK    6  A    between atoms: C_9  and  C_10
REMARK    7  A    between atoms: C_10  and  C_11
REMARK    8  A    between atoms: C_11  and  N_12
REMARK    9  A    between atoms: N_12  and  C_13
REMARK   10  A    between atoms: C_20  and  C_22
REMARK                            x       y       z     vdW  Elec       q    Type
REMARK                         _______ _______ _______ _____ _____    ______ ____
ROOT
ATOM      1  N   UNL     1      49.538   9.517  13.809  0.00  0.00    +0.000 N 
ATOM      2  C   UNL     1      49.010   8.845  12.684  0.00  0.00    +0.000 C 
ATOM      3  O   UNL     1      49.751   8.420  11.794  0.00  0.00    +0.000 OA
ENDROOT
BRANCH   2   4
ATOM      4  C   UNL     1      47.552   8.644  12.565  0.00  0.00    +0.000 A 
ATOM      5  C   UNL     1      46.652   9.590  12.098  0.00  0.00    +0.000 A 
ATOM      6  S   UNL     1      45.034   9.045  12.055  0.00  0.00    +0.000 S 
ATOM      7  C   UNL     1      45.500   7.472  12.500  0.00  0.00    +0.000 A 
ATOM      8  N   UNL     1      44.596   6.459  12.537  0.00  0.00    +0.000 NA
ATOM      9  C   UNL     1      45.104   5.309  12.828  0.00  0.00    +0.000 A 
ATOM     10  N   UNL     1      46.427   5.090  13.124  0.00  0.00    +0.000 N 
ATOM     11  C   UNL     1      47.350   6.108  13.231  0.00  0.00    +0.000 A 
ATOM     12  O   UNL     1      48.453   5.911  13.727  0.00  0.00    +0.000 OA
ATOM     13  C   UNL     1      46.852   7.399  12.785  0.00  0.00    +0.000 A 
ATOM     14  H   UNL     1      46.744   4.178  13.407  0.00  0.00    +0.000 HD
ENDBRANCH   2   4
BRANCH   1  15
ATOM     15  C   UNL     1      51.001   9.674  13.868  0.00  0.00    +0.000 C 
BRANCH  15  16
ATOM     16  C   UNL     1      51.803   8.416  14.275  0.00  0.00    +0.000 C 
BRANCH  16  17
ATOM     17  N   UNL     1      52.595   7.831  13.185  0.00  0.00    +0.000 NA
ATOM     18  H   UNL     1      53.070   7.004  13.554  0.00  0.00    +0.000 HD
ATOM     19  H   UNL     1      53.342   8.478  12.935  0.00  0.00    +0.000 HD
ENDBRANCH  16  17
ENDBRANCH  15  16
ENDBRANCH   1  15
BRANCH   1  20
ATOM     20  C   UNL     1      48.686   9.965  14.907  0.00  0.00    +0.000 C 
BRANCH  20  21
ATOM     21  C   UNL     1      48.663   9.254  16.227  0.00  0.00    +0.000 A 
ATOM     22  C   UNL     1      48.274   9.914  17.397  0.00  0.00    +0.000 A 
ATOM     23  C   UNL     1      48.006   9.182  18.553  0.00  0.00    +0.000 A 
ATOM     24  C   UNL     1      48.164   7.802  18.524  0.00  0.00    +0.000 A 
ATOM     25  N   UNL     1      48.599   7.154  17.413  0.00  0.00    +0.000 NA
ATOM     26  C   UNL     1      48.843   7.882  16.302  0.00  0.00    +0.000 A 
BRANCH  24  27
ATOM     27  C   UNL     1      47.756   6.956  19.715  0.00  0.00    +0.000 C 
BRANCH  27  28
ATOM     28  C   UNL     1      47.701   5.474  19.332  0.00  0.00    +0.000 C 
BRANCH  28  29
ATOM     29  N   UNL     1      46.652   5.140  18.359  0.00  0.00    +0.000 NA
ATOM     30  H   UNL     1      46.577   5.876  17.659  0.00  0.00    +0.000 HD
BRANCH  29  31
ATOM     31  C   UNL     1      47.001   3.923  17.658  0.00  0.00    +0.000 C 
ATOM     32  C   UNL     1      48.394   3.373  17.936  0.00  0.00    +0.000 C 
ATOM     33  C   UNL     1      48.631   2.491  16.729  0.00  0.00    +0.000 C 
ATOM     34  C   UNL     1      47.873   3.196  15.612  0.00  0.00    +0.000 C 
ATOM     35  N   UNL     1      47.083   4.255  16.250  0.00  0.00    +0.000 NA
ATOM     36  H   UNL     1      46.142   4.295  15.863  0.00  0.00    +0.000 HD
ENDBRANCH  29  31
ENDBRANCH  28  29
ENDBRANCH  27  28
ENDBRANCH  24  27
ENDBRANCH  20  21
ENDBRANCH   1  20
TORSDOF 10
ENDMDL
MODEL 6
REMARK VINA RESULT:    -5.973      2.775      5.136
REMARK INTER + INTRA:         -11.101
REMARK INTER:                  -8.954
REMARK INTRA:                  -2.147
REMARK UNBOUND:                -1.811
REMARK  Name = 
REMARK  10 active torsions:
REMARK  status: ('A' for Active; 'I' for Inactive)
REMARK    1  A    between atoms: N_1  and  C_2
REMARK    2  A    between atoms: C_2  and  C_3
REMARK    3  A    between atoms: C_3  and  N_4
REMARK    4  A    between atoms: N_4  and  C_5
REMARK    5  A    between atoms: C_5  and  C_6
REMARK    6  A    between atoms: C_9  and  C_10
REMARK    7  A    between atoms: C_10  and  C_11
REMARK    8  A    between atoms: C_11  and  N_12
REMARK    9  A    between atoms: N_12  and  C_13
REMARK   10  A    between atoms: C_20  and  C_22
REMARK                            x       y       z     vdW  Elec       q    Type
REMARK                         _______ _______ _______ _____ _____    ______ ____
ROOT
ATOM      1  N   UNL     1      49.718   7.566  18.840  0.00  0.00    +0.000 N 
ATOM      2  C   UNL     1      49.760   6.285  19.434  0.00  0.00    +0.000 C 
ATOM      3  O   UNL     1      49.298   6.093  20.561  0.00  0.00    +0.000 OA
ENDROOT
BRANCH   2   4
ATOM      4  C   UNL     1      50.364   5.154  18.701  0.00  0.00    +0.000 A 
ATOM      5  C   UNL     1      51.702   4.792  18.756  0.00  0.00    +0.000 A 
ATOM      6  S   UNL     1      52.087   3.420  17.814  0.00  0.00    +0.000 S 
ATOM      7  C   UNL     1      50.451   3.162  17.433  0.00  0.00    +0.000 A 
ATOM      8  N   UNL     1      50.060   2.065  16.734  0.00  0.00    +0.000 NA
ATOM      9  C   UNL     1      48.783   1.967  16.574  0.00  0.00    +0.000 A 
ATOM     10  N   UNL     1      47.867   2.889  17.016  0.00  0.00    +0.000 N 
ATOM     11  C   UNL     1      48.228   4.080  17.607  0.00  0.00    +0.000 A 
ATOM     12  O   UNL     1      47.410   4.978  17.769  0.00  0.00    +0.000 OA
ATOM     13  C   UNL     1      49.643   4.172  17.924  0.00  0.00    +0.000 A 
ATOM     14  H   UNL     1      46.889   2.784  16.800  0.00  0.00    +0.000 HD
ENDBRANCH   2   4
BRANCH   1  15
ATOM     15  C   UNL     1      49.094   8.646  19.623  0.00  0.00    +0.000 C 
BRANCH  15  16
ATOM     16  C   UNL     1      47.575   8.849  19.408  0.00  0.00    +0.000 C 
BRANCH  16  17
ATOM     17  N   UNL     1      46.868   7.645  18.955  0.00  0.00    +0.000 NA
ATOM     18  H   UNL     1      47.565   6.914  18.796  0.00  0.00    +0.000 HD
ATOM     19  H   UNL     1      46.459   7.827  18.039  0.00  0.00    +0.000 HD
ENDBRANCH  16  17
ENDBRANCH  15  16
ENDBRANCH   1  15
BRANCH   1  20
ATOM     20  C   UNL     1      50.195   7.799  17.480  0.00  0.00    +0.000 C 
BRANCH  20  21
ATOM     21  C   UNL     1      49.277   7.716  16.298  0.00  0.00    +0.000 A 
ATOM     22  C   UNL     1      48.506   8.814  15.902  0.00  0.00    +0.000 A 
ATOM     23  C   UNL     1      47.868   8.806  14.663  0.00  0.00    +0.000 A 
ATOM     24  C   UNL     1      47.987   7.682  13.854  0.00  0.00    +0.000 A 
ATOM     25  N   UNL     1      48.684   6.586  14.250  0.00  0.00    +0.000 NA
ATOM     26  C   UNL     1      49.302   6.620  15.451  0.00  0.00    +0.000 A 
BRANCH  24  27
ATOM     27  C   UNL     1      47.424   7.684  12.446  0.00  0.00    +0.000 C 
BRANCH  27  28
ATOM     28  C   UNL     1      45.976   7.186  12.443  0.00  0.00    +0.000 C 
BRANCH  28  29
ATOM     29  N   UNL     1      45.715   6.079  13.374  0.00  0.00    +0.000 NA
ATOM     30  H   UNL     1      45.411   6.445  14.275  0.00  0.00    +0.000 HD
BRANCH  29  31
ATOM     31  C   UNL     1      44.641   5.253  12.868  0.00  0.00    +0.000 C 
ATOM     32  C   UNL     1      44.860   4.653  11.485  0.00  0.00    +0.000 C 
ATOM     33  C   UNL     1      43.445   4.335  11.052  0.00  0.00    +0.000 C 
ATOM     34  C   UNL     1      42.611   5.422  11.716  0.00  0.00    +0.000 C 
ATOM     35  N   UNL     1      43.506   6.124  12.643  0.00  0.00    +0.000 NA
ATOM     36  H   UNL     1      43.045   6.307  13.532  0.00  0.00    +0.000 HD
ENDBRANCH  29  31
ENDBRANCH  28  29
ENDBRANCH  27  28
ENDBRANCH  24  27
ENDBRANCH  20  21
ENDBRANCH   1  20
TORSDOF 10
ENDMDL
MODEL 7
REMARK VINA RESULT:    -5.678      2.213      3.967
REMARK INTER + INTRA:         -10.642
REMARK INTER:                  -9.081
REMARK INTRA:                  -1.560
REMARK UNBOUND:                -1.811
REMARK  Name = 
REMARK  10 active torsions:
REMARK  status: ('A' for Active; 'I' for Inactive)
REMARK    1  A    between atoms: N_1  and  C_2
REMARK    2  A    between atoms: C_2  and  C_3
REMARK    3  A    between atoms: C_3  and  N_4
REMARK    4  A    between atoms: N_4  and  C_5
REMARK    5  A    between atoms: C_5  and  C_6
REMARK    6  A    between atoms: C_9  and  C_10
REMARK    7  A    between atoms: C_10  and  C_11
REMARK    8  A    between atoms: C_11  and  N_12
REMARK    9  A    between atoms: N_12  and  C_13
REMARK   10  A    between atoms: C_20  and  C_22
REMARK                            x       y       z     vdW  Elec       q    Type
REMARK                         _______ _______ _______ _____ _____    ______ ____
ROOT
ATOM      1  N   UNL     1      48.052   5.695  17.402  0.00  0.00    +0.000 N 
ATOM      2  C   UNL     1      48.016   6.762  18.327  0.00  0.00    +0.000 C 
ATOM      3  O   UNL     1      47.485   6.627  19.431  0.00  0.00    +0.000 OA
ENDROOT
BRANCH   2   4
ATOM      4  C   UNL     1      48.622   8.062  17.973  0.00  0.00    +0.000 A 
ATOM      5  C   UNL     1      47.928   9.158  17.481  0.00  0.00    +0.000 A 
ATOM      6  S   UNL     1      48.909  10.526  17.193  0.00  0.00    +0.000 S 
ATOM      7  C   UNL     1      50.264   9.759  17.873  0.00  0.00    +0.000 A 
ATOM      8  N   UNL     1      51.434  10.428  18.044  0.00  0.00    +0.000 NA
ATOM      9  C   UNL     1      52.355   9.740  18.631  0.00  0.00    +0.000 A 
ATOM     10  N   UNL     1      52.222   8.430  19.024  0.00  0.00    +0.000 N 
ATOM     11  C   UNL     1      51.104   7.674  18.748  0.00  0.00    +0.000 A 
ATOM     12  O   UNL     1      51.112   6.458  18.895  0.00  0.00    +0.000 OA
ATOM     13  C   UNL     1      49.996   8.444  18.208  0.00  0.00    +0.000 A 
ATOM     14  H   UNL     1      53.004   7.932  19.418  0.00  0.00    +0.000 HD
ENDBRANCH   2   4
BRANCH   1  15
ATOM     15  C   UNL     1      47.437   4.425  17.824  0.00  0.00    +0.000 C 
BRANCH  15  16
ATOM     16  C   UNL     1      48.380   3.410  18.512  0.00  0.00    +0.000 C 
BRANCH  16  17
ATOM     17  N   UNL     1      48.534   3.619  19.957  0.00  0.00    +0.000 NA
ATOM     18  H   UNL     1      47.958   2.923  20.436  0.00  0.00    +0.000 HD
ATOM     19  H   UNL     1      48.126   4.519  20.206  0.00  0.00    +0.000 HD
ENDBRANCH  16  17
ENDBRANCH  15  16
ENDBRANCH   1  15
BRANCH   1  20
ATOM     20  C   UNL     1      48.738   5.812  16.119  0.00  0.00    +0.000 C 
BRANCH  20  21
ATOM     21  C   UNL     1      47.981   5.895  14.826  0.00  0.00    +0.000 A 
ATOM     22  C   UNL     1      47.158   4.847  14.402  0.00  0.00    +0.000 A 
ATOM     23  C   UNL     1      46.269   5.045  13.347  0.00  0.00    +0.000 A 
ATOM     24  C   UNL     1      46.243   6.282  12.714  0.00  0.00    +0.000 A 
ATOM     25  N   UNL     1      47.078   7.289  13.076  0.00  0.00    +0.000 NA
ATOM     26  C   UNL     1      47.925   7.078  14.107  0.00  0.00    +0.000 A 
BRANCH  24  27
ATOM     27  C   UNL     1      45.200   6.582  11.654  0.00  0.00    +0.000 C 
BRANCH  27  28
ATOM     28  C   UNL     1      44.217   5.416  11.518  0.00  0.00    +0.000 C 
BRANCH  28  29
ATOM     29  N   UNL     1      43.455   5.412  10.261  0.00  0.00    +0.000 NA
ATOM     30  H   UNL     1      43.659   6.255   9.726  0.00  0.00    +0.000 HD
BRANCH  29  31
ATOM     31  C   UNL     1      43.854   4.285   9.447  0.00  0.00    +0.000 C 
ATOM     32  C   UNL     1      44.468   3.109  10.196  0.00  0.00    +0.000 C 
ATOM     33  C   UNL     1      45.225   2.396   9.097  0.00  0.00    +0.000 C 
ATOM     34  C   UNL     1      45.659   3.521   8.168  0.00  0.00    +0.000 C 
ATOM     35  N   UNL     1      44.961   4.729   8.624  0.00  0.00    +0.000 NA
ATOM     36  H   UNL     1      44.597   5.262   7.837  0.00  0.00    +0.000 HD
ENDBRANCH  29  31
ENDBRANCH  28  29
ENDBRANCH  27  28
ENDBRANCH  24  27
ENDBRANCH  20  21
ENDBRANCH   1  20
TORSDOF 10
ENDMDL
MODEL 8
REMARK VINA RESULT:    -5.645      2.570      3.896
REMARK INTER + INTRA:         -10.590
REMARK INTER:                  -9.990
REMARK INTRA:                  -0.600
REMARK UNBOUND:                -1.811
REMARK  Name = 
REMARK  10 active torsions:
REMARK  status: ('A' for Active; 'I' for Inactive)
REMARK    1  A    between atoms: N_1  and  C_2
REMARK    2  A    between atoms: C_2  and  C_3
REMARK    3  A    between atoms: C_3  and  N_4
REMARK    4  A    between atoms: N_4  and  C_5
REMARK    5  A    between atoms: C_5  and  C_6
REMARK    6  A    between atoms: C_9  and  C_10
REMARK    7  A    between atoms: C_10  and  C_11
REMARK    8  A    between atoms: C_11  and  N_12
REMARK    9  A    between atoms: N_12  and  C_13
REMARK   10  A    between atoms: C_20  and  C_22
REMARK                            x       y       z     vdW  Elec       q    Type
REMARK                         _______ _______ _______ _____ _____    ______ ____
ROOT
ATOM      1  N   UNL     1      47.491   8.848  13.193  0.00  0.00    +0.000 N 
ATOM      2  C   UNL     1      48.438   9.700  13.802  0.00  0.00    +0.000 C 
ATOM      3  O   UNL     1      48.487  10.899  13.520  0.00  0.00    +0.000 OA
ENDROOT
BRANCH   2   4
ATOM      4  C   UNL     1      49.387   9.155  14.795  0.00  0.00    +0.000 A 
ATOM      5  C   UNL     1      49.075   8.845  16.110  0.00  0.00    +0.000 A 
ATOM      6  S   UNL     1      50.384   8.206  17.000  0.00  0.00    +0.000 S 
ATOM      7  C   UNL     1      51.369   8.165  15.616  0.00  0.00    +0.000 A 
ATOM      8  N   UNL     1      52.609   7.611  15.656  0.00  0.00    +0.000 NA
ATOM      9  C   UNL     1      53.216   7.592  14.516  0.00  0.00    +0.000 A 
ATOM     10  N   UNL     1      52.709   8.113  13.351  0.00  0.00    +0.000 N 
ATOM     11  C   UNL     1      51.518   8.803  13.295  0.00  0.00    +0.000 A 
ATOM     12  O   UNL     1      51.213   9.456  12.304  0.00  0.00    +0.000 OA
ATOM     13  C   UNL     1      50.742   8.734  14.522  0.00  0.00    +0.000 A 
ATOM     14  H   UNL     1      53.264   8.123  12.511  0.00  0.00    +0.000 HD
ENDBRANCH   2   4
BRANCH   1  15
ATOM     15  C   UNL     1      46.570   9.460  12.220  0.00  0.00    +0.000 C 
BRANCH  15  16
ATOM     16  C   UNL     1      45.062   9.315  12.530  0.00  0.00    +0.000 C 
BRANCH  16  17
ATOM     17  N   UNL     1      44.294  10.557  12.362  0.00  0.00    +0.000 NA
ATOM     18  H   UNL     1      44.809  11.307  12.828  0.00  0.00    +0.000 HD
ATOM     19  H   UNL     1      43.418  10.475  12.877  0.00  0.00    +0.000 HD
ENDBRANCH  16  17
ENDBRANCH  15  16
ENDBRANCH   1  15
BRANCH   1  20
ATOM     20  C   UNL     1      47.370   7.441  13.565  0.00  0.00    +0.000 C 
BRANCH  20  21
ATOM     21  C   UNL     1      46.581   6.472  12.737  0.00  0.00    +0.000 A 
ATOM     22  C   UNL     1      45.548   5.715  13.298  0.00  0.00    +0.000 A 
ATOM     23  C   UNL     1      44.663   5.025  12.471  0.00  0.00    +0.000 A 
ATOM     24  C   UNL     1      44.849   5.079  11.095  0.00  0.00    +0.000 A 
ATOM     25  N   UNL     1      45.883   5.761  10.540  0.00  0.00    +0.000 NA
ATOM     26  C   UNL     1      46.723   6.431  11.359  0.00  0.00    +0.000 A 
BRANCH  24  27
ATOM     27  C   UNL     1      43.834   4.457  10.157  0.00  0.00    +0.000 C 
BRANCH  27  28
ATOM     28  C   UNL     1      44.518   3.489   9.187  0.00  0.00    +0.000 C 
BRANCH  28  29
ATOM     29  N   UNL     1      45.232   4.144   8.082  0.00  0.00    +0.000 NA
ATOM     30  H   UNL     1      45.932   4.786   8.450  0.00  0.00    +0.000 HD
BRANCH  29  31
ATOM     31  C   UNL     1      45.936   3.154   7.296  0.00  0.00    +0.000 C 
ATOM     32  C   UNL     1      46.260   1.847   8.009  0.00  0.00    +0.000 C 
ATOM     33  C   UNL     1      47.391   1.300   7.165  0.00  0.00    +0.000 C 
ATOM     34  C   UNL     1      48.107   2.548   6.667  0.00  0.00    +0.000 C 
ATOM     35  N   UNL     1      47.256   3.688   7.028  0.00  0.00    +0.000 NA
ATOM     36  H   UNL     1      47.196   4.358   6.265  0.00  0.00    +0.000 HD
ENDBRANCH  29  31
ENDBRANCH  28  29
ENDBRANCH  27  28
ENDBRANCH  24  27
ENDBRANCH  20  21
ENDBRANCH   1  20
TORSDOF 10
ENDMDL
MODEL 9
REMARK VINA RESULT:    -5.623      4.264      8.136
REMARK INTER + INTRA:         -10.557
REMARK INTER:                  -9.379
REMARK INTRA:                  -1.177
REMARK UNBOUND:                -1.811
REMARK  Name = 
REMARK  10 active torsions:
REMARK  status: ('A' for Active; 'I' for Inactive)
REMARK    1  A    between atoms: N_1  and  C_2
REMARK    2  A    between atoms: C_2  and  C_3
REMARK    3  A    between atoms: C_3  and  N_4
REMARK    4  A    between atoms: N_4  and  C_5
REMARK    5  A    between atoms: C_5  and  C_6
REMARK    6  A    between atoms: C_9  and  C_10
REMARK    7  A    between atoms: C_10  and  C_11
REMARK    8  A    between atoms: C_11  and  N_12
REMARK    9  A    between atoms: N_12  and  C_13
REMARK   10  A    between atoms: C_20  and  C_22
REMARK                            x       y       z     vdW  Elec       q    Type
REMARK                         _______ _______ _______ _____ _____    ______ ____
ROOT
ATOM      1  N   UNL     1      45.661   4.664  12.169  0.00  0.00    +0.000 N 
ATOM      2  C   UNL     1      45.988   5.637  11.198  0.00  0.00    +0.000 C 
ATOM      3  O   UNL     1      45.941   5.373   9.995  0.00  0.00    +0.000 OA
ENDROOT
BRANCH   2   4
ATOM      4  C   UNL     1      46.394   6.992  11.624  0.00  0.00    +0.000 A 
ATOM      5  C   UNL     1      47.690   7.376  11.936  0.00  0.00    +0.000 A 
ATOM      6  S   UNL     1      47.840   9.021  12.368  0.00  0.00    +0.000 S 
ATOM      7  C   UNL     1      46.209   9.319  11.992  0.00  0.00    +0.000 A 
ATOM      8  N   UNL     1      45.701  10.578  12.034  0.00  0.00    +0.000 NA
ATOM      9  C   UNL     1      44.467  10.663  11.661  0.00  0.00    +0.000 A 
ATOM     10  N   UNL     1      43.688   9.594  11.291  0.00  0.00    +0.000 N 
ATOM     11  C   UNL     1      44.121   8.289  11.365  0.00  0.00    +0.000 A 
ATOM     12  O   UNL     1      43.334   7.355  11.260  0.00  0.00    +0.000 OA
ATOM     13  C   UNL     1      45.540   8.157  11.652  0.00  0.00    +0.000 A 
ATOM     14  H   UNL     1      42.713   9.723  11.074  0.00  0.00    +0.000 HD
ENDBRANCH   2   4
BRANCH   1  15
ATOM     15  C   UNL     1      45.257   3.337  11.674  0.00  0.00    +0.000 C 
BRANCH  15  16
ATOM     16  C   UNL     1      43.799   3.215  11.172  0.00  0.00    +0.000 C 
BRANCH  16  17
ATOM     17  N   UNL     1      42.878   4.197  11.760  0.00  0.00    +0.000 NA
ATOM     18  H   UNL     1      42.272   4.543  11.013  0.00  0.00    +0.000 HD
ATOM     19  H   UNL     1      43.413   5.009  12.066  0.00  0.00    +0.000 HD
ENDBRANCH  16  17
ENDBRANCH  15  16
ENDBRANCH   1  15
BRANCH   1  20
ATOM     20  C   UNL     1      45.642   4.976  13.595  0.00  0.00    +0.000 C 
BRANCH  20  21
ATOM     21  C   UNL     1      46.734   4.519  14.515  0.00  0.00    +0.000 A 
ATOM     22  C   UNL     1      47.230   5.354  15.521  0.00  0.00    +0.000 A 
ATOM     23  C   UNL     1      48.046   4.830  16.522  0.00  0.00    +0.000 A 
ATOM     24  C   UNL     1      48.377   3.481  16.480  0.00  0.00    +0.000 A 
ATOM     25  N   UNL     1      47.951   2.671  15.477  0.00  0.00    +0.000 NA
ATOM     26  C   UNL     1      47.154   3.198  14.523  0.00  0.00    +0.000 A 
BRANCH  24  27
ATOM     27  C   UNL     1      49.147   2.842  17.619  0.00  0.00    +0.000 C 
BRANCH  27  28
ATOM     28  C   UNL     1      50.619   2.655  17.238  0.00  0.00    +0.000 C 
BRANCH  28  29
ATOM     29  N   UNL     1      51.016   1.255  17.032  0.00  0.00    +0.000 NA
ATOM     30  H   UNL     1      51.215   1.089  16.046  0.00  0.00    +0.000 HD
BRANCH  29  31
ATOM     31  C   UNL     1      52.233   0.976  17.762  0.00  0.00    +0.000 C 
ATOM     32  C   UNL     1      53.129   2.176  18.044  0.00  0.00    +0.000 C 
ATOM     33  C   UNL     1      54.466   1.517  18.304  0.00  0.00    +0.000 C 
ATOM     34  C   UNL     1      54.441   0.284  17.411  0.00  0.00    +0.000 C 
ATOM     35  N   UNL     1      53.071   0.171  16.897  0.00  0.00    +0.000 NA
ATOM     36  H   UNL     1      52.747  -0.794  16.924  0.00  0.00    +0.000 HD
ENDBRANCH  29  31
ENDBRANCH  28  29
ENDBRANCH  27  28
ENDBRANCH  24  27
ENDBRANCH  20  21
ENDBRANCH   1  20
TORSDOF 10
ENDMDL
