MODEL 1
REMARK VINA RESULT:    -6.556      0.000      0.000
REMARK INTER + INTRA:         -10.577
REMARK INTER:                  -9.622
REMARK INTRA:                  -0.955
REMARK UNBOUND:                -0.955
REMARK  Name = 
REMARK  12 active torsions:
REMARK  status: ('A' for Active; 'I' for Inactive)
REMARK    1  A    between atoms: C_1  and  O_2
REMARK    2  A    between atoms: O_2  and  C_3
REMARK    3  A    between atoms: C_5  and  C_6
REMARK    4  A    between atoms: N_13  and  C_14
REMARK    5  A    between atoms: C_14  and  C_15
REMARK    6  A    between atoms: C_20  and  C_21
REMARK    7  A    between atoms: C_21  and  N_22
REMARK    8  A    between atoms: C_23  and  O_25
REMARK    9  A    between atoms: O_25  and  C_26
REMARK   10  A    between atoms: C_26  and  C_27
REMARK   11  A    between atoms: C_26  and  C_28
REMARK   12  A    between atoms: C_26  and  C_29
REMARK                            x       y       z     vdW  Elec       q    Type
REMARK                         _______ _______ _______ _____ _____    ______ ____
ROOT
ATOM      1  C   UNL     1      48.821   6.012  17.135  0.00  0.00    +0.000 C 
ENDROOT
BRANCH   1   9
ATOM      2  C   UNL     1      51.490   4.234  17.855  0.00  0.00    +0.000 A 
ATOM      3  C   UNL     1      52.431   3.201  18.045  0.00  0.00    +0.000 A 
ATOM      4  C   UNL     1      52.151   1.860  17.774  0.00  0.00    +0.000 A 
ATOM      5  C   UNL     1      50.876   1.510  17.333  0.00  0.00    +0.000 A 
ATOM      6  C   UNL     1      49.883   2.506  17.189  0.00  0.00    +0.000 A 
ATOM      7  C   UNL     1      48.528   2.427  16.779  0.00  0.00    +0.000 A 
ATOM      8  C   UNL     1      48.017   3.697  16.795  0.00  0.00    +0.000 A 
ATOM      9  N   UNL     1      49.012   4.564  17.194  0.00  0.00    +0.000 N 
ATOM     10  C   UNL     1      50.186   3.856  17.448  0.00  0.00    +0.000 A 
BRANCH   4  11
ATOM     11  C   UNL     1      53.257   0.876  17.967  0.00  0.00    +0.000 C 
ATOM     12  N   UNL     1      53.460  -0.085  17.018  0.00  0.00    +0.000 N 
ATOM     13  O   UNL     1      53.997   0.924  18.943  0.00  0.00    +0.000 OA
ATOM     14  H   UNL     1      52.927  -0.194  16.171  0.00  0.00    +0.000 HD
ATOM     15  H   UNL     1      54.237  -0.715  17.174  0.00  0.00    +0.000 HD
ENDBRANCH   4  11
BRANCH   2  17
ATOM     16  C   UNL     1      51.691   5.990  19.435  0.00  0.00    +0.000 C 
ATOM     17  O   UNL     1      51.800   5.557  18.073  0.00  0.00    +0.000 OA
ENDBRANCH   2  17
ENDBRANCH   1   9
BRANCH   1  18
ATOM     18  C   UNL     1      49.201   6.638  15.814  0.00  0.00    +0.000 A 
ATOM     19  C   UNL     1      50.337   7.452  15.668  0.00  0.00    +0.000 A 
ATOM     20  C   UNL     1      50.593   8.088  14.453  0.00  0.00    +0.000 A 
ATOM     21  F   UNL     1      51.672   8.875  14.336  0.00  0.00    +0.000 F 
ATOM     22  C   UNL     1      49.746   7.927  13.364  0.00  0.00    +0.000 A 
ATOM     23  C   UNL     1      48.624   7.099  13.478  0.00  0.00    +0.000 A 
ATOM     24  C   UNL     1      48.363   6.465  14.704  0.00  0.00    +0.000 A 
BRANCH  23  25
ATOM     25  C   UNL     1      47.708   6.870  12.314  0.00  0.00    +0.000 C 
BRANCH  25  26
ATOM     26  N   UNL     1      46.706   5.872  12.569  0.00  0.00    +0.000 N 
ATOM     27  C   UNL     1      45.396   6.252  12.583  0.00  0.00    +0.000 C 
ATOM     28  O   UNL     1      45.032   7.396  12.367  0.00  0.00    +0.000 OA
ATOM     29  H   UNL     1      46.934   4.898  12.710  0.00  0.00    +0.000 HD
BRANCH  27  30
ATOM     30  O   UNL     1      44.588   5.202  12.871  0.00  0.00    +0.000 OA
BRANCH  30  31
ATOM     31  C   UNL     1      43.718   4.690  11.822  0.00  0.00    +0.000 C 
ATOM     32  C   UNL     1      44.395   4.787  10.448  0.00  0.00    +0.000 C 
ATOM     33  C   UNL     1      43.487   3.203  12.140  0.00  0.00    +0.000 C 
ATOM     34  C   UNL     1      42.349   5.388  11.842  0.00  0.00    +0.000 C 
ENDBRANCH  30  31
ENDBRANCH  27  30
ENDBRANCH  25  26
ENDBRANCH  23  25
ENDBRANCH   1  18
TORSDOF 8
ENDMDL
MODEL 2
REMARK VINA RESULT:    -6.363      1.496      2.509
REMARK INTER + INTRA:         -10.293
REMARK INTER:                  -9.427
REMARK INTRA:                  -0.867
REMARK UNBOUND:                -0.955
REMARK  Name = 
REMARK  12 active torsions:
REMARK  status: ('A' for Active; 'I' for Inactive)
REMARK    1  A    between atoms: C_1  and  O_2
REMARK    2  A    between atoms: O_2  and  C_3
REMARK    3  A    between atoms: C_5  and  C_6
REMARK    4  A    between atoms: N_13  and  C_14
REMARK    5  A    between atoms: C_14  and  C_15
REMARK    6  A    between atoms: C_20  and  C_21
REMARK    7  A    between atoms: C_21  and  N_22
REMARK    8  A    between atoms: C_23  and  O_25
REMARK    9  A    between atoms: O_25  and  C_26
REMARK   10  A    between atoms: C_26  and  C_27
REMARK   11  A    between atoms: C_26  and  C_28
REMARK   12  A    between atoms: C_26  and  C_29
REMARK                            x       y       z     vdW  Elec       q    Type
REMARK                         _______ _______ _______ _____ _____    ______ ____
ROOT
ATOM      1  C   UNL     1      49.160   6.168  17.993  0.00  0.00    +0.000 C 
ENDROOT
BRANCH   1   9
ATOM      2  C   UNL     1      50.260   3.136  17.360  0.00  0.00    +0.000 A 
ATOM      3  C   UNL     1      51.021   1.952  17.266  0.00  0.00    +0.000 A 
ATOM      4  C   UNL     1      52.315   1.841  17.776  0.00  0.00    +0.000 A 
ATOM      5  C   UNL     1      52.908   2.953  18.371  0.00  0.00    +0.000 A 
ATOM      6  C   UNL     1      52.205   4.177  18.430  0.00  0.00    +0.000 A 
ATOM      7  C   UNL     1      52.568   5.443  18.957  0.00  0.00    +0.000 A 
ATOM      8  C   UNL     1      51.505   6.287  18.774  0.00  0.00    +0.000 A 
ATOM      9  N   UNL     1      50.490   5.585  18.157  0.00  0.00    +0.000 N 
ATOM     10  C   UNL     1      50.892   4.270  17.928  0.00  0.00    +0.000 A 
BRANCH   4  11
ATOM     11  C   UNL     1      52.986   0.512  17.658  0.00  0.00    +0.000 C 
ATOM     12  N   UNL     1      52.574  -0.511  18.463  0.00  0.00    +0.000 N 
ATOM     13  O   UNL     1      53.881   0.314  16.843  0.00  0.00    +0.000 OA
ATOM     14  H   UNL     1      51.834  -0.459  19.143  0.00  0.00    +0.000 HD
ATOM     15  H   UNL     1      53.036  -1.402  18.332  0.00  0.00    +0.000 HD
ENDBRANCH   4  11
BRANCH   2  17
ATOM     16  C   UNL     1      47.958   2.883  17.867  0.00  0.00    +0.000 C 
ATOM     17  O   UNL     1      48.964   3.213  16.902  0.00  0.00    +0.000 OA
ENDBRANCH   2  17
ENDBRANCH   1   9
BRANCH   1  18
ATOM     18  C   UNL     1      48.967   6.927  16.700  0.00  0.00    +0.000 A 
ATOM     19  C   UNL     1      49.172   8.313  16.605  0.00  0.00    +0.000 A 
ATOM     20  C   UNL     1      48.886   8.985  15.417  0.00  0.00    +0.000 A 
ATOM     21  F   UNL     1      49.071  10.311  15.349  0.00  0.00    +0.000 F 
ATOM     22  C   UNL     1      48.405   8.306  14.305  0.00  0.00    +0.000 A 
ATOM     23  C   UNL     1      48.219   6.921  14.368  0.00  0.00    +0.000 A 
ATOM     24  C   UNL     1      48.500   6.246  15.567  0.00  0.00    +0.000 A 
BRANCH  23  25
ATOM     25  C   UNL     1      47.738   6.149  13.177  0.00  0.00    +0.000 C 
BRANCH  25  26
ATOM     26  N   UNL     1      46.306   6.029  13.120  0.00  0.00    +0.000 N 
ATOM     27  C   UNL     1      45.747   4.801  13.322  0.00  0.00    +0.000 C 
ATOM     28  O   UNL     1      46.403   3.804  13.571  0.00  0.00    +0.000 OA
ATOM     29  H   UNL     1      45.701   6.822  12.963  0.00  0.00    +0.000 HD
BRANCH  27  30
ATOM     30  O   UNL     1      44.398   4.856  13.200  0.00  0.00    +0.000 OA
BRANCH  30  31
ATOM     31  C   UNL     1      43.799   4.442  11.938  0.00  0.00    +0.000 C 
ATOM     32  C   UNL     1      43.444   2.949  11.962  0.00  0.00    +0.000 C 
ATOM     33  C   UNL     1      42.495   5.244  11.795  0.00  0.00    +0.000 C 
ATOM     34  C   UNL     1      44.700   4.803  10.747  0.00  0.00    +0.000 C 
ENDBRANCH  30  31
ENDBRANCH  27  30
ENDBRANCH  25  26
ENDBRANCH  23  25
ENDBRANCH   1  18
TORSDOF 8
ENDMDL
MODEL 3
REMARK VINA RESULT:    -6.204      2.608      7.742
REMARK INTER + INTRA:         -10.061
REMARK INTER:                  -8.979
REMARK INTRA:                  -1.082
REMARK UNBOUND:                -0.955
REMARK  Name = 
REMARK  12 active torsions:
REMARK  status: ('A' for Active; 'I' for Inactive)
REMARK    1  A    between atoms: C_1  and  O_2
REMARK    2  A    between atoms: O_2  and  C_3
REMARK    3  A    between atoms: C_5  and  C_6
REMARK    4  A    between atoms: N_13  and  C_14
REMARK    5  A    between atoms: C_14  and  C_15
REMARK    6  A    between atoms: C_20  and  C_21
REMARK    7  A    between atoms: C_21  and  N_22
REMARK    8  A    between atoms: C_23  and  O_25
REMARK    9  A    between atoms: O_25  and  C_26
REMARK   10  A    between atoms: C_26  and  C_27
REMARK   11  A    between atoms: C_26  and  C_28
REMARK   12  A    between atoms: C_26  and  C_29
REMARK                            x       y       z     vdW  Elec       q    Type
REMARK                         _______ _______ _______ _____ _____    ______ ____
ROOT
ATOM      1  C   UNL     1      49.109   7.318  14.791  0.00  0.00    +0.000 C 
ENDROOT
BRANCH   1   9
ATOM      2  C   UNL     1      47.137   4.802  14.026  0.00  0.00    +0.000 A 
ATOM      3  C   UNL     1      46.202   3.935  13.422  0.00  0.00    +0.000 A 
ATOM      4  C   UNL     1      45.480   4.277  12.278  0.00  0.00    +0.000 A 
ATOM      5  C   UNL     1      45.651   5.543  11.722  0.00  0.00    +0.000 A 
ATOM      6  C   UNL     1      46.531   6.466  12.330  0.00  0.00    +0.000 A 
ATOM      7  C   UNL     1      46.877   7.798  11.989  0.00  0.00    +0.000 A 
ATOM      8  C   UNL     1      47.796   8.235  12.904  0.00  0.00    +0.000 A 
ATOM      9  N   UNL     1      48.038   7.215  13.801  0.00  0.00    +0.000 N 
ATOM     10  C   UNL     1      47.267   6.100  13.474  0.00  0.00    +0.000 A 
BRANCH   4  11
ATOM     11  C   UNL     1      44.564   3.243  11.711  0.00  0.00    +0.000 C 
ATOM     12  N   UNL     1      43.781   2.515  12.562  0.00  0.00    +0.000 N 
ATOM     13  O   UNL     1      44.485   3.047  10.504  0.00  0.00    +0.000 OA
ATOM     14  H   UNL     1      43.752   2.617  13.563  0.00  0.00    +0.000 HD
ATOM     15  H   UNL     1      43.155   1.844  12.134  0.00  0.00    +0.000 HD
ENDBRANCH   4  11
BRANCH   2  17
ATOM     16  C   UNL     1      47.121   4.053  16.275  0.00  0.00    +0.000 C 
ATOM     17  O   UNL     1      47.882   4.429  15.121  0.00  0.00    +0.000 OA
ENDBRANCH   2  17
ENDBRANCH   1   9
BRANCH   1  18
ATOM     18  C   UNL     1      48.674   7.878  16.125  0.00  0.00    +0.000 A 
ATOM     19  C   UNL     1      48.268   9.214  16.282  0.00  0.00    +0.000 A 
ATOM     20  C   UNL     1      47.970   9.711  17.551  0.00  0.00    +0.000 A 
ATOM     21  F   UNL     1      47.601  10.993  17.685  0.00  0.00    +0.000 F 
ATOM     22  C   UNL     1      48.056   8.905  18.679  0.00  0.00    +0.000 A 
ATOM     23  C   UNL     1      48.432   7.565  18.542  0.00  0.00    +0.000 A 
ATOM     24  C   UNL     1      48.739   7.066  17.266  0.00  0.00    +0.000 A 
BRANCH  23  25
ATOM     25  C   UNL     1      48.499   6.655  19.731  0.00  0.00    +0.000 C 
BRANCH  25  26
ATOM     26  N   UNL     1      49.337   5.506  19.519  0.00  0.00    +0.000 N 
ATOM     27  C   UNL     1      50.664   5.602  19.820  0.00  0.00    +0.000 C 
ATOM     28  O   UNL     1      51.170   6.611  20.283  0.00  0.00    +0.000 OA
ATOM     29  H   UNL     1      48.975   4.625  19.181  0.00  0.00    +0.000 HD
BRANCH  27  30
ATOM     30  O   UNL     1      51.313   4.448  19.530  0.00  0.00    +0.000 OA
BRANCH  30  31
ATOM     31  C   UNL     1      51.631   4.164  18.137  0.00  0.00    +0.000 C 
ATOM     32  C   UNL     1      51.924   5.458  17.365  0.00  0.00    +0.000 C 
ATOM     33  C   UNL     1      52.912   3.313  18.152  0.00  0.00    +0.000 C 
ATOM     34  C   UNL     1      50.526   3.330  17.471  0.00  0.00    +0.000 C 
ENDBRANCH  30  31
ENDBRANCH  27  30
ENDBRANCH  25  26
ENDBRANCH  23  25
ENDBRANCH   1  18
TORSDOF 8
ENDMDL
MODEL 4
REMARK VINA RESULT:    -6.028      5.016      6.623
REMARK INTER + INTRA:          -9.803
REMARK INTER:                  -9.175
REMARK INTRA:                  -0.628
REMARK UNBOUND:                -0.955
REMARK  Name = 
REMARK  12 active torsions:
REMARK  status: ('A' for Active; 'I' for Inactive)
REMARK    1  A    between atoms: C_1  and  O_2
REMARK    2  A    between atoms: O_2  and  C_3
REMARK    3  A    between atoms: C_5  and  C_6
REMARK    4  A    between atoms: N_13  and  C_14
REMARK    5  A    between atoms: C_14  and  C_15
REMARK    6  A    between atoms: C_20  and  C_21
REMARK    7  A    between atoms: C_21  and  N_22
REMARK    8  A    between atoms: C_23  and  O_25
REMARK    9  A    between atoms: O_25  and  C_26
REMARK   10  A    between atoms: C_26  and  C_27
REMARK   11  A    between atoms: C_26  and  C_28
REMARK   12  A    between atoms: C_26  and  C_29
REMARK                            x       y       z     vdW  Elec       q    Type
REMARK                         _______ _______ _______ _____ _____    ______ ____
ROOT
ATOM      1  C   UNL     1      47.423   7.756  11.717  0.00  0.00    +0.000 C 
ENDROOT
BRANCH   1   9
ATOM      2  C   UNL     1      50.607   8.207  12.400  0.00  0.00    +0.000 A 
ATOM      3  C   UNL     1      51.844   8.476  13.020  0.00  0.00    +0.000 A 
ATOM      4  C   UNL     1      51.954   8.879  14.352  0.00  0.00    +0.000 A 
ATOM      5  C   UNL     1      50.793   9.066  15.101  0.00  0.00    +0.000 A 
ATOM      6  C   UNL     1      49.529   8.868  14.501  0.00  0.00    +0.000 A 
ATOM      7  C   UNL     1      48.215   8.999  15.017  0.00  0.00    +0.000 A 
ATOM      8  C   UNL     1      47.342   8.667  14.016  0.00  0.00    +0.000 A 
ATOM      9  N   UNL     1      48.072   8.329  12.895  0.00  0.00    +0.000 N 
ATOM     10  C   UNL     1      49.435   8.444  13.162  0.00  0.00    +0.000 A 
BRANCH   4  11
ATOM     11  C   UNL     1      53.330   9.076  14.898  0.00  0.00    +0.000 C 
ATOM     12  N   UNL     1      54.083  10.116  14.431  0.00  0.00    +0.000 N 
ATOM     13  O   UNL     1      53.788   8.342  15.766  0.00  0.00    +0.000 OA
ATOM     14  H   UNL     1      53.791  10.788  13.742  0.00  0.00    +0.000 HD
ATOM     15  H   UNL     1      54.999  10.229  14.847  0.00  0.00    +0.000 HD
ENDBRANCH   4  11
BRANCH   2  17
ATOM     16  C   UNL     1      51.772   7.452  10.479  0.00  0.00    +0.000 C 
ATOM     17  O   UNL     1      50.519   7.756  11.103  0.00  0.00    +0.000 OA
ENDBRANCH   2  17
ENDBRANCH   1   9
BRANCH   1  18
ATOM     18  C   UNL     1      46.700   6.454  11.973  0.00  0.00    +0.000 A 
ATOM     19  C   UNL     1      47.088   5.568  12.991  0.00  0.00    +0.000 A 
ATOM     20  C   UNL     1      46.452   4.334  13.126  0.00  0.00    +0.000 A 
ATOM     21  F   UNL     1      46.847   3.492  14.092  0.00  0.00    +0.000 F 
ATOM     22  C   UNL     1      45.423   3.957  12.273  0.00  0.00    +0.000 A 
ATOM     23  C   UNL     1      45.002   4.836  11.270  0.00  0.00    +0.000 A 
ATOM     24  C   UNL     1      45.647   6.075  11.129  0.00  0.00    +0.000 A 
BRANCH  23  25
ATOM     25  C   UNL     1      43.870   4.481  10.354  0.00  0.00    +0.000 C 
BRANCH  25  26
ATOM     26  N   UNL     1      44.277   4.315   8.986  0.00  0.00    +0.000 N 
ATOM     27  C   UNL     1      44.607   3.066   8.550  0.00  0.00    +0.000 C 
ATOM     28  O   UNL     1      44.551   2.076   9.261  0.00  0.00    +0.000 OA
ATOM     29  H   UNL     1      44.302   5.084   8.330  0.00  0.00    +0.000 HD
BRANCH  27  30
ATOM     30  O   UNL     1      45.001   3.091   7.253  0.00  0.00    +0.000 OA
BRANCH  30  31
ATOM     31  C   UNL     1      46.419   2.945   6.956  0.00  0.00    +0.000 C 
ATOM     32  C   UNL     1      46.970   1.636   7.538  0.00  0.00    +0.000 C 
ATOM     33  C   UNL     1      46.535   2.876   5.424  0.00  0.00    +0.000 C 
ATOM     34  C   UNL     1      47.218   4.169   7.428  0.00  0.00    +0.000 C 
ENDBRANCH  30  31
ENDBRANCH  27  30
ENDBRANCH  25  26
ENDBRANCH  23  25
ENDBRANCH   1  18
TORSDOF 8
ENDMDL
MODEL 5
REMARK VINA RESULT:    -5.779      2.588      7.757
REMARK INTER + INTRA:          -9.437
REMARK INTER:                  -8.356
REMARK INTRA:                  -1.081
REMARK UNBOUND:                -0.955
REMARK  Name = 
REMARK  12 active torsions:
REMARK  status: ('A' for Active; 'I' for Inactive)
REMARK    1  A    between atoms: C_1  and  O_2
REMARK    2  A    between atoms: O_2  and  C_3
REMARK    3  A    between atoms: C_5  and  C_6
REMARK    4  A    between atoms: N_13  and  C_14
REMARK    5  A    between atoms: C_14  and  C_15
REMARK    6  A    between atoms: C_20  and  C_21
REMARK    7  A    between atoms: C_21  and  N_22
REMARK    8  A    between atoms: C_23  and  O_25
REMARK    9  A    between atoms: O_25  and  C_26
REMARK   10  A    between atoms: C_26  and  C_27
REMARK   11  A    between atoms: C_26  and  C_28
REMARK   12  A    between atoms: C_26  and  C_29
REMARK                            x       y       z     vdW  Elec       q    Type
REMARK                         _______ _______ _______ _____ _____    ______ ____
ROOT
ATOM      1  C   UNL     1      47.257   8.608  14.092  0.00  0.00    +0.000 C 
ENDROOT
BRANCH   1   9
ATOM      2  C   UNL     1      46.388   5.533  13.320  0.00  0.00    +0.000 A 
ATOM      3  C   UNL     1      45.839   4.380  12.723  0.00  0.00    +0.000 A 
ATOM      4  C   UNL     1      44.992   4.429  11.615  0.00  0.00    +0.000 A 
ATOM      5  C   UNL     1      44.634   5.669  11.091  0.00  0.00    +0.000 A 
ATOM      6  C   UNL     1      45.111   6.854  11.696  0.00  0.00    +0.000 A 
ATOM      7  C   UNL     1      44.896   8.220  11.383  0.00  0.00    +0.000 A 
ATOM      8  C   UNL     1      45.611   8.967  12.279  0.00  0.00    +0.000 A 
ATOM      9  N   UNL     1      46.270   8.110  13.137  0.00  0.00    +0.000 N 
ATOM     10  C   UNL     1      45.979   6.788  12.803  0.00  0.00    +0.000 A 
BRANCH   4  11
ATOM     11  C   UNL     1      44.528   3.127  11.049  0.00  0.00    +0.000 C 
ATOM     12  N   UNL     1      43.524   2.452  11.683  0.00  0.00    +0.000 N 
ATOM     13  O   UNL     1      45.011   2.664  10.022  0.00  0.00    +0.000 OA
ATOM     14  H   UNL     1      43.045   2.758  12.513  0.00  0.00    +0.000 HD
ATOM     15  H   UNL     1      43.221   1.588  11.251  0.00  0.00    +0.000 HD
ENDBRANCH   4  11
BRANCH   2  17
ATOM     16  C   UNL     1      47.119   4.313  15.217  0.00  0.00    +0.000 C 
ATOM     17  O   UNL     1      47.266   5.465  14.378  0.00  0.00    +0.000 OA
ENDBRANCH   2  17
ENDBRANCH   1   9
BRANCH   1  18
ATOM     18  C   UNL     1      48.683   8.569  13.593  0.00  0.00    +0.000 A 
ATOM     19  C   UNL     1      49.002   8.620  12.225  0.00  0.00    +0.000 A 
ATOM     20  C   UNL     1      50.326   8.481  11.809  0.00  0.00    +0.000 A 
ATOM     21  F   UNL     1      50.611   8.514  10.499  0.00  0.00    +0.000 F 
ATOM     22  C   UNL     1      51.354   8.303  12.725  0.00  0.00    +0.000 A 
ATOM     23  C   UNL     1      51.063   8.277  14.093  0.00  0.00    +0.000 A 
ATOM     24  C   UNL     1      49.729   8.409  14.512  0.00  0.00    +0.000 A 
BRANCH  23  25
ATOM     25  C   UNL     1      52.150   8.124  15.113  0.00  0.00    +0.000 C 
BRANCH  25  26
ATOM     26  N   UNL     1      52.207   6.807  15.688  0.00  0.00    +0.000 N 
ATOM     27  C   UNL     1      52.085   6.679  17.040  0.00  0.00    +0.000 C 
ATOM     28  O   UNL     1      51.905   7.629  17.785  0.00  0.00    +0.000 OA
ATOM     29  H   UNL     1      52.308   5.974  15.125  0.00  0.00    +0.000 HD
BRANCH  27  30
ATOM     30  O   UNL     1      52.196   5.382  17.418  0.00  0.00    +0.000 OA
BRANCH  30  31
ATOM     31  C   UNL     1      51.033   4.729  18.003  0.00  0.00    +0.000 C 
ATOM     32  C   UNL     1      49.731   5.310  17.433  0.00  0.00    +0.000 C 
ATOM     33  C   UNL     1      51.118   3.249  17.595  0.00  0.00    +0.000 C 
ATOM     34  C   UNL     1      51.070   4.792  19.538  0.00  0.00    +0.000 C 
ENDBRANCH  30  31
ENDBRANCH  27  30
ENDBRANCH  25  26
ENDBRANCH  23  25
ENDBRANCH   1  18
TORSDOF 8
ENDMDL
MODEL 6
REMARK VINA RESULT:    -5.707      3.675      6.802
REMARK INTER + INTRA:          -9.332
REMARK INTER:                  -7.869
REMARK INTRA:                  -1.463
REMARK UNBOUND:                -0.955
REMARK  Name = 
REMARK  12 active torsions:
REMARK  status: ('A' for Active; 'I' for Inactive)
REMARK    1  A    between atoms: C_1  and  O_2
REMARK    2  A    between atoms: O_2  and  C_3
REMARK    3  A    between atoms: C_5  and  C_6
REMARK    4  A    between atoms: N_13  and  C_14
REMARK    5  A    between atoms: C_14  and  C_15
REMARK    6  A    between atoms: C_20  and  C_21
REMARK    7  A    between atoms: C_21  and  N_22
REMARK    8  A    between atoms: C_23  and  O_25
REMARK    9  A    between atoms: O_25  and  C_26
REMARK   10  A    between atoms: C_26  and  C_27
REMARK   11  A    between atoms: C_26  and  C_28
REMARK   12  A    between atoms: C_26  and  C_29
REMARK                            x       y       z     vdW  Elec       q    Type
REMARK                         _______ _______ _______ _____ _____    ______ ____
ROOT
ATOM      1  C   UNL     1      47.566   8.284  12.326  0.00  0.00    +0.000 C 
ENDROOT
BRANCH   1   9
ATOM      2  C   UNL     1      49.514   8.718  14.938  0.00  0.00    +0.000 A 
ATOM      3  C   UNL     1      50.608   8.893  15.810  0.00  0.00    +0.000 A 
ATOM      4  C   UNL     1      51.933   8.893  15.373  0.00  0.00    +0.000 A 
ATOM      5  C   UNL     1      52.202   8.672  14.023  0.00  0.00    +0.000 A 
ATOM      6  C   UNL     1      51.138   8.429  13.125  0.00  0.00    +0.000 A 
ATOM      7  C   UNL     1      51.129   8.167  11.731  0.00  0.00    +0.000 A 
ATOM      8  C   UNL     1      49.823   8.025  11.346  0.00  0.00    +0.000 A 
ATOM      9  N   UNL     1      49.019   8.198  12.454  0.00  0.00    +0.000 N 
ATOM     10  C   UNL     1      49.805   8.450  13.577  0.00  0.00    +0.000 A 
BRANCH   4  11
ATOM     11  C   UNL     1      52.992   9.146  16.395  0.00  0.00    +0.000 C 
ATOM     12  N   UNL     1      54.052   9.943  16.067  0.00  0.00    +0.000 N 
ATOM     13  O   UNL     1      52.922   8.672  17.524  0.00  0.00    +0.000 OA
ATOM     14  H   UNL     1      54.189  10.398  15.180  0.00  0.00    +0.000 HD
ATOM     15  H   UNL     1      54.732  10.110  16.797  0.00  0.00    +0.000 HD
ENDBRANCH   4  11
BRANCH   2  17
ATOM     16  C   UNL     1      48.021   9.434  16.635  0.00  0.00    +0.000 C 
ATOM     17  O   UNL     1      48.210   8.775  15.376  0.00  0.00    +0.000 OA
ENDBRANCH   2  17
ENDBRANCH   1   9
BRANCH   1  18
ATOM     18  C   UNL     1      46.865   6.946  12.258  0.00  0.00    +0.000 A 
ATOM     19  C   UNL     1      45.808   6.697  11.366  0.00  0.00    +0.000 A 
ATOM     20  C   UNL     1      45.128   5.480  11.408  0.00  0.00    +0.000 A 
ATOM     21  F   UNL     1      44.111   5.265  10.562  0.00  0.00    +0.000 F 
ATOM     22  C   UNL     1      45.480   4.490  12.316  0.00  0.00    +0.000 A 
ATOM     23  C   UNL     1      46.546   4.706  13.195  0.00  0.00    +0.000 A 
ATOM     24  C   UNL     1      47.227   5.934  13.158  0.00  0.00    +0.000 A 
BRANCH  23  25
ATOM     25  C   UNL     1      46.980   3.647  14.162  0.00  0.00    +0.000 C 
BRANCH  25  26
ATOM     26  N   UNL     1      46.778   4.018  15.537  0.00  0.00    +0.000 N 
ATOM     27  C   UNL     1      47.654   3.553  16.473  0.00  0.00    +0.000 C 
ATOM     28  O   UNL     1      48.616   2.855  16.196  0.00  0.00    +0.000 OA
ATOM     29  H   UNL     1      46.029   4.630  15.829  0.00  0.00    +0.000 HD
BRANCH  27  30
ATOM     30  O   UNL     1      47.302   3.965  17.716  0.00  0.00    +0.000 OA
BRANCH  30  31
ATOM     31  C   UNL     1      48.108   4.993  18.359  0.00  0.00    +0.000 C 
ATOM     32  C   UNL     1      48.837   5.852  17.317  0.00  0.00    +0.000 C 
ATOM     33  C   UNL     1      47.126   5.896  19.123  0.00  0.00    +0.000 C 
ATOM     34  C   UNL     1      49.076   4.384  19.385  0.00  0.00    +0.000 C 
ENDBRANCH  30  31
ENDBRANCH  27  30
ENDBRANCH  25  26
ENDBRANCH  23  25
ENDBRANCH   1  18
TORSDOF 8
ENDMDL
MODEL 7
REMARK VINA RESULT:    -5.633      1.763      2.362
REMARK INTER + INTRA:          -9.223
REMARK INTER:                  -8.442
REMARK INTRA:                  -0.781
REMARK UNBOUND:                -0.955
REMARK  Name = 
REMARK  12 active torsions:
REMARK  status: ('A' for Active; 'I' for Inactive)
REMARK    1  A    between atoms: C_1  and  O_2
REMARK    2  A    between atoms: O_2  and  C_3
REMARK    3  A    between atoms: C_5  and  C_6
REMARK    4  A    between atoms: N_13  and  C_14
REMARK    5  A    between atoms: C_14  and  C_15
REMARK    6  A    between atoms: C_20  and  C_21
REMARK    7  A    between atoms: C_21  and  N_22
REMARK    8  A    between atoms: C_23  and  O_25
REMARK    9  A    between atoms: O_25  and  C_26
REMARK   10  A    between atoms: C_26  and  C_27
REMARK   11  A    between atoms: C_26  and  C_28
REMARK   12  A    between atoms: C_26  and  C_29
REMARK                            x       y       z     vdW  Elec       q    Type
REMARK                         _______ _______ _______ _____ _____    ______ ____
ROOT
ATOM      1  C   UNL     1      48.340   6.112  18.620  0.00  0.00    +0.000 C 
ENDROOT
BRANCH   1   9
ATOM      2  C   UNL     1      51.115   4.351  18.700  0.00  0.00    +0.000 A 
ATOM      3  C   UNL     1      52.119   3.378  18.518  0.00  0.00    +0.000 A 
ATOM      4  C   UNL     1      51.925   2.221  17.762  0.00  0.00    +0.000 A 
ATOM      5  C   UNL     1      50.677   1.987  17.188  0.00  0.00    +0.000 A 
ATOM      6  C   UNL     1      49.623   2.906  17.397  0.00  0.00    +0.000 A 
ATOM      7  C   UNL     1      48.277   2.907  16.951  0.00  0.00    +0.000 A 
ATOM      8  C   UNL     1      47.686   4.048  17.422  0.00  0.00    +0.000 A 
ATOM      9  N   UNL     1      48.623   4.760  18.143  0.00  0.00    +0.000 N 
ATOM     10  C   UNL     1      49.839   4.078  18.147  0.00  0.00    +0.000 A 
BRANCH   4  11
ATOM     11  C   UNL     1      53.091   1.301  17.606  0.00  0.00    +0.000 C 
ATOM     12  N   UNL     1      52.934  -0.022  17.904  0.00  0.00    +0.000 N 
ATOM     13  O   UNL     1      54.176   1.702  17.198  0.00  0.00    +0.000 OA
ATOM     14  H   UNL     1      52.081  -0.454  18.220  0.00  0.00    +0.000 HD
ATOM     15  H   UNL     1      53.741  -0.615  17.758  0.00  0.00    +0.000 HD
ENDBRANCH   4  11
BRANCH   2  17
ATOM     16  C   UNL     1      52.709   5.771  19.731  0.00  0.00    +0.000 C 
ATOM     17  O   UNL     1      51.339   5.513  19.403  0.00  0.00    +0.000 OA
ENDBRANCH   2  17
ENDBRANCH   1   9
BRANCH   1  18
ATOM     18  C   UNL     1      48.545   7.195  17.586  0.00  0.00    +0.000 A 
ATOM     19  C   UNL     1      48.177   8.531  17.815  0.00  0.00    +0.000 A 
ATOM     20  C   UNL     1      48.293   9.475  16.795  0.00  0.00    +0.000 A 
ATOM     21  F   UNL     1      47.921  10.743  17.026  0.00  0.00    +0.000 F 
ATOM     22  C   UNL     1      48.781   9.126  15.543  0.00  0.00    +0.000 A 
ATOM     23  C   UNL     1      49.180   7.807  15.301  0.00  0.00    +0.000 A 
ATOM     24  C   UNL     1      49.055   6.855  16.326  0.00  0.00    +0.000 A 
BRANCH  23  25
ATOM     25  C   UNL     1      49.746   7.400  13.975  0.00  0.00    +0.000 C 
BRANCH  25  26
ATOM     26  N   UNL     1      48.802   6.704  13.144  0.00  0.00    +0.000 N 
ATOM     27  C   UNL     1      48.101   7.416  12.216  0.00  0.00    +0.000 C 
ATOM     28  O   UNL     1      48.254   8.614  12.041  0.00  0.00    +0.000 OA
ATOM     29  H   UNL     1      48.659   5.706  13.204  0.00  0.00    +0.000 HD
BRANCH  27  30
ATOM     30  O   UNL     1      47.233   6.619  11.545  0.00  0.00    +0.000 OA
BRANCH  30  31
ATOM     31  C   UNL     1      45.903   6.418  12.105  0.00  0.00    +0.000 C 
ATOM     32  C   UNL     1      45.272   7.755  12.516  0.00  0.00    +0.000 C 
ATOM     33  C   UNL     1      45.050   5.810  10.980  0.00  0.00    +0.000 C 
ATOM     34  C   UNL     1      45.931   5.411  13.264  0.00  0.00    +0.000 C 
ENDBRANCH  30  31
ENDBRANCH  27  30
ENDBRANCH  25  26
ENDBRANCH  23  25
ENDBRANCH   1  18
TORSDOF 8
ENDMDL
MODEL 8
REMARK VINA RESULT:    -5.539      4.412      6.104
REMARK INTER + INTRA:          -9.084
REMARK INTER:                  -8.704
REMARK INTRA:                  -0.381
REMARK UNBOUND:                -0.955
REMARK  Name = 
REMARK  12 active torsions:
REMARK  status: ('A' for Active; 'I' for Inactive)
REMARK    1  A    between atoms: C_1  and  O_2
REMARK    2  A    between atoms: O_2  and  C_3
REMARK    3  A    between atoms: C_5  and  C_6
REMARK    4  A    between atoms: N_13  and  C_14
REMARK    5  A    between atoms: C_14  and  C_15
REMARK    6  A    between atoms: C_20  and  C_21
REMARK    7  A    between atoms: C_21  and  N_22
REMARK    8  A    between atoms: C_23  and  O_25
REMARK    9  A    between atoms: O_25  and  C_26
REMARK   10  A    between atoms: C_26  and  C_27
REMARK   11  A    between atoms: C_26  and  C_28
REMARK   12  A    between atoms: C_26  and  C_29
REMARK                            x       y       z     vdW  Elec       q    Type
REMARK                         _______ _______ _______ _____ _____    ______ ____
ROOT
ATOM      1  C   UNL     1      47.052   7.546  13.102  0.00  0.00    +0.000 C 
ENDROOT
BRANCH   1   9
ATOM      2  C   UNL     1      49.752   7.653  14.973  0.00  0.00    +0.000 A 
ATOM      3  C   UNL     1      51.060   7.819  15.473  0.00  0.00    +0.000 A 
ATOM      4  C   UNL     1      52.126   8.249  14.680  0.00  0.00    +0.000 A 
ATOM      5  C   UNL     1      51.908   8.491  13.325  0.00  0.00    +0.000 A 
ATOM      6  C   UNL     1      50.626   8.277  12.769  0.00  0.00    +0.000 A 
ATOM      7  C   UNL     1      50.141   8.428  11.445  0.00  0.00    +0.000 A 
ATOM      8  C   UNL     1      48.810   8.106  11.454  0.00  0.00    +0.000 A 
ATOM      9  N   UNL     1      48.451   7.765  12.741  0.00  0.00    +0.000 N 
ATOM     10  C   UNL     1      49.557   7.860  13.585  0.00  0.00    +0.000 A 
BRANCH   4  11
ATOM     11  C   UNL     1      53.447   8.436  15.351  0.00  0.00    +0.000 C 
ATOM     12  N   UNL     1      53.629   9.519  16.162  0.00  0.00    +0.000 N 
ATOM     13  O   UNL     1      54.361   7.632  15.205  0.00  0.00    +0.000 OA
ATOM     14  H   UNL     1      52.937  10.221  16.367  0.00  0.00    +0.000 HD
ATOM     15  H   UNL     1      54.530   9.593  16.618  0.00  0.00    +0.000 HD
ENDBRANCH   4  11
BRANCH   2  17
ATOM     16  C   UNL     1      48.807   7.698  17.147  0.00  0.00    +0.000 C 
ATOM     17  O   UNL     1      48.701   7.281  15.780  0.00  0.00    +0.000 OA
ENDBRANCH   2  17
ENDBRANCH   1   9
BRANCH   1  18
ATOM     18  C   UNL     1      46.602   6.106  13.016  0.00  0.00    +0.000 A 
ATOM     19  C   UNL     1      47.127   5.104  13.850  0.00  0.00    +0.000 A 
ATOM     20  C   UNL     1      46.754   3.773  13.667  0.00  0.00    +0.000 A 
ATOM     21  F   UNL     1      47.278   2.827  14.460  0.00  0.00    +0.000 F 
ATOM     22  C   UNL     1      45.855   3.407  12.673  0.00  0.00    +0.000 A 
ATOM     23  C   UNL     1      45.299   4.392  11.849  0.00  0.00    +0.000 A 
ATOM     24  C   UNL     1      45.681   5.731  12.029  0.00  0.00    +0.000 A 
BRANCH  23  25
ATOM     25  C   UNL     1      44.298   4.040  10.791  0.00  0.00    +0.000 C 
BRANCH  25  26
ATOM     26  N   UNL     1      44.789   3.080   9.841  0.00  0.00    +0.000 N 
ATOM     27  C   UNL     1      45.143   3.515   8.598  0.00  0.00    +0.000 C 
ATOM     28  O   UNL     1      45.084   4.686   8.261  0.00  0.00    +0.000 OA
ATOM     29  H   UNL     1      44.907   2.103  10.070  0.00  0.00    +0.000 HD
BRANCH  27  30
ATOM     30  O   UNL     1      45.550   2.482   7.820  0.00  0.00    +0.000 OA
BRANCH  30  31
ATOM     31  C   UNL     1      46.694   2.686   6.942  0.00  0.00    +0.000 C 
ATOM     32  C   UNL     1      47.407   4.007   7.264  0.00  0.00    +0.000 C 
ATOM     33  C   UNL     1      47.669   1.532   7.228  0.00  0.00    +0.000 C 
ATOM     34  C   UNL     1      46.287   2.595   5.463  0.00  0.00    +0.000 C 
ENDBRANCH  30  31
ENDBRANCH  27  30
ENDBRANCH  25  26
ENDBRANCH  23  25
ENDBRANCH   1  18
TORSDOF 8
ENDMDL
MODEL 9
REMARK VINA RESULT:    -5.501      3.700      7.354
REMARK INTER + INTRA:          -9.029
REMARK INTER:                  -7.864
REMARK INTRA:                  -1.165
REMARK UNBOUND:                -0.955
REMARK  Name = 
REMARK  12 active torsions:
REMARK  status: ('A' for Active; 'I' for Inactive)
REMARK    1  A    between atoms: C_1  and  O_2
REMARK    2  A    between atoms: O_2  and  C_3
REMARK    3  A    between atoms: C_5  and  C_6
REMARK    4  A    between atoms: N_13  and  C_14
REMARK    5  A    between atoms: C_14  and  C_15
REMARK    6  A    between atoms: C_20  and  C_21
REMARK    7  A    between atoms: C_21  and  N_22
REMARK    8  A    between atoms: C_23  and  O_25
REMARK    9  A    between atoms: O_25  and  C_26
REMARK   10  A    between atoms: C_26  and  C_27
REMARK   11  A    between atoms: C_26  and  C_28
REMARK   12  A    between atoms: C_26  and  C_29
REMARK                            x       y       z     vdW  Elec       q    Type
REMARK                         _______ _______ _______ _____ _____    ______ ____
ROOT
ATOM      1  C   UNL     1      49.668   7.218  14.155  0.00  0.00    +0.000 C 
ENDROOT
BRANCH   1   9
ATOM      2  C   UNL     1      47.089   5.182  14.062  0.00  0.00    +0.000 A 
ATOM      3  C   UNL     1      45.931   4.463  13.702  0.00  0.00    +0.000 A 
ATOM      4  C   UNL     1      45.236   4.691  12.513  0.00  0.00    +0.000 A 
ATOM      5  C   UNL     1      45.674   5.697  11.655  0.00  0.00    +0.000 A 
ATOM      6  C   UNL     1      46.794   6.483  12.005  0.00  0.00    +0.000 A 
ATOM      7  C   UNL     1      47.432   7.559  11.337  0.00  0.00    +0.000 A 
ATOM      8  C   UNL     1      48.492   7.955  12.107  0.00  0.00    +0.000 A 
ATOM      9  N   UNL     1      48.538   7.155  13.231  0.00  0.00    +0.000 N 
ATOM     10  C   UNL     1      47.496   6.230  13.199  0.00  0.00    +0.000 A 
BRANCH   4  11
ATOM     11  C   UNL     1      44.056   3.819  12.231  0.00  0.00    +0.000 C 
ATOM     12  N   UNL     1      44.127   2.491  12.542  0.00  0.00    +0.000 N 
ATOM     13  O   UNL     1      43.024   4.271  11.749  0.00  0.00    +0.000 OA
ATOM     14  H   UNL     1      44.915   2.029  12.963  0.00  0.00    +0.000 HD
ATOM     15  H   UNL     1      43.296   1.942  12.359  0.00  0.00    +0.000 HD
ENDBRANCH   4  11
BRANCH   2  17
ATOM     16  C   UNL     1      47.430   3.690  15.873  0.00  0.00    +0.000 C 
ATOM     17  O   UNL     1      47.795   4.907  15.211  0.00  0.00    +0.000 OA
ENDBRANCH   2  17
ENDBRANCH   1   9
BRANCH   1  18
ATOM     18  C   UNL     1      49.771   8.512  14.929  0.00  0.00    +0.000 A 
ATOM     19  C   UNL     1      50.839   9.408  14.754  0.00  0.00    +0.000 A 
ATOM     20  C   UNL     1      50.942  10.541  15.561  0.00  0.00    +0.000 A 
ATOM     21  F   UNL     1      51.977  11.377  15.392  0.00  0.00    +0.000 F 
ATOM     22  C   UNL     1      49.997  10.816  16.540  0.00  0.00    +0.000 A 
ATOM     23  C   UNL     1      48.910   9.952  16.713  0.00  0.00    +0.000 A 
ATOM     24  C   UNL     1      48.811   8.807  15.906  0.00  0.00    +0.000 A 
BRANCH  23  25
ATOM     25  C   UNL     1      47.850  10.236  17.734  0.00  0.00    +0.000 C 
BRANCH  25  26
ATOM     26  N   UNL     1      47.393   9.057  18.419  0.00  0.00    +0.000 N 
ATOM     27  C   UNL     1      47.949   8.747  19.625  0.00  0.00    +0.000 C 
ATOM     28  O   UNL     1      48.801   9.436  20.162  0.00  0.00    +0.000 OA
ATOM     29  H   UNL     1      46.659   8.468  18.053  0.00  0.00    +0.000 HD
BRANCH  27  30
ATOM     30  O   UNL     1      47.434   7.593  20.116  0.00  0.00    +0.000 OA
BRANCH  30  31
ATOM     31  C   UNL     1      48.008   6.332  19.667  0.00  0.00    +0.000 C 
ATOM     32  C   UNL     1      49.358   6.559  18.972  0.00  0.00    +0.000 C 
ATOM     33  C   UNL     1      48.255   5.496  20.934  0.00  0.00    +0.000 C 
ATOM     34  C   UNL     1      47.025   5.554  18.780  0.00  0.00    +0.000 C 
ENDBRANCH  30  31
ENDBRANCH  27  30
ENDBRANCH  25  26
ENDBRANCH  23  25
ENDBRANCH   1  18
TORSDOF 8
ENDMDL
