MODEL 1
REMARK VINA RESULT:    -8.335      0.000      0.000
REMARK INTER + INTRA:          -9.446
REMARK INTER:                  -9.796
REMARK INTRA:                   0.350
REMARK UNBOUND:                 0.350
REMARK  Name = 
REMARK  3 active torsions:
REMARK  status: ('A' for Active; 'I' for Inactive)
REMARK    1  A    between atoms: C_2  and  C_4
REMARK    2  A    between atoms: N_8  and  C_9
REMARK    3  A    between atoms: C_9  and  C_10
REMARK                            x       y       z     vdW  Elec       q    Type
REMARK                         _______ _______ _______ _____ _____    ______ ____
ROOT
ATOM      1  C   UNL     1      46.363   2.122   7.871  0.00  0.00    +0.000 A 
ATOM      2  C   UNL     1      46.313   3.395   7.317  0.00  0.00    +0.000 A 
ATOM      3  C   UNL     1      45.582   4.390   7.967  0.00  0.00    +0.000 A 
ATOM      4  C   UNL     1      44.947   4.111   9.181  0.00  0.00    +0.000 A 
ATOM      5  N   UNL     1      44.220   5.171   9.771  0.00  0.00    +0.000 N 
ATOM      6  N   UNL     1      45.008   2.888   9.738  0.00  0.00    +0.000 NA
ATOM      7  C   UNL     1      45.680   1.913   9.063  0.00  0.00    +0.000 A 
ATOM      8  H   UNL     1      43.452   5.419   9.154  0.00  0.00    +0.000 HD
ENDROOT
BRANCH   1  10
ATOM      9  N   UNL     1      46.747  -0.266   7.649  0.00  0.00    +0.000 N 
ATOM     10  C   UNL     1      47.077   0.999   7.238  0.00  0.00    +0.000 C 
ATOM     11  O   UNL     1      47.911   1.182   6.363  0.00  0.00    +0.000 OA
ATOM     12  H   UNL     1      47.176  -1.029   7.140  0.00  0.00    +0.000 HD
ATOM     13  H   UNL     1      45.904  -0.469   8.168  0.00  0.00    +0.000 HD
ENDBRANCH   1  10
BRANCH   5  14
ATOM     14  C   UNL     1      43.884   5.201  11.208  0.00  0.00    +0.000 C 
ATOM     15  C   UNL     1      42.935   4.086  11.645  0.00  0.00    +0.000 C 
ATOM     16  C   UNL     1      42.469   5.505  11.666  0.00  0.00    +0.000 C 
BRANCH  14  17
ATOM     17  C   UNL     1      45.028   5.559  12.154  0.00  0.00    +0.000 A 
ATOM     18  C   UNL     1      45.704   4.564  12.885  0.00  0.00    +0.000 A 
ATOM     19  C   UNL     1      46.791   4.866  13.710  0.00  0.00    +0.000 A 
ATOM     20  C   UNL     1      47.225   6.182  13.817  0.00  0.00    +0.000 A 
ATOM     21 CL   UNL     1      48.579   6.560  14.809  0.00  0.00    +0.000 Cl
ATOM     22  C   UNL     1      46.573   7.194  13.120  0.00  0.00    +0.000 A 
ATOM     23  C   UNL     1      45.480   6.883  12.304  0.00  0.00    +0.000 A 
ENDBRANCH  14  17
ENDBRANCH   5  14
TORSDOF 3
ENDMDL
MODEL 2
REMARK VINA RESULT:    -7.920      3.882      6.723
REMARK INTER + INTRA:          -8.959
REMARK INTER:                  -8.727
REMARK INTRA:                  -0.232
REMARK UNBOUND:                 0.350
REMARK  Name = 
REMARK  3 active torsions:
REMARK  status: ('A' for Active; 'I' for Inactive)
REMARK    1  A    between atoms: C_2  and  C_4
REMARK    2  A    between atoms: N_8  and  C_9
REMARK    3  A    between atoms: C_9  and  C_10
REMARK                            x       y       z     vdW  Elec       q    Type
REMARK                         _______ _______ _______ _____ _____    ______ ____
ROOT
ATOM      1  C   UNL     1      46.996   7.978  13.221  0.00  0.00    +0.000 A 
ATOM      2  C   UNL     1      45.773   8.502  12.820  0.00  0.00    +0.000 A 
ATOM      3  C   UNL     1      44.934   7.729  12.016  0.00  0.00    +0.000 A 
ATOM      4  C   UNL     1      45.309   6.430  11.660  0.00  0.00    +0.000 A 
ATOM      5  N   UNL     1      44.407   5.717  10.837  0.00  0.00    +0.000 N 
ATOM      6  N   UNL     1      46.480   5.904  12.062  0.00  0.00    +0.000 NA
ATOM      7  C   UNL     1      47.313   6.692  12.801  0.00  0.00    +0.000 A 
ATOM      8  H   UNL     1      44.337   6.196   9.945  0.00  0.00    +0.000 HD
ENDROOT
BRANCH   1  10
ATOM      9  N   UNL     1      47.520   9.228  15.236  0.00  0.00    +0.000 N 
ATOM     10  C   UNL     1      47.963   8.733  14.037  0.00  0.00    +0.000 C 
ATOM     11  O   UNL     1      49.120   8.892  13.676  0.00  0.00    +0.000 OA
ATOM     12  H   UNL     1      48.219   9.663  15.827  0.00  0.00    +0.000 HD
ATOM     13  H   UNL     1      46.671   8.908  15.679  0.00  0.00    +0.000 HD
ENDBRANCH   1  10
BRANCH   5  14
ATOM     14  C   UNL     1      44.413   4.243  10.743  0.00  0.00    +0.000 C 
ATOM     15  C   UNL     1      43.096   3.591  11.161  0.00  0.00    +0.000 C 
ATOM     16  C   UNL     1      44.320   3.386  11.992  0.00  0.00    +0.000 C 
BRANCH  14  17
ATOM     17  C   UNL     1      45.133   3.655   9.531  0.00  0.00    +0.000 A 
ATOM     18  C   UNL     1      45.673   4.486   8.532  0.00  0.00    +0.000 A 
ATOM     19  C   UNL     1      46.386   3.967   7.448  0.00  0.00    +0.000 A 
ATOM     20  C   UNL     1      46.574   2.594   7.345  0.00  0.00    +0.000 A 
ATOM     21 CL   UNL     1      47.474   1.948   6.029  0.00  0.00    +0.000 Cl
ATOM     22  C   UNL     1      46.043   1.740   8.307  0.00  0.00    +0.000 A 
ATOM     23  C   UNL     1      45.323   2.268   9.385  0.00  0.00    +0.000 A 
ENDBRANCH  14  17
ENDBRANCH   5  14
TORSDOF 3
ENDMDL
MODEL 3
REMARK VINA RESULT:    -7.625      1.431      1.786
REMARK INTER + INTRA:          -8.612
REMARK INTER:                  -8.121
REMARK INTRA:                  -0.492
REMARK UNBOUND:                 0.350
REMARK  Name = 
REMARK  3 active torsions:
REMARK  status: ('A' for Active; 'I' for Inactive)
REMARK    1  A    between atoms: C_2  and  C_4
REMARK    2  A    between atoms: N_8  and  C_9
REMARK    3  A    between atoms: C_9  and  C_10
REMARK                            x       y       z     vdW  Elec       q    Type
REMARK                         _______ _______ _______ _____ _____    ______ ____
ROOT
ATOM      1  C   UNL     1      46.420   2.959   7.414  0.00  0.00    +0.000 A 
ATOM      2  C   UNL     1      45.790   1.918   8.086  0.00  0.00    +0.000 A 
ATOM      3  C   UNL     1      45.202   2.168   9.326  0.00  0.00    +0.000 A 
ATOM      4  C   UNL     1      45.214   3.461   9.858  0.00  0.00    +0.000 A 
ATOM      5  N   UNL     1      44.604   3.628  11.122  0.00  0.00    +0.000 N 
ATOM      6  N   UNL     1      45.800   4.481   9.205  0.00  0.00    +0.000 NA
ATOM      7  C   UNL     1      46.418   4.209   8.020  0.00  0.00    +0.000 A 
ATOM      8  H   UNL     1      45.124   3.087  11.806  0.00  0.00    +0.000 HD
ENDROOT
BRANCH   1  10
ATOM      9  N   UNL     1      48.439   2.488   6.150  0.00  0.00    +0.000 N 
ATOM     10  C   UNL     1      47.101   2.782   6.120  0.00  0.00    +0.000 C 
ATOM     11  O   UNL     1      46.496   2.868   5.060  0.00  0.00    +0.000 OA
ATOM     12  H   UNL     1      48.873   2.277   5.259  0.00  0.00    +0.000 HD
ATOM     13  H   UNL     1      48.908   2.162   6.983  0.00  0.00    +0.000 HD
ENDBRANCH   1  10
BRANCH   5  14
ATOM     14  C   UNL     1      44.133   4.940  11.610  0.00  0.00    +0.000 C 
ATOM     15  C   UNL     1      42.781   4.887  12.321  0.00  0.00    +0.000 C 
ATOM     16  C   UNL     1      42.900   5.593  11.010  0.00  0.00    +0.000 C 
BRANCH  14  17
ATOM     17  C   UNL     1      45.201   5.855  12.204  0.00  0.00    +0.000 A 
ATOM     18  C   UNL     1      46.231   5.339  13.013  0.00  0.00    +0.000 A 
ATOM     19  C   UNL     1      47.250   6.153  13.516  0.00  0.00    +0.000 A 
ATOM     20  C   UNL     1      47.258   7.508  13.213  0.00  0.00    +0.000 A 
ATOM     21 CL   UNL     1      48.524   8.513  13.804  0.00  0.00    +0.000 Cl
ATOM     22  C   UNL     1      46.249   8.056  12.426  0.00  0.00    +0.000 A 
ATOM     23  C   UNL     1      45.228   7.236  11.935  0.00  0.00    +0.000 A 
ENDBRANCH  14  17
ENDBRANCH   5  14
TORSDOF 3
ENDMDL
MODEL 4
REMARK VINA RESULT:    -7.308      3.786      6.534
REMARK INTER + INTRA:          -8.240
REMARK INTER:                  -8.539
REMARK INTRA:                   0.299
REMARK UNBOUND:                 0.350
REMARK  Name = 
REMARK  3 active torsions:
REMARK  status: ('A' for Active; 'I' for Inactive)
REMARK    1  A    between atoms: C_2  and  C_4
REMARK    2  A    between atoms: N_8  and  C_9
REMARK    3  A    between atoms: C_9  and  C_10
REMARK                            x       y       z     vdW  Elec       q    Type
REMARK                         _______ _______ _______ _____ _____    ______ ____
ROOT
ATOM      1  C   UNL     1      47.254   7.148  13.547  0.00  0.00    +0.000 A 
ATOM      2  C   UNL     1      47.794   5.937  13.967  0.00  0.00    +0.000 A 
ATOM      3  C   UNL     1      47.138   4.751  13.636  0.00  0.00    +0.000 A 
ATOM      4  C   UNL     1      45.978   4.787  12.857  0.00  0.00    +0.000 A 
ATOM      5  N   UNL     1      45.370   3.542  12.574  0.00  0.00    +0.000 N 
ATOM      6  N   UNL     1      45.459   5.951  12.426  0.00  0.00    +0.000 NA
ATOM      7  C   UNL     1      46.082   7.105  12.803  0.00  0.00    +0.000 A 
ATOM      8  H   UNL     1      45.055   3.130  13.447  0.00  0.00    +0.000 HD
ENDROOT
BRANCH   1  10
ATOM      9  N   UNL     1      47.437   9.057  15.037  0.00  0.00    +0.000 N 
ATOM     10  C   UNL     1      47.855   8.451  13.880  0.00  0.00    +0.000 C 
ATOM     11  O   UNL     1      48.708   8.964  13.171  0.00  0.00    +0.000 OA
ATOM     12  H   UNL     1      47.925   9.905  15.301  0.00  0.00    +0.000 HD
ATOM     13  H   UNL     1      46.939   8.562  15.763  0.00  0.00    +0.000 HD
ENDBRANCH   1  10
BRANCH   5  14
ATOM     14  C   UNL     1      44.445   3.350  11.438  0.00  0.00    +0.000 C 
ATOM     15  C   UNL     1      43.121   4.099  11.585  0.00  0.00    +0.000 C 
ATOM     16  C   UNL     1      43.135   2.605  11.624  0.00  0.00    +0.000 C 
BRANCH  14  17
ATOM     17  C   UNL     1      45.086   3.323  10.053  0.00  0.00    +0.000 A 
ATOM     18  C   UNL     1      45.330   2.106   9.389  0.00  0.00    +0.000 A 
ATOM     19  C   UNL     1      45.861   2.065   8.096  0.00  0.00    +0.000 A 
ATOM     20  C   UNL     1      46.156   3.253   7.439  0.00  0.00    +0.000 A 
ATOM     21 CL   UNL     1      46.784   3.214   5.837  0.00  0.00    +0.000 Cl
ATOM     22  C   UNL     1      45.940   4.475   8.069  0.00  0.00    +0.000 A 
ATOM     23  C   UNL     1      45.417   4.506   9.366  0.00  0.00    +0.000 A 
ENDBRANCH  14  17
ENDBRANCH   5  14
TORSDOF 3
ENDMDL
MODEL 5
REMARK VINA RESULT:    -6.321      4.293      6.768
REMARK INTER + INTRA:          -7.079
REMARK INTER:                  -7.000
REMARK INTRA:                  -0.079
REMARK UNBOUND:                 0.350
REMARK  Name = 
REMARK  3 active torsions:
REMARK  status: ('A' for Active; 'I' for Inactive)
REMARK    1  A    between atoms: C_2  and  C_4
REMARK    2  A    between atoms: N_8  and  C_9
REMARK    3  A    between atoms: C_9  and  C_10
REMARK                            x       y       z     vdW  Elec       q    Type
REMARK                         _______ _______ _______ _____ _____    ______ ____
ROOT
ATOM      1  C   UNL     1      47.500   9.411  12.433  0.00  0.00    +0.000 A 
ATOM      2  C   UNL     1      46.247   9.941  12.151  0.00  0.00    +0.000 A 
ATOM      3  C   UNL     1      45.238   9.092  11.694  0.00  0.00    +0.000 A 
ATOM      4  C   UNL     1      45.483   7.722  11.565  0.00  0.00    +0.000 A 
ATOM      5  N   UNL     1      44.411   6.932  11.088  0.00  0.00    +0.000 N 
ATOM      6  N   UNL     1      46.685   7.194  11.857  0.00  0.00    +0.000 NA
ATOM      7  C   UNL     1      47.676   8.045  12.250  0.00  0.00    +0.000 A 
ATOM      8  H   UNL     1      44.192   7.223  10.140  0.00  0.00    +0.000 HD
ENDROOT
BRANCH   1  10
ATOM      9  N   UNL     1      49.861   9.969  12.330  0.00  0.00    +0.000 N 
ATOM     10  C   UNL     1      48.636  10.235  12.883  0.00  0.00    +0.000 C 
ATOM     11  O   UNL     1      48.492  11.135  13.696  0.00  0.00    +0.000 OA
ATOM     12  H   UNL     1      50.613  10.602  12.577  0.00  0.00    +0.000 HD
ATOM     13  H   UNL     1      49.974   9.421  11.488  0.00  0.00    +0.000 HD
ENDBRANCH   1  10
BRANCH   5  14
ATOM     14  C   UNL     1      44.336   5.475  11.313  0.00  0.00    +0.000 C 
ATOM     15  C   UNL     1      43.018   5.012  11.933  0.00  0.00    +0.000 C 
ATOM     16  C   UNL     1      44.282   4.910  12.722  0.00  0.00    +0.000 C 
BRANCH  14  17
ATOM     17  C   UNL     1      44.942   4.597  10.221  0.00  0.00    +0.000 A 
ATOM     18  C   UNL     1      44.743   3.204  10.213  0.00  0.00    +0.000 A 
ATOM     19  C   UNL     1      45.240   2.394   9.189  0.00  0.00    +0.000 A 
ATOM     20  C   UNL     1      45.951   2.970   8.143  0.00  0.00    +0.000 A 
ATOM     21 CL   UNL     1      46.545   1.985   6.864  0.00  0.00    +0.000 Cl
ATOM     22  C   UNL     1      46.180   4.343   8.124  0.00  0.00    +0.000 A 
ATOM     23  C   UNL     1      45.685   5.145   9.158  0.00  0.00    +0.000 A 
ENDBRANCH  14  17
ENDBRANCH   5  14
TORSDOF 3
ENDMDL
MODEL 6
REMARK VINA RESULT:    -6.317      4.925      6.997
REMARK INTER + INTRA:          -7.074
REMARK INTER:                  -7.018
REMARK INTRA:                  -0.056
REMARK UNBOUND:                 0.350
REMARK  Name = 
REMARK  3 active torsions:
REMARK  status: ('A' for Active; 'I' for Inactive)
REMARK    1  A    between atoms: C_2  and  C_4
REMARK    2  A    between atoms: N_8  and  C_9
REMARK    3  A    between atoms: C_9  and  C_10
REMARK                            x       y       z     vdW  Elec       q    Type
REMARK                         _______ _______ _______ _____ _____    ______ ____
ROOT
ATOM      1  C   UNL     1      46.012   5.485  12.548  0.00  0.00    +0.000 A 
ATOM      2  C   UNL     1      45.817   4.113  12.438  0.00  0.00    +0.000 A 
ATOM      3  C   UNL     1      46.396   3.267  13.384  0.00  0.00    +0.000 A 
ATOM      4  C   UNL     1      47.126   3.805  14.449  0.00  0.00    +0.000 A 
ATOM      5  N   UNL     1      47.687   2.879  15.359  0.00  0.00    +0.000 N 
ATOM      6  N   UNL     1      47.301   5.132  14.578  0.00  0.00    +0.000 NA
ATOM      7  C   UNL     1      46.775   5.942  13.615  0.00  0.00    +0.000 A 
ATOM      8  H   UNL     1      48.371   2.315  14.865  0.00  0.00    +0.000 HD
ENDROOT
BRANCH   1  10
ATOM      9  N   UNL     1      45.453   6.073  10.259  0.00  0.00    +0.000 N 
ATOM     10  C   UNL     1      45.472   6.452  11.576  0.00  0.00    +0.000 C 
ATOM     11  O   UNL     1      45.035   7.538  11.927  0.00  0.00    +0.000 OA
ATOM     12  H   UNL     1      44.994   6.707   9.616  0.00  0.00    +0.000 HD
ATOM     13  H   UNL     1      45.562   5.112   9.965  0.00  0.00    +0.000 HD
ENDBRANCH   1  10
BRANCH   5  14
ATOM     14  C   UNL     1      48.080   3.254  16.732  0.00  0.00    +0.000 C 
ATOM     15  C   UNL     1      47.065   2.845  17.799  0.00  0.00    +0.000 C 
ATOM     16  C   UNL     1      47.289   4.293  17.508  0.00  0.00    +0.000 C 
BRANCH  14  17
ATOM     17  C   UNL     1      49.559   3.090  17.073  0.00  0.00    +0.000 A 
ATOM     18  C   UNL     1      50.332   4.185  17.499  0.00  0.00    +0.000 A 
ATOM     19  C   UNL     1      51.672   4.041  17.872  0.00  0.00    +0.000 A 
ATOM     20  C   UNL     1      52.265   2.786  17.825  0.00  0.00    +0.000 A 
ATOM     21 CL   UNL     1      53.905   2.593  18.307  0.00  0.00    +0.000 Cl
ATOM     22  C   UNL     1      51.535   1.681  17.396  0.00  0.00    +0.000 A 
ATOM     23  C   UNL     1      50.197   1.837  17.016  0.00  0.00    +0.000 A 
ENDBRANCH  14  17
ENDBRANCH   5  14
TORSDOF 3
ENDMDL
MODEL 7
REMARK VINA RESULT:    -6.243      3.483      5.233
REMARK INTER + INTRA:          -6.987
REMARK INTER:                  -6.501
REMARK INTRA:                  -0.486
REMARK UNBOUND:                 0.350
REMARK  Name = 
REMARK  3 active torsions:
REMARK  status: ('A' for Active; 'I' for Inactive)
REMARK    1  A    between atoms: C_2  and  C_4
REMARK    2  A    between atoms: N_8  and  C_9
REMARK    3  A    between atoms: C_9  and  C_10
REMARK                            x       y       z     vdW  Elec       q    Type
REMARK                         _______ _______ _______ _____ _____    ______ ____
ROOT
ATOM      1  C   UNL     1      44.725   4.517  11.677  0.00  0.00    +0.000 A 
ATOM      2  C   UNL     1      44.257   5.704  11.127  0.00  0.00    +0.000 A 
ATOM      3  C   UNL     1      44.972   6.882  11.345  0.00  0.00    +0.000 A 
ATOM      4  C   UNL     1      46.165   6.851  12.073  0.00  0.00    +0.000 A 
ATOM      5  N   UNL     1      46.824   8.089  12.256  0.00  0.00    +0.000 N 
ATOM      6  N   UNL     1      46.640   5.704  12.592  0.00  0.00    +0.000 NA
ATOM      7  C   UNL     1      45.901   4.571  12.416  0.00  0.00    +0.000 A 
ATOM      8  H   UNL     1      46.225   8.695  12.809  0.00  0.00    +0.000 HD
ENDROOT
BRANCH   1  10
ATOM      9  N   UNL     1      43.781   2.515  12.676  0.00  0.00    +0.000 N 
ATOM     10  C   UNL     1      44.018   3.232  11.533  0.00  0.00    +0.000 C 
ATOM     11  O   UNL     1      43.635   2.830  10.444  0.00  0.00    +0.000 OA
ATOM     12  H   UNL     1      43.213   1.682  12.574  0.00  0.00    +0.000 HD
ATOM     13  H   UNL     1      43.849   2.920  13.599  0.00  0.00    +0.000 HD
ENDBRANCH   1  10
BRANCH   5  14
ATOM     14  C   UNL     1      48.260   8.183  12.585  0.00  0.00    +0.000 C 
ATOM     15  C   UNL     1      49.024   9.198  11.735  0.00  0.00    +0.000 C 
ATOM     16  C   UNL     1      49.314   7.741  11.585  0.00  0.00    +0.000 C 
BRANCH  14  17
ATOM     17  C   UNL     1      48.613   8.104  14.068  0.00  0.00    +0.000 A 
ATOM     18  C   UNL     1      48.087   9.028  14.990  0.00  0.00    +0.000 A 
ATOM     19  C   UNL     1      48.351   8.936  16.359  0.00  0.00    +0.000 A 
ATOM     20  C   UNL     1      49.153   7.905  16.834  0.00  0.00    +0.000 A 
ATOM     21 CL   UNL     1      49.463   7.767  18.521  0.00  0.00    +0.000 Cl
ATOM     22  C   UNL     1      49.702   6.981  15.951  0.00  0.00    +0.000 A 
ATOM     23  C   UNL     1      49.439   7.087  14.581  0.00  0.00    +0.000 A 
ENDBRANCH  14  17
ENDBRANCH   5  14
TORSDOF 3
ENDMDL
MODEL 8
REMARK VINA RESULT:    -6.152      3.824      5.761
REMARK INTER + INTRA:          -6.881
REMARK INTER:                  -6.510
REMARK INTRA:                  -0.371
REMARK UNBOUND:                 0.350
REMARK  Name = 
REMARK  3 active torsions:
REMARK  status: ('A' for Active; 'I' for Inactive)
REMARK    1  A    between atoms: C_2  and  C_4
REMARK    2  A    between atoms: N_8  and  C_9
REMARK    3  A    between atoms: C_9  and  C_10
REMARK                            x       y       z     vdW  Elec       q    Type
REMARK                         _______ _______ _______ _____ _____    ______ ____
ROOT
ATOM      1  C   UNL     1      44.964   4.623  11.380  0.00  0.00    +0.000 A 
ATOM      2  C   UNL     1      45.451   4.052  12.550  0.00  0.00    +0.000 A 
ATOM      3  C   UNL     1      46.462   4.706  13.255  0.00  0.00    +0.000 A 
ATOM      4  C   UNL     1      46.943   5.939  12.804  0.00  0.00    +0.000 A 
ATOM      5  N   UNL     1      47.973   6.532  13.570  0.00  0.00    +0.000 N 
ATOM      6  N   UNL     1      46.463   6.512  11.686  0.00  0.00    +0.000 NA
ATOM      7  C   UNL     1      45.513   5.834  10.979  0.00  0.00    +0.000 A 
ATOM      8  H   UNL     1      48.791   5.931  13.531  0.00  0.00    +0.000 HD
ENDROOT
BRANCH   1  10
ATOM      9  N   UNL     1      43.875   4.343   9.228  0.00  0.00    +0.000 N 
ATOM     10  C   UNL     1      43.925   3.988  10.550  0.00  0.00    +0.000 C 
ATOM     11  O   UNL     1      43.154   3.159  11.012  0.00  0.00    +0.000 OA
ATOM     12  H   UNL     1      43.219   3.830   8.650  0.00  0.00    +0.000 HD
ATOM     13  H   UNL     1      44.636   4.816   8.760  0.00  0.00    +0.000 HD
ENDBRANCH   1  10
BRANCH   5  14
ATOM     14  C   UNL     1      48.273   7.977  13.516  0.00  0.00    +0.000 C 
ATOM     15  C   UNL     1      48.326   8.649  14.888  0.00  0.00    +0.000 C 
ATOM     16  C   UNL     1      47.231   9.000  13.934  0.00  0.00    +0.000 C 
BRANCH  14  17
ATOM     17  C   UNL     1      49.314   8.406  12.485  0.00  0.00    +0.000 A 
ATOM     18  C   UNL     1      49.418   9.747  12.073  0.00  0.00    +0.000 A 
ATOM     19  C   UNL     1      50.403  10.168  11.175  0.00  0.00    +0.000 A 
ATOM     20  C   UNL     1      51.311   9.244  10.671  0.00  0.00    +0.000 A 
ATOM     21 CL   UNL     1      52.544   9.757   9.587  0.00  0.00    +0.000 Cl
ATOM     22  C   UNL     1      51.231   7.906  11.047  0.00  0.00    +0.000 A 
ATOM     23  C   UNL     1      50.235   7.493  11.939  0.00  0.00    +0.000 A 
ENDBRANCH  14  17
ENDBRANCH   5  14
TORSDOF 3
ENDMDL
MODEL 9
REMARK VINA RESULT:    -6.031      2.500      4.002
REMARK INTER + INTRA:          -6.738
REMARK INTER:                  -6.264
REMARK INTRA:                  -0.474
REMARK UNBOUND:                 0.350
REMARK  Name = 
REMARK  3 active torsions:
REMARK  status: ('A' for Active; 'I' for Inactive)
REMARK    1  A    between atoms: C_2  and  C_4
REMARK    2  A    between atoms: N_8  and  C_9
REMARK    3  A    between atoms: C_9  and  C_10
REMARK                            x       y       z     vdW  Elec       q    Type
REMARK                         _______ _______ _______ _____ _____    ______ ____
ROOT
ATOM      1  C   UNL     1      44.600   4.285   9.874  0.00  0.00    +0.000 A 
ATOM      2  C   UNL     1      43.533   4.508  10.737  0.00  0.00    +0.000 A 
ATOM      3  C   UNL     1      43.535   5.651  11.537  0.00  0.00    +0.000 A 
ATOM      4  C   UNL     1      44.579   6.574  11.435  0.00  0.00    +0.000 A 
ATOM      5  N   UNL     1      44.510   7.701  12.287  0.00  0.00    +0.000 N 
ATOM      6  N   UNL     1      45.606   6.380  10.588  0.00  0.00    +0.000 NA
ATOM      7  C   UNL     1      45.616   5.232   9.852  0.00  0.00    +0.000 A 
ATOM      8  H   UNL     1      44.569   7.383  13.249  0.00  0.00    +0.000 HD
ENDROOT
BRANCH   1  10
ATOM      9  N   UNL     1      44.485   1.874   9.614  0.00  0.00    +0.000 N 
ATOM     10  C   UNL     1      44.704   3.089   9.020  0.00  0.00    +0.000 C 
ATOM     11  O   UNL     1      44.950   3.174   7.826  0.00  0.00    +0.000 OA
ATOM     12  H   UNL     1      44.467   1.070   8.997  0.00  0.00    +0.000 HD
ATOM     13  H   UNL     1      44.037   1.778  10.514  0.00  0.00    +0.000 HD
ENDBRANCH   1  10
BRANCH   5  14
ATOM     14  C   UNL     1      45.243   8.953  12.011  0.00  0.00    +0.000 C 
ATOM     15  C   UNL     1      44.406  10.216  12.207  0.00  0.00    +0.000 C 
ATOM     16  C   UNL     1      44.857   9.833  10.836  0.00  0.00    +0.000 C 
BRANCH  14  17
ATOM     17  C   UNL     1      46.695   8.994  12.480  0.00  0.00    +0.000 A 
ATOM     18  C   UNL     1      47.116   8.260  13.605  0.00  0.00    +0.000 A 
ATOM     19  C   UNL     1      48.453   8.240  14.013  0.00  0.00    +0.000 A 
ATOM     20  C   UNL     1      49.400   8.958  13.295  0.00  0.00    +0.000 A 
ATOM     21 CL   UNL     1      51.053   8.918  13.773  0.00  0.00    +0.000 Cl
ATOM     22  C   UNL     1      49.019   9.706  12.185  0.00  0.00    +0.000 A 
ATOM     23  C   UNL     1      47.677   9.728  11.789  0.00  0.00    +0.000 A 
ENDBRANCH  14  17
ENDBRANCH   5  14
TORSDOF 3
ENDMDL
