MODEL 1
REMARK VINA RESULT:    -7.686      0.000      0.000
REMARK INTER + INTRA:         -10.822
REMARK INTER:                  -9.932
REMARK INTRA:                  -0.890
REMARK UNBOUND:                -0.890
REMARK  Name = 
REMARK  6 active torsions:
REMARK  status: ('A' for Active; 'I' for Inactive)
REMARK    1  A    between atoms: C_1  and  C_2
REMARK    2  A    between atoms: N_9  and  C_10
REMARK    3  A    between atoms: C_10  and  C_11
REMARK    4  A    between atoms: C_14  and  C_15
REMARK    5  A    between atoms: C_15  and  N_16
REMARK    6  A    between atoms: C_17  and  C_19
REMARK                            x       y       z     vdW  Elec       q    Type
REMARK                         _______ _______ _______ _____ _____    ______ ____
ROOT
ATOM      1  C   UNL     1      45.411   4.319  11.690  0.00  0.00    +0.000 A 
ATOM      2  C   UNL     1      46.095   4.092  12.896  0.00  0.00    +0.000 A 
ATOM      3  C   UNL     1      46.710   5.143  13.596  0.00  0.00    +0.000 A 
ATOM      4  C   UNL     1      46.656   6.454  13.103  0.00  0.00    +0.000 A 
ATOM      5  C   UNL     1      45.954   6.678  11.916  0.00  0.00    +0.000 A 
ATOM      6  F   UNL     1      45.872   7.921  11.416  0.00  0.00    +0.000 F 
ATOM      7  C   UNL     1      45.339   5.635  11.216  0.00  0.00    +0.000 A 
ENDROOT
BRANCH   1   8
ATOM      8  C   UNL     1      44.820   3.166  10.906  0.00  0.00    +0.000 C 
BRANCH   8  17
ATOM      9  C   UNL     1      46.397   0.206   7.946  0.00  0.00    +0.000 C 
ATOM     10  C   UNL     1      46.757   1.477   7.257  0.00  0.00    +0.000 A 
ATOM     11  C   UNL     1      47.617   1.635   6.181  0.00  0.00    +0.000 A 
ATOM     12  C   UNL     1      47.529   2.969   5.741  0.00  0.00    +0.000 A 
ATOM     13  C   UNL     1      46.597   3.591   6.535  0.00  0.00    +0.000 A 
ATOM     14  N   UNL     1      46.147   2.710   7.505  0.00  0.00    +0.000 N 
ATOM     15  C   UNL     1      45.199   3.069   8.488  0.00  0.00    +0.000 C 
ATOM     16  O   UNL     1      44.202   3.701   8.160  0.00  0.00    +0.000 OA
ATOM     17  N   UNL     1      45.605   2.751   9.759  0.00  0.00    +0.000 N 
ATOM     18  H   UNL     1      46.563   2.468   9.905  0.00  0.00    +0.000 HD
ENDBRANCH   8  17
ENDBRANCH   1   8
BRANCH   4  19
ATOM     19  C   UNL     1      47.291   7.592  13.856  0.00  0.00    +0.000 C 
BRANCH  19  20
ATOM     20  N   UNL     1      47.878   7.139  15.094  0.00  0.00    +0.000 N 
ATOM     21  C   UNL     1      49.230   6.955  15.230  0.00  0.00    +0.000 C 
ATOM     22  O   UNL     1      49.994   7.019  14.269  0.00  0.00    +0.000 OA
ATOM     23  H   UNL     1      47.311   7.246  15.928  0.00  0.00    +0.000 HD
BRANCH  21  24
ATOM     24  C   UNL     1      49.728   6.680  16.581  0.00  0.00    +0.000 A 
ATOM     25  C   UNL     1      50.786   7.413  17.096  0.00  0.00    +0.000 A 
ATOM     26  S   UNL     1      51.201   6.996  18.698  0.00  0.00    +0.000 S 
ATOM     27  C   UNL     1      49.942   5.854  18.783  0.00  0.00    +0.000 A 
ATOM     28  N   UNL     1      49.681   5.184  19.938  0.00  0.00    +0.000 NA
ATOM     29  C   UNL     1      48.688   4.362  19.866  0.00  0.00    +0.000 A 
ATOM     30  N   UNL     1      47.952   4.126  18.734  0.00  0.00    +0.000 N 
ATOM     31  C   UNL     1      48.217   4.736  17.532  0.00  0.00    +0.000 A 
ATOM     32  O   UNL     1      47.614   4.418  16.511  0.00  0.00    +0.000 OA
ATOM     33  C   UNL     1      49.273   5.731  17.578  0.00  0.00    +0.000 A 
ATOM     34  H   UNL     1      47.222   3.429  18.727  0.00  0.00    +0.000 HD
ENDBRANCH  21  24
ENDBRANCH  19  20
ENDBRANCH   4  19
TORSDOF 5
ENDMDL
MODEL 2
REMARK VINA RESULT:    -7.611      5.277      9.599
REMARK INTER + INTRA:         -10.726
REMARK INTER:                  -9.865
REMARK INTRA:                  -0.860
REMARK UNBOUND:                -0.890
REMARK  Name = 
REMARK  6 active torsions:
REMARK  status: ('A' for Active; 'I' for Inactive)
REMARK    1  A    between atoms: C_1  and  C_2
REMARK    2  A    between atoms: N_9  and  C_10
REMARK    3  A    between atoms: C_10  and  C_11
REMARK    4  A    between atoms: C_14  and  C_15
REMARK    5  A    between atoms: C_15  and  N_16
REMARK    6  A    between atoms: C_17  and  C_19
REMARK                            x       y       z     vdW  Elec       q    Type
REMARK                         _______ _______ _______ _____ _____    ______ ____
ROOT
ATOM      1  C   UNL     1      51.382   3.216  17.893  0.00  0.00    +0.000 A 
ATOM      2  C   UNL     1      50.676   4.366  18.287  0.00  0.00    +0.000 A 
ATOM      3  C   UNL     1      49.313   4.523  17.989  0.00  0.00    +0.000 A 
ATOM      4  C   UNL     1      48.618   3.528  17.287  0.00  0.00    +0.000 A 
ATOM      5  C   UNL     1      49.318   2.376  16.920  0.00  0.00    +0.000 A 
ATOM      6  F   UNL     1      48.686   1.397  16.255  0.00  0.00    +0.000 F 
ATOM      7  C   UNL     1      50.676   2.215  17.215  0.00  0.00    +0.000 A 
ENDROOT
BRANCH   1   8
ATOM      8  C   UNL     1      52.869   3.094  18.151  0.00  0.00    +0.000 C 
BRANCH   8  17
ATOM      9  C   UNL     1      55.769   0.615  15.817  0.00  0.00    +0.000 C 
ATOM     10  C   UNL     1      55.247  -0.416  16.758  0.00  0.00    +0.000 A 
ATOM     11  C   UNL     1      55.407  -1.790  16.671  0.00  0.00    +0.000 A 
ATOM     12  C   UNL     1      54.907  -2.366  17.854  0.00  0.00    +0.000 A 
ATOM     13  C   UNL     1      54.481  -1.332  18.652  0.00  0.00    +0.000 A 
ATOM     14  N   UNL     1      54.632  -0.130  17.979  0.00  0.00    +0.000 N 
ATOM     15  C   UNL     1      54.256   1.113  18.534  0.00  0.00    +0.000 C 
ATOM     16  O   UNL     1      54.556   1.369  19.695  0.00  0.00    +0.000 OA
ATOM     17  N   UNL     1      53.460   1.851  17.697  0.00  0.00    +0.000 N 
ATOM     18  H   UNL     1      53.078   1.405  16.874  0.00  0.00    +0.000 HD
ENDBRANCH   8  17
ENDBRANCH   1   8
BRANCH   4  19
ATOM     19  C   UNL     1      47.151   3.675  16.982  0.00  0.00    +0.000 C 
BRANCH  19  20
ATOM     20  N   UNL     1      46.928   4.632  15.926  0.00  0.00    +0.000 N 
ATOM     21  C   UNL     1      46.872   4.256  14.608  0.00  0.00    +0.000 C 
ATOM     22  O   UNL     1      47.155   3.117  14.245  0.00  0.00    +0.000 OA
ATOM     23  H   UNL     1      46.526   5.521  16.200  0.00  0.00    +0.000 HD
BRANCH  21  24
ATOM     24  C   UNL     1      46.450   5.278  13.645  0.00  0.00    +0.000 A 
ATOM     25  C   UNL     1      47.294   6.334  13.335  0.00  0.00    +0.000 A 
ATOM     26  S   UNL     1      46.665   7.399  12.161  0.00  0.00    +0.000 S 
ATOM     27  C   UNL     1      45.260   6.457  11.981  0.00  0.00    +0.000 A 
ATOM     28  N   UNL     1      44.321   6.771  11.048  0.00  0.00    +0.000 NA
ATOM     29  C   UNL     1      43.315   5.961  11.009  0.00  0.00    +0.000 A 
ATOM     30  N   UNL     1      43.149   4.884  11.839  0.00  0.00    +0.000 N 
ATOM     31  C   UNL     1      44.043   4.563  12.833  0.00  0.00    +0.000 A 
ATOM     32  O   UNL     1      43.808   3.662  13.632  0.00  0.00    +0.000 OA
ATOM     33  C   UNL     1      45.232   5.394  12.867  0.00  0.00    +0.000 A 
ATOM     34  H   UNL     1      42.314   4.320  11.795  0.00  0.00    +0.000 HD
ENDBRANCH  21  24
ENDBRANCH  19  20
ENDBRANCH   4  19
TORSDOF 5
ENDMDL
MODEL 3
REMARK VINA RESULT:    -7.382      3.802      8.889
REMARK INTER + INTRA:         -10.429
REMARK INTER:                  -9.541
REMARK INTRA:                  -0.888
REMARK UNBOUND:                -0.890
REMARK  Name = 
REMARK  6 active torsions:
REMARK  status: ('A' for Active; 'I' for Inactive)
REMARK    1  A    between atoms: C_1  and  C_2
REMARK    2  A    between atoms: N_9  and  C_10
REMARK    3  A    between atoms: C_10  and  C_11
REMARK    4  A    between atoms: C_14  and  C_15
REMARK    5  A    between atoms: C_15  and  N_16
REMARK    6  A    between atoms: C_17  and  C_19
REMARK                            x       y       z     vdW  Elec       q    Type
REMARK                         _______ _______ _______ _____ _____    ______ ____
ROOT
ATOM      1  C   UNL     1      50.284   7.028  15.863  0.00  0.00    +0.000 A 
ATOM      2  C   UNL     1      48.976   6.584  15.606  0.00  0.00    +0.000 A 
ATOM      3  C   UNL     1      48.334   6.871  14.390  0.00  0.00    +0.000 A 
ATOM      4  C   UNL     1      48.988   7.613  13.397  0.00  0.00    +0.000 A 
ATOM      5  C   UNL     1      50.297   8.032  13.648  0.00  0.00    +0.000 A 
ATOM      6  F   UNL     1      50.960   8.737  12.719  0.00  0.00    +0.000 F 
ATOM      7  C   UNL     1      50.941   7.747  14.857  0.00  0.00    +0.000 A 
ENDROOT
BRANCH   1   8
ATOM      8  C   UNL     1      50.936   6.780  17.207  0.00  0.00    +0.000 C 
BRANCH   8  17
ATOM      9  C   UNL     1      53.752   3.815  19.019  0.00  0.00    +0.000 C 
ATOM     10  C   UNL     1      52.854   2.893  18.268  0.00  0.00    +0.000 A 
ATOM     11  C   UNL     1      53.073   1.553  17.984  0.00  0.00    +0.000 A 
ATOM     12  C   UNL     1      51.898   1.028  17.413  0.00  0.00    +0.000 A 
ATOM     13  C   UNL     1      50.977   2.047  17.387  0.00  0.00    +0.000 A 
ATOM     14  N   UNL     1      51.557   3.214  17.859  0.00  0.00    +0.000 N 
ATOM     15  C   UNL     1      50.863   4.441  17.929  0.00  0.00    +0.000 C 
ATOM     16  O   UNL     1      49.721   4.463  18.374  0.00  0.00    +0.000 OA
ATOM     17  N   UNL     1      51.551   5.475  17.348  0.00  0.00    +0.000 N 
ATOM     18  H   UNL     1      52.366   5.261  16.790  0.00  0.00    +0.000 HD
ENDBRANCH   8  17
ENDBRANCH   1   8
BRANCH   4  19
ATOM     19  C   UNL     1      48.318   7.907  12.081  0.00  0.00    +0.000 C 
BRANCH  19  20
ATOM     20  N   UNL     1      47.542   6.779  11.625  0.00  0.00    +0.000 N 
ATOM     21  C   UNL     1      46.190   6.867  11.413  0.00  0.00    +0.000 C 
ATOM     22  O   UNL     1      45.545   7.860  11.742  0.00  0.00    +0.000 OA
ATOM     23  H   UNL     1      48.059   6.023  11.188  0.00  0.00    +0.000 HD
BRANCH  21  24
ATOM     24  C   UNL     1      45.544   5.720  10.768  0.00  0.00    +0.000 A 
ATOM     25  C   UNL     1      45.742   5.478   9.418  0.00  0.00    +0.000 A 
ATOM     26  S   UNL     1      44.958   4.074   8.846  0.00  0.00    +0.000 S 
ATOM     27  C   UNL     1      44.369   3.706  10.399  0.00  0.00    +0.000 A 
ATOM     28  N   UNL     1      43.675   2.558  10.631  0.00  0.00    +0.000 NA
ATOM     29  C   UNL     1      43.304   2.397  11.857  0.00  0.00    +0.000 A 
ATOM     30  N   UNL     1      43.537   3.294  12.867  0.00  0.00    +0.000 N 
ATOM     31  C   UNL     1      44.182   4.491  12.666  0.00  0.00    +0.000 A 
ATOM     32  O   UNL     1      44.274   5.322  13.564  0.00  0.00    +0.000 OA
ATOM     33  C   UNL     1      44.692   4.685  11.321  0.00  0.00    +0.000 A 
ATOM     34  H   UNL     1      43.173   3.136  13.794  0.00  0.00    +0.000 HD
ENDBRANCH  21  24
ENDBRANCH  19  20
ENDBRANCH   4  19
TORSDOF 5
ENDMDL
MODEL 4
REMARK VINA RESULT:    -7.361      1.922      2.482
REMARK INTER + INTRA:         -10.402
REMARK INTER:                  -9.481
REMARK INTRA:                  -0.922
REMARK UNBOUND:                -0.890
REMARK  Name = 
REMARK  6 active torsions:
REMARK  status: ('A' for Active; 'I' for Inactive)
REMARK    1  A    between atoms: C_1  and  C_2
REMARK    2  A    between atoms: N_9  and  C_10
REMARK    3  A    between atoms: C_10  and  C_11
REMARK    4  A    between atoms: C_14  and  C_15
REMARK    5  A    between atoms: C_15  and  N_16
REMARK    6  A    between atoms: C_17  and  C_19
REMARK                            x       y       z     vdW  Elec       q    Type
REMARK                         _______ _______ _______ _____ _____    ______ ____
ROOT
ATOM      1  C   UNL     1      44.873   4.360  11.492  0.00  0.00    +0.000 A 
ATOM      2  C   UNL     1      45.761   4.477  12.574  0.00  0.00    +0.000 A 
ATOM      3  C   UNL     1      46.097   5.731  13.110  0.00  0.00    +0.000 A 
ATOM      4  C   UNL     1      45.548   6.904  12.574  0.00  0.00    +0.000 A 
ATOM      5  C   UNL     1      44.646   6.781  11.515  0.00  0.00    +0.000 A 
ATOM      6  F   UNL     1      44.092   7.880  10.980  0.00  0.00    +0.000 F 
ATOM      7  C   UNL     1      44.308   5.534  10.978  0.00  0.00    +0.000 A 
ENDROOT
BRANCH   1   8
ATOM      8  C   UNL     1      44.581   3.009  10.872  0.00  0.00    +0.000 C 
BRANCH   8  17
ATOM      9  C   UNL     1      46.422   0.171   7.946  0.00  0.00    +0.000 C 
ATOM     10  C   UNL     1      46.833   1.469   7.341  0.00  0.00    +0.000 A 
ATOM     11  C   UNL     1      47.782   1.671   6.350  0.00  0.00    +0.000 A 
ATOM     12  C   UNL     1      47.725   3.022   5.956  0.00  0.00    +0.000 A 
ATOM     13  C   UNL     1      46.725   3.610   6.691  0.00  0.00    +0.000 A 
ATOM     14  N   UNL     1      46.198   2.690   7.584  0.00  0.00    +0.000 N 
ATOM     15  C   UNL     1      45.167   3.008   8.495  0.00  0.00    +0.000 C 
ATOM     16  O   UNL     1      44.198   3.651   8.107  0.00  0.00    +0.000 OA
ATOM     17  N   UNL     1      45.463   2.641   9.782  0.00  0.00    +0.000 N 
ATOM     18  H   UNL     1      46.407   2.355   9.999  0.00  0.00    +0.000 HD
ENDBRANCH   8  17
ENDBRANCH   1   8
BRANCH   4  19
ATOM     19  C   UNL     1      45.882   8.252  13.156  0.00  0.00    +0.000 C 
BRANCH  19  20
ATOM     20  N   UNL     1      47.176   8.241  13.795  0.00  0.00    +0.000 N 
ATOM     21  C   UNL     1      48.324   8.554  13.113  0.00  0.00    +0.000 C 
ATOM     22  O   UNL     1      48.332   8.712  11.894  0.00  0.00    +0.000 OA
ATOM     23  H   UNL     1      47.179   8.288  14.808  0.00  0.00    +0.000 HD
BRANCH  21  24
ATOM     24  C   UNL     1      49.548   8.697  13.907  0.00  0.00    +0.000 A 
ATOM     25  C   UNL     1      50.407   9.761  13.677  0.00  0.00    +0.000 A 
ATOM     26  S   UNL     1      51.753   9.800  14.724  0.00  0.00    +0.000 S 
ATOM     27  C   UNL     1      51.207   8.424  15.564  0.00  0.00    +0.000 A 
ATOM     28  N   UNL     1      51.869   7.965  16.660  0.00  0.00    +0.000 NA
ATOM     29  C   UNL     1      51.336   6.925  17.209  0.00  0.00    +0.000 A 
ATOM     30  N   UNL     1      50.217   6.285  16.743  0.00  0.00    +0.000 N 
ATOM     31  C   UNL     1      49.551   6.679  15.608  0.00  0.00    +0.000 A 
ATOM     32  O   UNL     1      48.623   6.017  15.153  0.00  0.00    +0.000 OA
ATOM     33  C   UNL     1      50.062   7.892  14.997  0.00  0.00    +0.000 A 
ATOM     34  H   UNL     1      49.880   5.443  17.186  0.00  0.00    +0.000 HD
ENDBRANCH  21  24
ENDBRANCH  19  20
ENDBRANCH   4  19
TORSDOF 5
ENDMDL
MODEL 5
REMARK VINA RESULT:    -7.347      3.929      4.782
REMARK INTER + INTRA:         -10.384
REMARK INTER:                  -9.189
REMARK INTRA:                  -1.195
REMARK UNBOUND:                -0.890
REMARK  Name = 
REMARK  6 active torsions:
REMARK  status: ('A' for Active; 'I' for Inactive)
REMARK    1  A    between atoms: C_1  and  C_2
REMARK    2  A    between atoms: N_9  and  C_10
REMARK    3  A    between atoms: C_10  and  C_11
REMARK    4  A    between atoms: C_14  and  C_15
REMARK    5  A    between atoms: C_15  and  N_16
REMARK    6  A    between atoms: C_17  and  C_19
REMARK                            x       y       z     vdW  Elec       q    Type
REMARK                         _______ _______ _______ _____ _____    ______ ____
ROOT
ATOM      1  C   UNL     1      44.964   4.439  11.499  0.00  0.00    +0.000 A 
ATOM      2  C   UNL     1      45.813   4.503  12.616  0.00  0.00    +0.000 A 
ATOM      3  C   UNL     1      46.193   5.735  13.174  0.00  0.00    +0.000 A 
ATOM      4  C   UNL     1      45.729   6.938  12.625  0.00  0.00    +0.000 A 
ATOM      5  C   UNL     1      44.865   6.868  11.529  0.00  0.00    +0.000 A 
ATOM      6  F   UNL     1      44.393   7.997  10.980  0.00  0.00    +0.000 F 
ATOM      7  C   UNL     1      44.483   5.643  10.971  0.00  0.00    +0.000 A 
ENDROOT
BRANCH   1   8
ATOM      8  C   UNL     1      44.625   3.109  10.860  0.00  0.00    +0.000 C 
BRANCH   8  17
ATOM      9  C   UNL     1      46.434   0.246   7.937  0.00  0.00    +0.000 C 
ATOM     10  C   UNL     1      46.811   1.539   7.299  0.00  0.00    +0.000 A 
ATOM     11  C   UNL     1      47.732   1.736   6.281  0.00  0.00    +0.000 A 
ATOM     12  C   UNL     1      47.646   3.079   5.866  0.00  0.00    +0.000 A 
ATOM     13  C   UNL     1      46.655   3.665   6.616  0.00  0.00    +0.000 A 
ATOM     14  N   UNL     1      46.164   2.754   7.537  0.00  0.00    +0.000 N 
ATOM     15  C   UNL     1      45.152   3.074   8.468  0.00  0.00    +0.000 C 
ATOM     16  O   UNL     1      44.165   3.696   8.094  0.00  0.00    +0.000 OA
ATOM     17  N   UNL     1      45.486   2.734   9.754  0.00  0.00    +0.000 N 
ATOM     18  H   UNL     1      46.439   2.464   9.952  0.00  0.00    +0.000 HD
ENDBRANCH   8  17
ENDBRANCH   1   8
BRANCH   4  19
ATOM     19  C   UNL     1      46.111   8.264  13.228  0.00  0.00    +0.000 C 
BRANCH  19  20
ATOM     20  N   UNL     1      47.225   8.857  12.529  0.00  0.00    +0.000 N 
ATOM     21  C   UNL     1      48.223   9.526  13.190  0.00  0.00    +0.000 C 
ATOM     22  O   UNL     1      48.147   9.785  14.388  0.00  0.00    +0.000 OA
ATOM     23  H   UNL     1      47.401   8.516  11.590  0.00  0.00    +0.000 HD
BRANCH  21  24
ATOM     24  C   UNL     1      49.395   9.915  12.400  0.00  0.00    +0.000 A 
ATOM     25  C   UNL     1      49.759  11.249  12.304  0.00  0.00    +0.000 A 
ATOM     26  S   UNL     1      51.174  11.516  11.389  0.00  0.00    +0.000 S 
ATOM     27  C   UNL     1      51.386   9.847  11.132  0.00  0.00    +0.000 A 
ATOM     28  N   UNL     1      52.481   9.373  10.479  0.00  0.00    +0.000 NA
ATOM     29  C   UNL     1      52.523   8.086  10.370  0.00  0.00    +0.000 A 
ATOM     30  N   UNL     1      51.553   7.234  10.829  0.00  0.00    +0.000 N 
ATOM     31  C   UNL     1      50.404   7.672  11.442  0.00  0.00    +0.000 A 
ATOM     32  O   UNL     1      49.504   6.892  11.737  0.00  0.00    +0.000 OA
ATOM     33  C   UNL     1      50.345   9.105  11.662  0.00  0.00    +0.000 A 
ATOM     34  H   UNL     1      51.618   6.240  10.664  0.00  0.00    +0.000 HD
ENDBRANCH  21  24
ENDBRANCH  19  20
ENDBRANCH   4  19
TORSDOF 5
ENDMDL
MODEL 6
REMARK VINA RESULT:    -7.023      4.908      8.081
REMARK INTER + INTRA:          -9.965
REMARK INTER:                  -9.055
REMARK INTRA:                  -0.910
REMARK UNBOUND:                -0.890
REMARK  Name = 
REMARK  6 active torsions:
REMARK  status: ('A' for Active; 'I' for Inactive)
REMARK    1  A    between atoms: C_1  and  C_2
REMARK    2  A    between atoms: N_9  and  C_10
REMARK    3  A    between atoms: C_10  and  C_11
REMARK    4  A    between atoms: C_14  and  C_15
REMARK    5  A    between atoms: C_15  and  N_16
REMARK    6  A    between atoms: C_17  and  C_19
REMARK                            x       y       z     vdW  Elec       q    Type
REMARK                         _______ _______ _______ _____ _____    ______ ____
ROOT
ATOM      1  C   UNL     1      50.787   8.273  12.187  0.00  0.00    +0.000 A 
ATOM      2  C   UNL     1      49.880   7.510  11.433  0.00  0.00    +0.000 A 
ATOM      3  C   UNL     1      48.510   7.491  11.740  0.00  0.00    +0.000 A 
ATOM      4  C   UNL     1      48.011   8.240  12.815  0.00  0.00    +0.000 A 
ATOM      5  C   UNL     1      48.913   9.016  13.547  0.00  0.00    +0.000 A 
ATOM      6  F   UNL     1      48.473   9.753  14.577  0.00  0.00    +0.000 F 
ATOM      7  C   UNL     1      50.279   9.039  13.243  0.00  0.00    +0.000 A 
ENDROOT
BRANCH   1   8
ATOM      8  C   UNL     1      52.272   8.223  11.895  0.00  0.00    +0.000 C 
BRANCH   8  17
ATOM      9  C   UNL     1      52.374   6.781   7.661  0.00  0.00    +0.000 C 
ATOM     10  C   UNL     1      53.463   5.948   8.245  0.00  0.00    +0.000 A 
ATOM     11  C   UNL     1      54.068   4.838   7.675  0.00  0.00    +0.000 A 
ATOM     12  C   UNL     1      55.158   4.467   8.485  0.00  0.00    +0.000 A 
ATOM     13  C   UNL     1      55.216   5.374   9.515  0.00  0.00    +0.000 A 
ATOM     14  N   UNL     1      54.155   6.261   9.417  0.00  0.00    +0.000 N 
ATOM     15  C   UNL     1      53.932   7.297  10.350  0.00  0.00    +0.000 C 
ATOM     16  O   UNL     1      54.875   7.985  10.723  0.00  0.00    +0.000 OA
ATOM     17  N   UNL     1      52.647   7.314  10.829  0.00  0.00    +0.000 N 
ATOM     18  H   UNL     1      52.045   6.527  10.630  0.00  0.00    +0.000 HD
ENDBRANCH   8  17
ENDBRANCH   1   8
BRANCH   4  19
ATOM     19  C   UNL     1      46.540   8.246  13.139  0.00  0.00    +0.000 C 
BRANCH  19  20
ATOM     20  N   UNL     1      45.953   6.944  12.933  0.00  0.00    +0.000 N 
ATOM     21  C   UNL     1      44.981   6.729  11.990  0.00  0.00    +0.000 C 
ATOM     22  O   UNL     1      44.453   7.655  11.380  0.00  0.00    +0.000 OA
ATOM     23  H   UNL     1      46.478   6.151  13.286  0.00  0.00    +0.000 HD
BRANCH  21  24
ATOM     24  C   UNL     1      44.599   5.336  11.738  0.00  0.00    +0.000 A 
ATOM     25  C   UNL     1      43.885   4.626  12.691  0.00  0.00    +0.000 A 
ATOM     26  S   UNL     1      43.482   3.039  12.212  0.00  0.00    +0.000 S 
ATOM     27  C   UNL     1      44.202   3.260  10.686  0.00  0.00    +0.000 A 
ATOM     28  N   UNL     1      44.134   2.292   9.732  0.00  0.00    +0.000 NA
ATOM     29  C   UNL     1      44.707   2.600   8.616  0.00  0.00    +0.000 A 
ATOM     30  N   UNL     1      45.369   3.776   8.378  0.00  0.00    +0.000 N 
ATOM     31  C   UNL     1      45.512   4.757   9.331  0.00  0.00    +0.000 A 
ATOM     32  O   UNL     1      46.207   5.746   9.123  0.00  0.00    +0.000 OA
ATOM     33  C   UNL     1      44.817   4.495  10.577  0.00  0.00    +0.000 A 
ATOM     34  H   UNL     1      45.843   3.935   7.502  0.00  0.00    +0.000 HD
ENDBRANCH  21  24
ENDBRANCH  19  20
ENDBRANCH   4  19
TORSDOF 5
ENDMDL
MODEL 7
REMARK VINA RESULT:    -6.923      4.461      9.979
REMARK INTER + INTRA:          -9.837
REMARK INTER:                  -8.915
REMARK INTRA:                  -0.922
REMARK UNBOUND:                -0.890
REMARK  Name = 
REMARK  6 active torsions:
REMARK  status: ('A' for Active; 'I' for Inactive)
REMARK    1  A    between atoms: C_1  and  C_2
REMARK    2  A    between atoms: N_9  and  C_10
REMARK    3  A    between atoms: C_10  and  C_11
REMARK    4  A    between atoms: C_14  and  C_15
REMARK    5  A    between atoms: C_15  and  N_16
REMARK    6  A    between atoms: C_17  and  C_19
REMARK                            x       y       z     vdW  Elec       q    Type
REMARK                         _______ _______ _______ _____ _____    ______ ____
ROOT
ATOM      1  C   UNL     1      51.324   3.616  18.127  0.00  0.00    +0.000 A 
ATOM      2  C   UNL     1      50.415   4.631  18.470  0.00  0.00    +0.000 A 
ATOM      3  C   UNL     1      49.075   4.583  18.051  0.00  0.00    +0.000 A 
ATOM      4  C   UNL     1      48.610   3.513  17.275  0.00  0.00    +0.000 A 
ATOM      5  C   UNL     1      49.511   2.494  16.957  0.00  0.00    +0.000 A 
ATOM      6  F   UNL     1      49.102   1.448  16.223  0.00  0.00    +0.000 F 
ATOM      7  C   UNL     1      50.846   2.536  17.373  0.00  0.00    +0.000 A 
ENDROOT
BRANCH   1   8
ATOM      8  C   UNL     1      52.783   3.718  18.518  0.00  0.00    +0.000 C 
BRANCH   8  17
ATOM      9  C   UNL     1      55.534   6.748  20.322  0.00  0.00    +0.000 C 
ATOM     10  C   UNL     1      54.768   7.619  19.387  0.00  0.00    +0.000 A 
ATOM     11  C   UNL     1      54.735   9.005  19.367  0.00  0.00    +0.000 A 
ATOM     12  C   UNL     1      54.029   9.411  18.218  0.00  0.00    +0.000 A 
ATOM     13  C   UNL     1      53.672   8.268  17.546  0.00  0.00    +0.000 A 
ATOM     14  N   UNL     1      54.069   7.155  18.270  0.00  0.00    +0.000 N 
ATOM     15  C   UNL     1      53.818   5.833  17.845  0.00  0.00    +0.000 C 
ATOM     16  O   UNL     1      54.021   5.528  16.675  0.00  0.00    +0.000 OA
ATOM     17  N   UNL     1      53.235   5.063  18.818  0.00  0.00    +0.000 N 
ATOM     18  H   UNL     1      52.886   5.516  19.651  0.00  0.00    +0.000 HD
ENDBRANCH   8  17
ENDBRANCH   1   8
BRANCH   4  19
ATOM     19  C   UNL     1      47.170   3.439  16.839  0.00  0.00    +0.000 C 
BRANCH  19  20
ATOM     20  N   UNL     1      46.861   4.469  15.878  0.00  0.00    +0.000 N 
ATOM     21  C   UNL     1      46.831   4.217  14.530  0.00  0.00    +0.000 C 
ATOM     22  O   UNL     1      47.211   3.146  14.062  0.00  0.00    +0.000 OA
ATOM     23  H   UNL     1      46.383   5.290  16.234  0.00  0.00    +0.000 HD
BRANCH  21  24
ATOM     24  C   UNL     1      46.318   5.285  13.667  0.00  0.00    +0.000 A 
ATOM     25  C   UNL     1      47.096   6.402  13.404  0.00  0.00    +0.000 A 
ATOM     26  S   UNL     1      46.364   7.519  12.343  0.00  0.00    +0.000 S 
ATOM     27  C   UNL     1      44.998   6.522  12.150  0.00  0.00    +0.000 A 
ATOM     28  N   UNL     1      44.004   6.857  11.284  0.00  0.00    +0.000 NA
ATOM     29  C   UNL     1      43.037   6.002  11.224  0.00  0.00    +0.000 A 
ATOM     30  N   UNL     1      42.961   4.858  11.975  0.00  0.00    +0.000 N 
ATOM     31  C   UNL     1      43.913   4.511  12.903  0.00  0.00    +0.000 A 
ATOM     32  O   UNL     1      43.758   3.542  13.639  0.00  0.00    +0.000 OA
ATOM     33  C   UNL     1      45.062   5.397  12.952  0.00  0.00    +0.000 A 
ATOM     34  H   UNL     1      42.152   4.258  11.922  0.00  0.00    +0.000 HD
ENDBRANCH  21  24
ENDBRANCH  19  20
ENDBRANCH   4  19
TORSDOF 5
ENDMDL
MODEL 8
REMARK VINA RESULT:    -6.897      4.094      8.542
REMARK INTER + INTRA:          -9.802
REMARK INTER:                  -8.926
REMARK INTRA:                  -0.876
REMARK UNBOUND:                -0.890
REMARK  Name = 
REMARK  6 active torsions:
REMARK  status: ('A' for Active; 'I' for Inactive)
REMARK    1  A    between atoms: C_1  and  C_2
REMARK    2  A    between atoms: N_9  and  C_10
REMARK    3  A    between atoms: C_10  and  C_11
REMARK    4  A    between atoms: C_14  and  C_15
REMARK    5  A    between atoms: C_15  and  N_16
REMARK    6  A    between atoms: C_17  and  C_19
REMARK                            x       y       z     vdW  Elec       q    Type
REMARK                         _______ _______ _______ _____ _____    ______ ____
ROOT
ATOM      1  C   UNL     1      49.548   6.796  17.369  0.00  0.00    +0.000 A 
ATOM      2  C   UNL     1      48.860   6.064  16.387  0.00  0.00    +0.000 A 
ATOM      3  C   UNL     1      48.329   6.691  15.248  0.00  0.00    +0.000 A 
ATOM      4  C   UNL     1      48.474   8.073  15.063  0.00  0.00    +0.000 A 
ATOM      5  C   UNL     1      49.181   8.792  16.031  0.00  0.00    +0.000 A 
ATOM      6  F   UNL     1      49.349  10.115  15.886  0.00  0.00    +0.000 F 
ATOM      7  C   UNL     1      49.713   8.172  17.166  0.00  0.00    +0.000 A 
ENDROOT
BRANCH   1   8
ATOM      8  C   UNL     1      50.048   6.121  18.629  0.00  0.00    +0.000 C 
BRANCH   8  17
ATOM      9  C   UNL     1      49.874   2.023  16.846  0.00  0.00    +0.000 C 
ATOM     10  C   UNL     1      51.234   1.983  17.455  0.00  0.00    +0.000 A 
ATOM     11  C   UNL     1      52.029   0.865  17.660  0.00  0.00    +0.000 A 
ATOM     12  C   UNL     1      53.294   1.301  18.097  0.00  0.00    +0.000 A 
ATOM     13  C   UNL     1      53.257   2.674  18.120  0.00  0.00    +0.000 A 
ATOM     14  N   UNL     1      51.987   3.113  17.780  0.00  0.00    +0.000 N 
ATOM     15  C   UNL     1      51.632   4.479  17.741  0.00  0.00    +0.000 C 
ATOM     16  O   UNL     1      52.389   5.283  17.208  0.00  0.00    +0.000 OA
ATOM     17  N   UNL     1      50.489   4.752  18.447  0.00  0.00    +0.000 N 
ATOM     18  H   UNL     1      50.111   4.037  19.052  0.00  0.00    +0.000 HD
ENDBRANCH   8  17
ENDBRANCH   1   8
BRANCH   4  19
ATOM     19  C   UNL     1      47.929   8.753  13.835  0.00  0.00    +0.000 C 
BRANCH  19  20
ATOM     20  N   UNL     1      46.700   8.137  13.397  0.00  0.00    +0.000 N 
ATOM     21  C   UNL     1      46.667   7.247  12.354  0.00  0.00    +0.000 C 
ATOM     22  O   UNL     1      47.649   7.044  11.644  0.00  0.00    +0.000 OA
ATOM     23  H   UNL     1      45.930   8.148  14.057  0.00  0.00    +0.000 HD
BRANCH  21  24
ATOM     24  C   UNL     1      45.403   6.542  12.125  0.00  0.00    +0.000 A 
ATOM     25  C   UNL     1      44.310   7.220  11.609  0.00  0.00    +0.000 A 
ATOM     26  S   UNL     1      42.940   6.235  11.359  0.00  0.00    +0.000 S 
ATOM     27  C   UNL     1      43.776   4.848  11.881  0.00  0.00    +0.000 A 
ATOM     28  N   UNL     1      43.192   3.620  11.834  0.00  0.00    +0.000 NA
ATOM     29  C   UNL     1      43.946   2.654  12.244  0.00  0.00    +0.000 A 
ATOM     30  N   UNL     1      45.220   2.811  12.725  0.00  0.00    +0.000 N 
ATOM     31  C   UNL     1      45.827   4.038  12.844  0.00  0.00    +0.000 A 
ATOM     32  O   UNL     1      46.922   4.155  13.385  0.00  0.00    +0.000 OA
ATOM     33  C   UNL     1      45.053   5.149  12.322  0.00  0.00    +0.000 A 
ATOM     34  H   UNL     1      45.739   2.022  13.082  0.00  0.00    +0.000 HD
ENDBRANCH  21  24
ENDBRANCH  19  20
ENDBRANCH   4  19
TORSDOF 5
ENDMDL
MODEL 9
REMARK VINA RESULT:    -6.861      4.455     10.478
REMARK INTER + INTRA:          -9.757
REMARK INTER:                  -8.791
REMARK INTRA:                  -0.966
REMARK UNBOUND:                -0.890
REMARK  Name = 
REMARK  6 active torsions:
REMARK  status: ('A' for Active; 'I' for Inactive)
REMARK    1  A    between atoms: C_1  and  C_2
REMARK    2  A    between atoms: N_9  and  C_10
REMARK    3  A    between atoms: C_10  and  C_11
REMARK    4  A    between atoms: C_14  and  C_15
REMARK    5  A    between atoms: C_15  and  N_16
REMARK    6  A    between atoms: C_17  and  C_19
REMARK                            x       y       z     vdW  Elec       q    Type
REMARK                         _______ _______ _______ _____ _____    ______ ____
ROOT
ATOM      1  C   UNL     1      51.330   3.780  18.080  0.00  0.00    +0.000 A 
ATOM      2  C   UNL     1      50.406   4.793  18.386  0.00  0.00    +0.000 A 
ATOM      3  C   UNL     1      49.067   4.708  17.972  0.00  0.00    +0.000 A 
ATOM      4  C   UNL     1      48.617   3.602  17.239  0.00  0.00    +0.000 A 
ATOM      5  C   UNL     1      49.534   2.585  16.958  0.00  0.00    +0.000 A 
ATOM      6  F   UNL     1      49.140   1.506  16.266  0.00  0.00    +0.000 F 
ATOM      7  C   UNL     1      50.869   2.665  17.369  0.00  0.00    +0.000 A 
ENDROOT
BRANCH   1   8
ATOM      8  C   UNL     1      52.788   3.920  18.463  0.00  0.00    +0.000 C 
BRANCH   8  17
ATOM      9  C   UNL     1      52.105   8.273  19.231  0.00  0.00    +0.000 C 
ATOM     10  C   UNL     1      53.450   8.109  19.853  0.00  0.00    +0.000 A 
ATOM     11  C   UNL     1      54.322   9.113  20.244  0.00  0.00    +0.000 A 
ATOM     12  C   UNL     1      55.392   8.518  20.939  0.00  0.00    +0.000 A 
ATOM     13  C   UNL     1      55.137   7.169  20.987  0.00  0.00    +0.000 A 
ATOM     14  N   UNL     1      53.977   6.888  20.282  0.00  0.00    +0.000 N 
ATOM     15  C   UNL     1      53.469   5.579  20.130  0.00  0.00    +0.000 C 
ATOM     16  O   UNL     1      53.428   4.833  21.102  0.00  0.00    +0.000 OA
ATOM     17  N   UNL     1      53.191   5.265  18.825  0.00  0.00    +0.000 N 
ATOM     18  H   UNL     1      53.517   5.885  18.097  0.00  0.00    +0.000 HD
ENDBRANCH   8  17
ENDBRANCH   1   8
BRANCH   4  19
ATOM     19  C   UNL     1      47.178   3.489  16.809  0.00  0.00    +0.000 C 
BRANCH  19  20
ATOM     20  N   UNL     1      46.835   4.512  15.852  0.00  0.00    +0.000 N 
ATOM     21  C   UNL     1      46.817   4.266  14.503  0.00  0.00    +0.000 C 
ATOM     22  O   UNL     1      47.236   3.212  14.031  0.00  0.00    +0.000 OA
ATOM     23  H   UNL     1      46.328   5.314  16.211  0.00  0.00    +0.000 HD
BRANCH  21  24
ATOM     24  C   UNL     1      46.270   5.321  13.644  0.00  0.00    +0.000 A 
ATOM     25  C   UNL     1      47.015   6.459  13.377  0.00  0.00    +0.000 A 
ATOM     26  S   UNL     1      46.246   7.556  12.321  0.00  0.00    +0.000 S 
ATOM     27  C   UNL     1      44.907   6.522  12.137  0.00  0.00    +0.000 A 
ATOM     28  N   UNL     1      43.898   6.829  11.277  0.00  0.00    +0.000 NA
ATOM     29  C   UNL     1      42.955   5.948  11.223  0.00  0.00    +0.000 A 
ATOM     30  N   UNL     1      42.915   4.803  11.974  0.00  0.00    +0.000 N 
ATOM     31  C   UNL     1      43.882   4.481  12.895  0.00  0.00    +0.000 A 
ATOM     32  O   UNL     1      43.759   3.508  13.632  0.00  0.00    +0.000 OA
ATOM     33  C   UNL     1      45.006   5.398  12.937  0.00  0.00    +0.000 A 
ATOM     34  H   UNL     1      42.122   4.180  11.926  0.00  0.00    +0.000 HD
ENDBRANCH  21  24
ENDBRANCH  19  20
ENDBRANCH   4  19
TORSDOF 5
ENDMDL
