MODEL 1
REMARK VINA RESULT:    -8.802      0.000      0.000
REMARK INTER + INTRA:         -12.683
REMARK INTER:                 -11.890
REMARK INTRA:                  -0.793
REMARK UNBOUND:                -0.793
REMARK  Name = 
REMARK  6 active torsions:
REMARK  status: ('A' for Active; 'I' for Inactive)
REMARK    1  A    between atoms: C_2  and  C_19
REMARK    2  A    between atoms: N_3  and  C_4
REMARK    3  A    between atoms: C_4  and  C_5
REMARK    4  A    between atoms: C_8  and  C_9
REMARK    5  A    between atoms: C_9  and  O_10
REMARK    6  A    between atoms: O_10  and  C_11
REMARK                            x       y       z     vdW  Elec       q    Type
REMARK                         _______ _______ _______ _____ _____    ______ ____
ROOT
ATOM      1  O   UNL     1      48.980   6.507  13.106  0.00  0.00    +0.000 OA
ATOM      2  C   UNL     1      48.216   6.545  14.067  0.00  0.00    +0.000 C 
ATOM      3  N   UNL     1      46.894   6.887  13.943  0.00  0.00    +0.000 N 
ATOM      4  H   UNL     1      46.356   7.086  14.779  0.00  0.00    +0.000 HD
ENDROOT
BRANCH   2   5
ATOM      5  C   UNL     1      48.663   6.168  15.414  0.00  0.00    +0.000 A 
ATOM      6  C   UNL     1      49.590   6.960  16.076  0.00  0.00    +0.000 A 
ATOM      7  S   UNL     1      50.014   6.372  17.620  0.00  0.00    +0.000 S 
ATOM      8  C   UNL     1      48.938   5.061  17.475  0.00  0.00    +0.000 A 
ATOM      9  N   UNL     1      48.788   4.167  18.491  0.00  0.00    +0.000 NA
ATOM     10  C   UNL     1      47.905   3.252  18.268  0.00  0.00    +0.000 A 
ATOM     11  N   UNL     1      47.169   3.143  17.117  0.00  0.00    +0.000 N 
ATOM     12  C   UNL     1      47.341   3.975  16.038  0.00  0.00    +0.000 A 
ATOM     13  O   UNL     1      46.761   3.768  14.977  0.00  0.00    +0.000 OA
ATOM     14  C   UNL     1      48.287   5.056  16.256  0.00  0.00    +0.000 A 
ATOM     15  H   UNL     1      46.515   2.383  16.992  0.00  0.00    +0.000 HD
ENDBRANCH   2   5
BRANCH   3  16
ATOM     16  C   UNL     1      46.326   7.351  12.703  0.00  0.00    +0.000 C 
BRANCH  16  17
ATOM     17  C   UNL     1      45.859   6.199  11.854  0.00  0.00    +0.000 A 
ATOM     18  C   UNL     1      46.024   6.238  10.465  0.00  0.00    +0.000 A 
ATOM     19  C   UNL     1      45.587   5.177   9.668  0.00  0.00    +0.000 A 
ATOM     20  C   UNL     1      44.956   4.069  10.244  0.00  0.00    +0.000 A 
ATOM     21  C   UNL     1      44.787   4.030  11.635  0.00  0.00    +0.000 A 
ATOM     22  C   UNL     1      45.224   5.091  12.432  0.00  0.00    +0.000 A 
BRANCH  20  23
ATOM     23  C   UNL     1      44.455   2.941   9.379  0.00  0.00    +0.000 C 
BRANCH  23  24
ATOM     24  O   UNL     1      45.515   2.023   9.119  0.00  0.00    +0.000 OA
BRANCH  24  25
ATOM     25  C   UNL     1      46.172   2.183   7.931  0.00  0.00    +0.000 A 
ATOM     26  C   UNL     1      45.979   3.214   7.013  0.00  0.00    +0.000 A 
ATOM     27  C   UNL     1      46.730   3.247   5.840  0.00  0.00    +0.000 A 
ATOM     28  C   UNL     1      47.657   2.243   5.621  0.00  0.00    +0.000 A 
ATOM     29  N   UNL     1      47.873   1.226   6.480  0.00  0.00    +0.000 NA
ATOM     30  C   UNL     1      47.126   1.222   7.612  0.00  0.00    +0.000 A 
ENDBRANCH  24  25
ENDBRANCH  23  24
ENDBRANCH  20  23
ENDBRANCH  16  17
ENDBRANCH   3  16
TORSDOF 6
ENDMDL
MODEL 2
REMARK VINA RESULT:    -8.338      1.161      1.540
REMARK INTER + INTRA:         -12.056
REMARK INTER:                 -11.034
REMARK INTRA:                  -1.022
REMARK UNBOUND:                -0.793
REMARK  Name = 
REMARK  6 active torsions:
REMARK  status: ('A' for Active; 'I' for Inactive)
REMARK    1  A    between atoms: C_2  and  C_19
REMARK    2  A    between atoms: N_3  and  C_4
REMARK    3  A    between atoms: C_4  and  C_5
REMARK    4  A    between atoms: C_8  and  C_9
REMARK    5  A    between atoms: C_9  and  O_10
REMARK    6  A    between atoms: O_10  and  C_11
REMARK                            x       y       z     vdW  Elec       q    Type
REMARK                         _______ _______ _______ _____ _____    ______ ____
ROOT
ATOM      1  O   UNL     1      49.816   6.933  14.446  0.00  0.00    +0.000 OA
ATOM      2  C   UNL     1      48.832   6.697  15.142  0.00  0.00    +0.000 C 
ATOM      3  N   UNL     1      47.555   6.738  14.648  0.00  0.00    +0.000 N 
ATOM      4  H   UNL     1      46.775   6.722  15.296  0.00  0.00    +0.000 HD
ENDROOT
BRANCH   2   5
ATOM      5  C   UNL     1      48.970   6.296  16.548  0.00  0.00    +0.000 A 
ATOM      6  C   UNL     1      49.459   7.205  17.476  0.00  0.00    +0.000 A 
ATOM      7  S   UNL     1      49.572   6.575  19.057  0.00  0.00    +0.000 S 
ATOM      8  C   UNL     1      48.928   5.079  18.565  0.00  0.00    +0.000 A 
ATOM      9  N   UNL     1      48.726   4.077  19.464  0.00  0.00    +0.000 NA
ATOM     10  C   UNL     1      48.187   3.015  18.965  0.00  0.00    +0.000 A 
ATOM     11  N   UNL     1      47.844   2.860  17.647  0.00  0.00    +0.000 N 
ATOM     12  C   UNL     1      48.099   3.813  16.692  0.00  0.00    +0.000 A 
ATOM     13  O   UNL     1      47.901   3.589  15.503  0.00  0.00    +0.000 OA
ATOM     14  C   UNL     1      48.658   5.050  17.209  0.00  0.00    +0.000 A 
ATOM     15  H   UNL     1      47.454   1.991  17.314  0.00  0.00    +0.000 HD
ENDBRANCH   2   5
BRANCH   3  16
ATOM     16  C   UNL     1      47.254   7.184  13.312  0.00  0.00    +0.000 C 
BRANCH  16  17
ATOM     17  C   UNL     1      46.421   6.169  12.574  0.00  0.00    +0.000 A 
ATOM     18  C   UNL     1      46.297   4.867  13.074  0.00  0.00    +0.000 A 
ATOM     19  C   UNL     1      45.534   3.916  12.393  0.00  0.00    +0.000 A 
ATOM     20  C   UNL     1      44.900   4.243  11.189  0.00  0.00    +0.000 A 
ATOM     21  C   UNL     1      45.027   5.544  10.686  0.00  0.00    +0.000 A 
ATOM     22  C   UNL     1      45.791   6.496  11.367  0.00  0.00    +0.000 A 
BRANCH  20  23
ATOM     23  C   UNL     1      44.104   3.205  10.439  0.00  0.00    +0.000 C 
BRANCH  23  24
ATOM     24  O   UNL     1      44.193   3.448   9.036  0.00  0.00    +0.000 OA
BRANCH  24  25
ATOM     25  C   UNL     1      45.247   2.866   8.390  0.00  0.00    +0.000 A 
ATOM     26  C   UNL     1      46.129   3.496   7.514  0.00  0.00    +0.000 A 
ATOM     27  C   UNL     1      47.164   2.767   6.931  0.00  0.00    +0.000 A 
ATOM     28  C   UNL     1      47.285   1.425   7.243  0.00  0.00    +0.000 A 
ATOM     29  N   UNL     1      46.451   0.775   8.082  0.00  0.00    +0.000 NA
ATOM     30  C   UNL     1      45.454   1.512   8.633  0.00  0.00    +0.000 A 
ENDBRANCH  24  25
ENDBRANCH  23  24
ENDBRANCH  20  23
ENDBRANCH  16  17
ENDBRANCH   3  16
TORSDOF 6
ENDMDL
MODEL 3
REMARK VINA RESULT:    -8.244      1.582      2.284
REMARK INTER + INTRA:         -11.929
REMARK INTER:                 -11.109
REMARK INTRA:                  -0.820
REMARK UNBOUND:                -0.793
REMARK  Name = 
REMARK  6 active torsions:
REMARK  status: ('A' for Active; 'I' for Inactive)
REMARK    1  A    between atoms: C_2  and  C_19
REMARK    2  A    between atoms: N_3  and  C_4
REMARK    3  A    between atoms: C_4  and  C_5
REMARK    4  A    between atoms: C_8  and  C_9
REMARK    5  A    between atoms: C_9  and  O_10
REMARK    6  A    between atoms: O_10  and  C_11
REMARK                            x       y       z     vdW  Elec       q    Type
REMARK                         _______ _______ _______ _____ _____    ______ ____
ROOT
ATOM      1  O   UNL     1      48.672   6.202  14.351  0.00  0.00    +0.000 OA
ATOM      2  C   UNL     1      47.749   5.641  14.934  0.00  0.00    +0.000 C 
ATOM      3  N   UNL     1      46.486   5.563  14.408  0.00  0.00    +0.000 N 
ATOM      4  H   UNL     1      45.721   5.260  15.002  0.00  0.00    +0.000 HD
ENDROOT
BRANCH   2   5
ATOM      5  C   UNL     1      47.956   4.963  16.221  0.00  0.00    +0.000 A 
ATOM      6  C   UNL     1      47.741   3.595  16.319  0.00  0.00    +0.000 A 
ATOM      7  S   UNL     1      48.009   2.971  17.883  0.00  0.00    +0.000 S 
ATOM      8  C   UNL     1      48.466   4.500  18.473  0.00  0.00    +0.000 A 
ATOM      9  N   UNL     1      48.859   4.659  19.767  0.00  0.00    +0.000 NA
ATOM     10  C   UNL     1      49.225   5.860  20.069  0.00  0.00    +0.000 A 
ATOM     11  N   UNL     1      49.222   6.918  19.197  0.00  0.00    +0.000 N 
ATOM     12  C   UNL     1      48.763   6.821  17.906  0.00  0.00    +0.000 A 
ATOM     13  O   UNL     1      48.651   7.815  17.196  0.00  0.00    +0.000 OA
ATOM     14  C   UNL     1      48.388   5.478  17.499  0.00  0.00    +0.000 A 
ATOM     15  H   UNL     1      49.491   7.841  19.504  0.00  0.00    +0.000 HD
ENDBRANCH   2   5
BRANCH   3  16
ATOM     16  C   UNL     1      46.108   6.239  13.193  0.00  0.00    +0.000 C 
BRANCH  16  17
ATOM     17  C   UNL     1      45.656   5.258  12.144  0.00  0.00    +0.000 A 
ATOM     18  C   UNL     1      45.481   3.908  12.472  0.00  0.00    +0.000 A 
ATOM     19  C   UNL     1      45.070   2.990  11.504  0.00  0.00    +0.000 A 
ATOM     20  C   UNL     1      44.848   3.400  10.184  0.00  0.00    +0.000 A 
ATOM     21  C   UNL     1      45.026   4.750   9.853  0.00  0.00    +0.000 A 
ATOM     22  C   UNL     1      45.438   5.668  10.822  0.00  0.00    +0.000 A 
BRANCH  20  23
ATOM     23  C   UNL     1      44.437   2.400   9.134  0.00  0.00    +0.000 C 
BRANCH  23  24
ATOM     24  O   UNL     1      45.546   1.569   8.796  0.00  0.00    +0.000 OA
BRANCH  24  25
ATOM     25  C   UNL     1      46.266   1.945   7.696  0.00  0.00    +0.000 A 
ATOM     26  C   UNL     1      46.015   3.049   6.882  0.00  0.00    +0.000 A 
ATOM     27  C   UNL     1      46.843   3.307   5.792  0.00  0.00    +0.000 A 
ATOM     28  C   UNL     1      47.903   2.451   5.549  0.00  0.00    +0.000 A 
ATOM     29  N   UNL     1      48.179   1.370   6.308  0.00  0.00    +0.000 NA
ATOM     30  C   UNL     1      47.354   1.145   7.361  0.00  0.00    +0.000 A 
ENDBRANCH  24  25
ENDBRANCH  23  24
ENDBRANCH  20  23
ENDBRANCH  16  17
ENDBRANCH   3  16
TORSDOF 6
ENDMDL
MODEL 4
REMARK VINA RESULT:    -7.459      2.249      3.783
REMARK INTER + INTRA:         -10.869
REMARK INTER:                  -9.875
REMARK INTRA:                  -0.994
REMARK UNBOUND:                -0.793
REMARK  Name = 
REMARK  6 active torsions:
REMARK  status: ('A' for Active; 'I' for Inactive)
REMARK    1  A    between atoms: C_2  and  C_19
REMARK    2  A    between atoms: N_3  and  C_4
REMARK    3  A    between atoms: C_4  and  C_5
REMARK    4  A    between atoms: C_8  and  C_9
REMARK    5  A    between atoms: C_9  and  O_10
REMARK    6  A    between atoms: O_10  and  C_11
REMARK                            x       y       z     vdW  Elec       q    Type
REMARK                         _______ _______ _______ _____ _____    ______ ____
ROOT
ATOM      1  O   UNL     1      48.589   5.544  16.697  0.00  0.00    +0.000 OA
ATOM      2  C   UNL     1      48.642   6.186  15.652  0.00  0.00    +0.000 C 
ATOM      3  N   UNL     1      47.814   5.933  14.590  0.00  0.00    +0.000 N 
ATOM      4  H   UNL     1      48.018   6.357  13.692  0.00  0.00    +0.000 HD
ENDROOT
BRANCH   2   5
ATOM      5  C   UNL     1      49.571   7.312  15.493  0.00  0.00    +0.000 A 
ATOM      6  C   UNL     1      50.890   7.177  15.905  0.00  0.00    +0.000 A 
ATOM      7  S   UNL     1      51.828   8.582  15.668  0.00  0.00    +0.000 S 
ATOM      8  C   UNL     1      50.514   9.405  14.965  0.00  0.00    +0.000 A 
ATOM      9  N   UNL     1      50.656  10.677  14.500  0.00  0.00    +0.000 NA
ATOM     10  C   UNL     1      49.595  11.164  13.948  0.00  0.00    +0.000 A 
ATOM     11  N   UNL     1      48.402  10.498  13.830  0.00  0.00    +0.000 N 
ATOM     12  C   UNL     1      48.191   9.245  14.352  0.00  0.00    +0.000 A 
ATOM     13  O   UNL     1      47.076   8.734  14.345  0.00  0.00    +0.000 OA
ATOM     14  C   UNL     1      49.369   8.631  14.938  0.00  0.00    +0.000 A 
ATOM     15  H   UNL     1      47.599  10.947  13.415  0.00  0.00    +0.000 HD
ENDBRANCH   2   5
BRANCH   3  16
ATOM     16  C   UNL     1      46.902   4.817  14.565  0.00  0.00    +0.000 C 
BRANCH  16  17
ATOM     17  C   UNL     1      46.214   4.707  13.230  0.00  0.00    +0.000 A 
ATOM     18  C   UNL     1      45.607   3.504  12.850  0.00  0.00    +0.000 A 
ATOM     19  C   UNL     1      44.974   3.390  11.611  0.00  0.00    +0.000 A 
ATOM     20  C   UNL     1      44.955   4.469  10.720  0.00  0.00    +0.000 A 
ATOM     21  C   UNL     1      45.565   5.673  11.098  0.00  0.00    +0.000 A 
ATOM     22  C   UNL     1      46.199   5.787  12.338  0.00  0.00    +0.000 A 
BRANCH  20  23
ATOM     23  C   UNL     1      44.299   4.332   9.369  0.00  0.00    +0.000 C 
BRANCH  23  24
ATOM     24  O   UNL     1      44.349   2.972   8.943  0.00  0.00    +0.000 OA
BRANCH  24  25
ATOM     25  C   UNL     1      45.448   2.610   8.216  0.00  0.00    +0.000 A 
ATOM     26  C   UNL     1      46.157   3.420   7.331  0.00  0.00    +0.000 A 
ATOM     27  C   UNL     1      47.265   2.908   6.660  0.00  0.00    +0.000 A 
ATOM     28  C   UNL     1      47.634   1.595   6.897  0.00  0.00    +0.000 A 
ATOM     29  N   UNL     1      46.974   0.776   7.742  0.00  0.00    +0.000 NA
ATOM     30  C   UNL     1      45.899   1.304   8.379  0.00  0.00    +0.000 A 
ENDBRANCH  24  25
ENDBRANCH  23  24
ENDBRANCH  20  23
ENDBRANCH  16  17
ENDBRANCH   3  16
TORSDOF 6
ENDMDL
MODEL 5
REMARK VINA RESULT:    -7.173      3.502      8.180
REMARK INTER + INTRA:         -10.482
REMARK INTER:                  -9.496
REMARK INTRA:                  -0.985
REMARK UNBOUND:                -0.793
REMARK  Name = 
REMARK  6 active torsions:
REMARK  status: ('A' for Active; 'I' for Inactive)
REMARK    1  A    between atoms: C_2  and  C_19
REMARK    2  A    between atoms: N_3  and  C_4
REMARK    3  A    between atoms: C_4  and  C_5
REMARK    4  A    between atoms: C_8  and  C_9
REMARK    5  A    between atoms: C_9  and  O_10
REMARK    6  A    between atoms: O_10  and  C_11
REMARK                            x       y       z     vdW  Elec       q    Type
REMARK                         _______ _______ _______ _____ _____    ______ ____
ROOT
ATOM      1  O   UNL     1      45.745   7.873  11.789  0.00  0.00    +0.000 OA
ATOM      2  C   UNL     1      46.371   6.853  11.514  0.00  0.00    +0.000 C 
ATOM      3  N   UNL     1      47.687   6.682  11.858  0.00  0.00    +0.000 N 
ATOM      4  H   UNL     1      48.208   5.914  11.450  0.00  0.00    +0.000 HD
ENDROOT
BRANCH   2   5
ATOM      5  C   UNL     1      45.726   5.719  10.840  0.00  0.00    +0.000 A 
ATOM      6  C   UNL     1      45.901   5.542   9.474  0.00  0.00    +0.000 A 
ATOM      7  S   UNL     1      45.071   4.190   8.848  0.00  0.00    +0.000 S 
ATOM      8  C   UNL     1      44.485   3.768  10.389  0.00  0.00    +0.000 A 
ATOM      9  N   UNL     1      43.715   2.659  10.562  0.00  0.00    +0.000 NA
ATOM     10  C   UNL     1      43.380   2.430  11.788  0.00  0.00    +0.000 A 
ATOM     11  N   UNL     1      43.735   3.216  12.854  0.00  0.00    +0.000 N 
ATOM     12  C   UNL     1      44.445   4.384  12.716  0.00  0.00    +0.000 A 
ATOM     13  O   UNL     1      44.631   5.130  13.672  0.00  0.00    +0.000 OA
ATOM     14  C   UNL     1      44.892   4.661  11.363  0.00  0.00    +0.000 A 
ATOM     15  H   UNL     1      43.413   2.999  13.786  0.00  0.00    +0.000 HD
ENDBRANCH   2   5
BRANCH   3  16
ATOM     16  C   UNL     1      48.475   7.730  12.456  0.00  0.00    +0.000 C 
BRANCH  16  17
ATOM     17  C   UNL     1      49.012   7.308  13.797  0.00  0.00    +0.000 A 
ATOM     18  C   UNL     1      48.241   6.498  14.640  0.00  0.00    +0.000 A 
ATOM     19  C   UNL     1      48.728   6.108  15.890  0.00  0.00    +0.000 A 
ATOM     20  C   UNL     1      49.985   6.539  16.329  0.00  0.00    +0.000 A 
ATOM     21  C   UNL     1      50.756   7.352  15.488  0.00  0.00    +0.000 A 
ATOM     22  C   UNL     1      50.269   7.743  14.238  0.00  0.00    +0.000 A 
BRANCH  20  23
ATOM     23  C   UNL     1      50.494   6.144  17.692  0.00  0.00    +0.000 C 
BRANCH  23  24
ATOM     24  O   UNL     1      49.878   4.924  18.103  0.00  0.00    +0.000 OA
BRANCH  24  25
ATOM     25  C   UNL     1      50.613   3.787  17.918  0.00  0.00    +0.000 A 
ATOM     26  C   UNL     1      51.955   3.608  18.249  0.00  0.00    +0.000 A 
ATOM     27  C   UNL     1      52.571   2.383  18.002  0.00  0.00    +0.000 A 
ATOM     28  C   UNL     1      51.822   1.369  17.429  0.00  0.00    +0.000 A 
ATOM     29  N   UNL     1      50.523   1.501  17.091  0.00  0.00    +0.000 NA
ATOM     30  C   UNL     1      49.952   2.706  17.343  0.00  0.00    +0.000 A 
ENDBRANCH  24  25
ENDBRANCH  23  24
ENDBRANCH  20  23
ENDBRANCH  16  17
ENDBRANCH   3  16
TORSDOF 6
ENDMDL
MODEL 6
REMARK VINA RESULT:    -6.592      1.953      2.744
REMARK INTER + INTRA:          -9.697
REMARK INTER:                  -8.875
REMARK INTRA:                  -0.822
REMARK UNBOUND:                -0.793
REMARK  Name = 
REMARK  6 active torsions:
REMARK  status: ('A' for Active; 'I' for Inactive)
REMARK    1  A    between atoms: C_2  and  C_19
REMARK    2  A    between atoms: N_3  and  C_4
REMARK    3  A    between atoms: C_4  and  C_5
REMARK    4  A    between atoms: C_8  and  C_9
REMARK    5  A    between atoms: C_9  and  O_10
REMARK    6  A    between atoms: O_10  and  C_11
REMARK                            x       y       z     vdW  Elec       q    Type
REMARK                         _______ _______ _______ _____ _____    ______ ____
ROOT
ATOM      1  O   UNL     1      47.974   9.169  16.472  0.00  0.00    +0.000 OA
ATOM      2  C   UNL     1      48.632   8.132  16.465  0.00  0.00    +0.000 C 
ATOM      3  N   UNL     1      48.928   7.456  15.311  0.00  0.00    +0.000 N 
ATOM      4  H   UNL     1      49.307   6.518  15.372  0.00  0.00    +0.000 HD
ENDROOT
BRANCH   2   5
ATOM      5  C   UNL     1      49.196   7.578  17.702  0.00  0.00    +0.000 A 
ATOM      6  C   UNL     1      50.141   8.306  18.413  0.00  0.00    +0.000 A 
ATOM      7  S   UNL     1      50.706   7.512  19.812  0.00  0.00    +0.000 S 
ATOM      8  C   UNL     1      49.674   6.185  19.541  0.00  0.00    +0.000 A 
ATOM      9  N   UNL     1      49.638   5.141  20.414  0.00  0.00    +0.000 NA
ATOM     10  C   UNL     1      48.777   4.226  20.113  0.00  0.00    +0.000 A 
ATOM     11  N   UNL     1      47.959   4.257  19.014  0.00  0.00    +0.000 N 
ATOM     12  C   UNL     1      48.014   5.251  18.069  0.00  0.00    +0.000 A 
ATOM     13  O   UNL     1      47.363   5.179  17.032  0.00  0.00    +0.000 OA
ATOM     14  C   UNL     1      48.931   6.333  18.385  0.00  0.00    +0.000 A 
ATOM     15  H   UNL     1      47.328   3.493  18.819  0.00  0.00    +0.000 HD
ENDBRANCH   2   5
BRANCH   3  16
ATOM     16  C   UNL     1      48.386   7.833  14.030  0.00  0.00    +0.000 C 
BRANCH  16  17
ATOM     17  C   UNL     1      47.473   6.765  13.490  0.00  0.00    +0.000 A 
ATOM     18  C   UNL     1      46.606   7.052  12.429  0.00  0.00    +0.000 A 
ATOM     19  C   UNL     1      45.750   6.070  11.926  0.00  0.00    +0.000 A 
ATOM     20  C   UNL     1      45.729   4.789  12.490  0.00  0.00    +0.000 A 
ATOM     21  C   UNL     1      46.594   4.501  13.554  0.00  0.00    +0.000 A 
ATOM     22  C   UNL     1      47.450   5.484  14.057  0.00  0.00    +0.000 A 
BRANCH  20  23
ATOM     23  C   UNL     1      44.780   3.741  11.967  0.00  0.00    +0.000 C 
BRANCH  23  24
ATOM     24  O   UNL     1      44.303   4.120  10.677  0.00  0.00    +0.000 OA
BRANCH  24  25
ATOM     25  C   UNL     1      44.958   3.573   9.609  0.00  0.00    +0.000 A 
ATOM     26  C   UNL     1      45.209   2.218   9.400  0.00  0.00    +0.000 A 
ATOM     27  C   UNL     1      45.890   1.809   8.255  0.00  0.00    +0.000 A 
ATOM     28  C   UNL     1      46.300   2.772   7.350  0.00  0.00    +0.000 A 
ATOM     29  N   UNL     1      46.081   4.093   7.515  0.00  0.00    +0.000 NA
ATOM     30  C   UNL     1      45.417   4.459   8.640  0.00  0.00    +0.000 A 
ENDBRANCH  24  25
ENDBRANCH  23  24
ENDBRANCH  20  23
ENDBRANCH  16  17
ENDBRANCH   3  16
TORSDOF 6
ENDMDL
MODEL 7
REMARK VINA RESULT:    -6.201      3.960      5.508
REMARK INTER + INTRA:          -9.169
REMARK INTER:                  -8.219
REMARK INTRA:                  -0.950
REMARK UNBOUND:                -0.793
REMARK  Name = 
REMARK  6 active torsions:
REMARK  status: ('A' for Active; 'I' for Inactive)
REMARK    1  A    between atoms: C_2  and  C_19
REMARK    2  A    between atoms: N_3  and  C_4
REMARK    3  A    between atoms: C_4  and  C_5
REMARK    4  A    between atoms: C_8  and  C_9
REMARK    5  A    between atoms: C_9  and  O_10
REMARK    6  A    between atoms: O_10  and  C_11
REMARK                            x       y       z     vdW  Elec       q    Type
REMARK                         _______ _______ _______ _____ _____    ______ ____
ROOT
ATOM      1  O   UNL     1      50.802   6.352  18.815  0.00  0.00    +0.000 OA
ATOM      2  C   UNL     1      51.594   5.924  17.980  0.00  0.00    +0.000 C 
ATOM      3  N   UNL     1      51.822   6.562  16.788  0.00  0.00    +0.000 N 
ATOM      4  H   UNL     1      52.336   6.078  16.060  0.00  0.00    +0.000 HD
ENDROOT
BRANCH   2   5
ATOM      5  C   UNL     1      52.396   4.720  18.233  0.00  0.00    +0.000 A 
ATOM      6  C   UNL     1      53.648   4.840  18.819  0.00  0.00    +0.000 A 
ATOM      7  S   UNL     1      54.452   3.350  19.026  0.00  0.00    +0.000 S 
ATOM      8  C   UNL     1      53.135   2.488  18.379  0.00  0.00    +0.000 A 
ATOM      9  N   UNL     1      53.162   1.129  18.299  0.00  0.00    +0.000 NA
ATOM     10  C   UNL     1      52.079   0.602  17.834  0.00  0.00    +0.000 A 
ATOM     11  N   UNL     1      50.978   1.310  17.431  0.00  0.00    +0.000 N 
ATOM     12  C   UNL     1      50.934   2.683  17.422  0.00  0.00    +0.000 A 
ATOM     13  O   UNL     1      49.985   3.285  16.931  0.00  0.00    +0.000 OA
ATOM     14  C   UNL     1      52.109   3.326  17.984  0.00  0.00    +0.000 A 
ATOM     15  H   UNL     1      50.172   0.838  17.046  0.00  0.00    +0.000 HD
ENDBRANCH   2   5
BRANCH   3  16
ATOM     16  C   UNL     1      51.062   7.710  16.365  0.00  0.00    +0.000 C 
BRANCH  16  17
ATOM     17  C   UNL     1      50.046   7.334  15.319  0.00  0.00    +0.000 A 
ATOM     18  C   UNL     1      50.213   7.756  13.994  0.00  0.00    +0.000 A 
ATOM     19  C   UNL     1      49.272   7.419  13.019  0.00  0.00    +0.000 A 
ATOM     20  C   UNL     1      48.136   6.674  13.355  0.00  0.00    +0.000 A 
ATOM     21  C   UNL     1      47.966   6.254  14.681  0.00  0.00    +0.000 A 
ATOM     22  C   UNL     1      48.907   6.592  15.657  0.00  0.00    +0.000 A 
BRANCH  20  23
ATOM     23  C   UNL     1      47.105   6.340  12.307  0.00  0.00    +0.000 C 
BRANCH  23  24
ATOM     24  O   UNL     1      45.803   6.342  12.890  0.00  0.00    +0.000 OA
BRANCH  24  25
ATOM     25  C   UNL     1      44.963   5.341  12.490  0.00  0.00    +0.000 A 
ATOM     26  C   UNL     1      43.807   5.488  11.725  0.00  0.00    +0.000 A 
ATOM     27  C   UNL     1      43.050   4.367  11.391  0.00  0.00    +0.000 A 
ATOM     28  C   UNL     1      43.475   3.126  11.834  0.00  0.00    +0.000 A 
ATOM     29  N   UNL     1      44.584   2.940  12.579  0.00  0.00    +0.000 NA
ATOM     30  C   UNL     1      45.299   4.050  12.888  0.00  0.00    +0.000 A 
ENDBRANCH  24  25
ENDBRANCH  23  24
ENDBRANCH  20  23
ENDBRANCH  16  17
ENDBRANCH   3  16
TORSDOF 6
ENDMDL
