MODEL 1
REMARK VINA RESULT:    -8.596      0.000      0.000
REMARK INTER + INTRA:         -11.976
REMARK INTER:                 -11.108
REMARK INTRA:                  -0.867
REMARK UNBOUND:                -0.867
REMARK  Name = 
REMARK  5 active torsions:
REMARK  status: ('A' for Active; 'I' for Inactive)
REMARK    1  A    between atoms: C_2  and  C_4
REMARK    2  A    between atoms: C_7  and  N_8
REMARK    3  A    between atoms: N_8  and  C_9
REMARK    4  A    between atoms: C_9  and  C_10
REMARK    5  A    between atoms: C_14  and  N_15
REMARK                            x       y       z     vdW  Elec       q    Type
REMARK                         _______ _______ _______ _____ _____    ______ ____
ROOT
ATOM      1  N   UNL     1      43.766   4.935   9.876  0.00  0.00    +0.000 N 
ATOM      2  H   UNL     1      42.921   5.166   9.357  0.00  0.00    +0.000 HD
ENDROOT
BRANCH   1   6
ATOM      3  C   UNL     1      46.331   2.235   7.882  0.00  0.00    +0.000 A 
ATOM      4  C   UNL     1      45.388   1.746   8.787  0.00  0.00    +0.000 A 
ATOM      5  C   UNL     1      44.526   2.628   9.448  0.00  0.00    +0.000 A 
ATOM      6  C   UNL     1      44.560   4.006   9.198  0.00  0.00    +0.000 A 
ATOM      7  C   UNL     1      45.528   4.482   8.303  0.00  0.00    +0.000 A 
ATOM      8  C   UNL     1      46.412   3.610   7.654  0.00  0.00    +0.000 A 
BRANCH   3  10
ATOM      9  N   UNL     1      48.319   1.915   6.515  0.00  0.00    +0.000 N 
ATOM     10  C   UNL     1      47.274   1.330   7.178  0.00  0.00    +0.000 C 
ATOM     11  O   UNL     1      47.151   0.113   7.217  0.00  0.00    +0.000 OA
ATOM     12  H   UNL     1      49.012   1.288   6.129  0.00  0.00    +0.000 HD
ATOM     13  H   UNL     1      48.591   2.874   6.676  0.00  0.00    +0.000 HD
ENDBRANCH   3  10
ENDBRANCH   1   6
BRANCH   1  14
ATOM     14  C   UNL     1      43.555   4.795  11.311  0.00  0.00    +0.000 C 
BRANCH  14  15
ATOM     15  C   UNL     1      44.784   5.142  12.106  0.00  0.00    +0.000 A 
ATOM     16  C   UNL     1      45.082   4.402  13.248  0.00  0.00    +0.000 A 
ATOM     17  N   UNL     1      46.175   4.590  14.010  0.00  0.00    +0.000 NA
ATOM     18  C   UNL     1      47.018   5.568  13.606  0.00  0.00    +0.000 A 
ATOM     19  C   UNL     1      46.846   6.380  12.476  0.00  0.00    +0.000 A 
ATOM     20  C   UNL     1      45.706   6.124  11.712  0.00  0.00    +0.000 A 
BRANCH  19  21
ATOM     21  N   UNL     1      47.785   7.369  12.178  0.00  0.00    +0.000 N 
ATOM     22  C   UNL     1      47.483   8.762  12.522  0.00  0.00    +0.000 C 
ATOM     23  C   UNL     1      48.397   9.672  11.696  0.00  0.00    +0.000 C 
ATOM     24  C   UNL     1      49.872   9.314  11.878  0.00  0.00    +0.000 C 
ATOM     25  C   UNL     1      50.119   7.821  11.658  0.00  0.00    +0.000 C 
ATOM     26  C   UNL     1      49.167   6.972  12.495  0.00  0.00    +0.000 C 
ENDBRANCH  19  21
ENDBRANCH  14  15
ENDBRANCH   1  14
TORSDOF 5
ENDMDL
MODEL 2
REMARK VINA RESULT:    -8.373      1.037      1.216
REMARK INTER + INTRA:         -11.688
REMARK INTER:                 -10.839
REMARK INTRA:                  -0.848
REMARK UNBOUND:                -0.867
REMARK  Name = 
REMARK  5 active torsions:
REMARK  status: ('A' for Active; 'I' for Inactive)
REMARK    1  A    between atoms: C_2  and  C_4
REMARK    2  A    between atoms: C_7  and  N_8
REMARK    3  A    between atoms: N_8  and  C_9
REMARK    4  A    between atoms: C_9  and  C_10
REMARK    5  A    between atoms: C_14  and  N_15
REMARK                            x       y       z     vdW  Elec       q    Type
REMARK                         _______ _______ _______ _____ _____    ______ ____
ROOT
ATOM      1  N   UNL     1      43.648   4.032  10.275  0.00  0.00    +0.000 N 
ATOM      2  H   UNL     1      43.301   3.318  10.913  0.00  0.00    +0.000 HD
ENDROOT
BRANCH   1   6
ATOM      3  C   UNL     1      46.553   2.598   7.564  0.00  0.00    +0.000 A 
ATOM      4  C   UNL     1      45.884   1.698   8.394  0.00  0.00    +0.000 A 
ATOM      5  C   UNL     1      44.912   2.157   9.289  0.00  0.00    +0.000 A 
ATOM      6  C   UNL     1      44.564   3.513   9.356  0.00  0.00    +0.000 A 
ATOM      7  C   UNL     1      45.263   4.406   8.532  0.00  0.00    +0.000 A 
ATOM      8  C   UNL     1      46.254   3.959   7.648  0.00  0.00    +0.000 A 
BRANCH   3  10
ATOM      9  N   UNL     1      47.801   2.911   5.498  0.00  0.00    +0.000 N 
ATOM     10  C   UNL     1      47.604   2.147   6.616  0.00  0.00    +0.000 C 
ATOM     11  O   UNL     1      48.291   1.159   6.837  0.00  0.00    +0.000 OA
ATOM     12  H   UNL     1      48.586   2.656   4.914  0.00  0.00    +0.000 HD
ATOM     13  H   UNL     1      47.441   3.851   5.416  0.00  0.00    +0.000 HD
ENDBRANCH   3  10
ENDBRANCH   1   6
BRANCH   1  14
ATOM     14  C   UNL     1      43.913   5.315  10.914  0.00  0.00    +0.000 C 
BRANCH  14  15
ATOM     15  C   UNL     1      45.015   5.229  11.933  0.00  0.00    +0.000 A 
ATOM     16  C   UNL     1      44.949   4.249  12.920  0.00  0.00    +0.000 A 
ATOM     17  N   UNL     1      45.896   4.047  13.855  0.00  0.00    +0.000 NA
ATOM     18  C   UNL     1      46.970   4.867  13.796  0.00  0.00    +0.000 A 
ATOM     19  C   UNL     1      47.170   5.886  12.854  0.00  0.00    +0.000 A 
ATOM     20  C   UNL     1      46.165   6.033  11.896  0.00  0.00    +0.000 A 
BRANCH  19  21
ATOM     21  N   UNL     1      48.320   6.676  12.914  0.00  0.00    +0.000 N 
ATOM     22  C   UNL     1      48.539   7.689  11.878  0.00  0.00    +0.000 C 
ATOM     23  C   UNL     1      50.024   8.067  11.879  0.00  0.00    +0.000 C 
ATOM     24  C   UNL     1      50.498   8.509  13.264  0.00  0.00    +0.000 C 
ATOM     25  C   UNL     1      50.115   7.492  14.340  0.00  0.00    +0.000 C 
ATOM     26  C   UNL     1      48.630   7.147  14.274  0.00  0.00    +0.000 C 
ENDBRANCH  19  21
ENDBRANCH  14  15
ENDBRANCH   1  14
TORSDOF 5
ENDMDL
MODEL 3
REMARK VINA RESULT:    -8.287      1.750      3.343
REMARK INTER + INTRA:         -11.577
REMARK INTER:                 -10.925
REMARK INTRA:                  -0.651
REMARK UNBOUND:                -0.867
REMARK  Name = 
REMARK  5 active torsions:
REMARK  status: ('A' for Active; 'I' for Inactive)
REMARK    1  A    between atoms: C_2  and  C_4
REMARK    2  A    between atoms: C_7  and  N_8
REMARK    3  A    between atoms: N_8  and  C_9
REMARK    4  A    between atoms: C_9  and  C_10
REMARK    5  A    between atoms: C_14  and  N_15
REMARK                            x       y       z     vdW  Elec       q    Type
REMARK                         _______ _______ _______ _____ _____    ______ ____
ROOT
ATOM      1  N   UNL     1      43.886   4.906  10.004  0.00  0.00    +0.000 N 
ATOM      2  H   UNL     1      42.977   5.075   9.578  0.00  0.00    +0.000 HD
ENDROOT
BRANCH   1   6
ATOM      3  C   UNL     1      46.353   2.250   7.835  0.00  0.00    +0.000 A 
ATOM      4  C   UNL     1      45.472   1.744   8.792  0.00  0.00    +0.000 A 
ATOM      5  C   UNL     1      44.643   2.611   9.511  0.00  0.00    +0.000 A 
ATOM      6  C   UNL     1      44.647   3.991   9.271  0.00  0.00    +0.000 A 
ATOM      7  C   UNL     1      45.554   4.485   8.323  0.00  0.00    +0.000 A 
ATOM      8  C   UNL     1      46.406   3.628   7.614  0.00  0.00    +0.000 A 
BRANCH   3  10
ATOM      9  N   UNL     1      48.314   1.953   6.425  0.00  0.00    +0.000 N 
ATOM     10  C   UNL     1      47.261   1.361   7.068  0.00  0.00    +0.000 C 
ATOM     11  O   UNL     1      47.102   0.148   7.037  0.00  0.00    +0.000 OA
ATOM     12  H   UNL     1      48.985   1.330   5.995  0.00  0.00    +0.000 HD
ATOM     13  H   UNL     1      48.616   2.893   6.638  0.00  0.00    +0.000 HD
ENDBRANCH   3  10
ENDBRANCH   1   6
BRANCH   1  14
ATOM     14  C   UNL     1      43.846   4.813  11.458  0.00  0.00    +0.000 C 
BRANCH  14  15
ATOM     15  C   UNL     1      45.131   5.265  12.096  0.00  0.00    +0.000 A 
ATOM     16  C   UNL     1      45.891   6.246  11.464  0.00  0.00    +0.000 A 
ATOM     17  N   UNL     1      47.031   6.761  11.960  0.00  0.00    +0.000 NA
ATOM     18  C   UNL     1      47.430   6.272  13.157  0.00  0.00    +0.000 A 
ATOM     19  C   UNL     1      46.759   5.294  13.905  0.00  0.00    +0.000 A 
ATOM     20  C   UNL     1      45.571   4.814  13.349  0.00  0.00    +0.000 A 
BRANCH  19  21
ATOM     21  N   UNL     1      47.288   4.862  15.123  0.00  0.00    +0.000 N 
ATOM     22  C   UNL     1      47.585   3.438  15.302  0.00  0.00    +0.000 C 
ATOM     23  C   UNL     1      47.685   3.151  16.803  0.00  0.00    +0.000 C 
ATOM     24  C   UNL     1      48.695   4.069  17.493  0.00  0.00    +0.000 C 
ATOM     25  C   UNL     1      48.440   5.539  17.156  0.00  0.00    +0.000 C 
ATOM     26  C   UNL     1      48.335   5.753  15.649  0.00  0.00    +0.000 C 
ENDBRANCH  19  21
ENDBRANCH  14  15
ENDBRANCH   1  14
TORSDOF 5
ENDMDL
MODEL 4
REMARK VINA RESULT:    -7.671      2.813      6.633
REMARK INTER + INTRA:         -10.781
REMARK INTER:                  -9.898
REMARK INTRA:                  -0.883
REMARK UNBOUND:                -0.867
REMARK  Name = 
REMARK  5 active torsions:
REMARK  status: ('A' for Active; 'I' for Inactive)
REMARK    1  A    between atoms: C_2  and  C_4
REMARK    2  A    between atoms: C_7  and  N_8
REMARK    3  A    between atoms: N_8  and  C_9
REMARK    4  A    between atoms: C_9  and  C_10
REMARK    5  A    between atoms: C_14  and  N_15
REMARK                            x       y       z     vdW  Elec       q    Type
REMARK                         _______ _______ _______ _____ _____    ______ ____
ROOT
ATOM      1  N   UNL     1      44.552   6.737  12.798  0.00  0.00    +0.000 N 
ATOM      2  H   UNL     1      44.042   7.294  13.481  0.00  0.00    +0.000 HD
ENDROOT
BRANCH   1   6
ATOM      3  C   UNL     1      48.637   7.736  12.400  0.00  0.00    +0.000 A 
ATOM      4  C   UNL     1      47.664   8.689  12.095  0.00  0.00    +0.000 A 
ATOM      5  C   UNL     1      46.308   8.374  12.232  0.00  0.00    +0.000 A 
ATOM      6  C   UNL     1      45.893   7.122  12.704  0.00  0.00    +0.000 A 
ATOM      7  C   UNL     1      46.883   6.170  12.983  0.00  0.00    +0.000 A 
ATOM      8  C   UNL     1      48.243   6.466  12.826  0.00  0.00    +0.000 A 
BRANCH   3  10
ATOM      9  N   UNL     1      50.788   7.246  11.372  0.00  0.00    +0.000 N 
ATOM     10  C   UNL     1      50.085   8.029  12.246  0.00  0.00    +0.000 C 
ATOM     11  O   UNL     1      50.624   8.950  12.844  0.00  0.00    +0.000 OA
ATOM     12  H   UNL     1      51.746   7.519  11.196  0.00  0.00    +0.000 HD
ATOM     13  H   UNL     1      50.334   6.661  10.686  0.00  0.00    +0.000 HD
ENDBRANCH   3  10
ENDBRANCH   1   6
BRANCH   1  14
ATOM     14  C   UNL     1      43.795   6.451  11.587  0.00  0.00    +0.000 C 
BRANCH  14  15
ATOM     15  C   UNL     1      43.944   5.022  11.143  0.00  0.00    +0.000 A 
ATOM     16  C   UNL     1      43.163   4.041  11.748  0.00  0.00    +0.000 A 
ATOM     17  N   UNL     1      43.176   2.740  11.403  0.00  0.00    +0.000 NA
ATOM     18  C   UNL     1      44.012   2.403  10.395  0.00  0.00    +0.000 A 
ATOM     19  C   UNL     1      44.845   3.286   9.694  0.00  0.00    +0.000 A 
ATOM     20  C   UNL     1      44.772   4.626  10.081  0.00  0.00    +0.000 A 
BRANCH  19  21
ATOM     21  N   UNL     1      45.677   2.806   8.681  0.00  0.00    +0.000 N 
ATOM     22  C   UNL     1      45.725   1.363   8.427  0.00  0.00    +0.000 C 
ATOM     23  C   UNL     1      47.006   1.052   7.647  0.00  0.00    +0.000 C 
ATOM     24  C   UNL     1      47.116   1.892   6.374  0.00  0.00    +0.000 C 
ATOM     25  C   UNL     1      46.909   3.380   6.663  0.00  0.00    +0.000 C 
ATOM     26  C   UNL     1      45.627   3.619   7.454  0.00  0.00    +0.000 C 
ENDBRANCH  19  21
ENDBRANCH  14  15
ENDBRANCH   1  14
TORSDOF 5
ENDMDL
MODEL 5
REMARK VINA RESULT:    -7.553      1.456      2.087
REMARK INTER + INTRA:         -10.628
REMARK INTER:                  -9.910
REMARK INTRA:                  -0.718
REMARK UNBOUND:                -0.867
REMARK  Name = 
REMARK  5 active torsions:
REMARK  status: ('A' for Active; 'I' for Inactive)
REMARK    1  A    between atoms: C_2  and  C_4
REMARK    2  A    between atoms: C_7  and  N_8
REMARK    3  A    between atoms: N_8  and  C_9
REMARK    4  A    between atoms: C_9  and  C_10
REMARK    5  A    between atoms: C_14  and  N_15
REMARK                            x       y       z     vdW  Elec       q    Type
REMARK                         _______ _______ _______ _____ _____    ______ ____
ROOT
ATOM      1  N   UNL     1      43.806   4.999   9.876  0.00  0.00    +0.000 N 
ATOM      2  H   UNL     1      42.825   4.991   9.602  0.00  0.00    +0.000 HD
ENDROOT
BRANCH   1   6
ATOM      3  C   UNL     1      46.181   2.045   8.012  0.00  0.00    +0.000 A 
ATOM      4  C   UNL     1      45.208   1.662   8.936  0.00  0.00    +0.000 A 
ATOM      5  C   UNL     1      44.408   2.629   9.553  0.00  0.00    +0.000 A 
ATOM      6  C   UNL     1      44.535   3.989   9.242  0.00  0.00    +0.000 A 
ATOM      7  C   UNL     1      45.533   4.358   8.329  0.00  0.00    +0.000 A 
ATOM      8  C   UNL     1      46.356   3.399   7.723  0.00  0.00    +0.000 A 
BRANCH   3  10
ATOM      9  N   UNL     1      46.826  -0.271   7.635  0.00  0.00    +0.000 N 
ATOM     10  C   UNL     1      47.061   1.047   7.353  0.00  0.00    +0.000 C 
ATOM     11  O   UNL     1      47.936   1.378   6.564  0.00  0.00    +0.000 OA
ATOM     12  H   UNL     1      47.359  -0.946   7.102  0.00  0.00    +0.000 HD
ATOM     13  H   UNL     1      45.968  -0.586   8.067  0.00  0.00    +0.000 HD
ENDBRANCH   3  10
ENDBRANCH   1   6
BRANCH   1  14
ATOM     14  C   UNL     1      44.020   5.266  11.292  0.00  0.00    +0.000 C 
BRANCH  14  15
ATOM     15  C   UNL     1      44.834   6.510  11.523  0.00  0.00    +0.000 A 
ATOM     16  C   UNL     1      44.222   7.753  11.383  0.00  0.00    +0.000 A 
ATOM     17  N   UNL     1      44.835   8.930  11.607  0.00  0.00    +0.000 NA
ATOM     18  C   UNL     1      46.128   8.860  12.000  0.00  0.00    +0.000 A 
ATOM     19  C   UNL     1      46.861   7.680  12.189  0.00  0.00    +0.000 A 
ATOM     20  C   UNL     1      46.166   6.490  11.962  0.00  0.00    +0.000 A 
BRANCH  19  21
ATOM     21  N   UNL     1      48.200   7.745  12.580  0.00  0.00    +0.000 N 
ATOM     22  C   UNL     1      49.126   8.577  11.806  0.00  0.00    +0.000 C 
ATOM     23  C   UNL     1      50.556   8.123  12.115  0.00  0.00    +0.000 C 
ATOM     24  C   UNL     1      50.846   8.136  13.616  0.00  0.00    +0.000 C 
ATOM     25  C   UNL     1      49.772   7.384  14.402  0.00  0.00    +0.000 C 
ATOM     26  C   UNL     1      48.373   7.871  14.037  0.00  0.00    +0.000 C 
ENDBRANCH  19  21
ENDBRANCH  14  15
ENDBRANCH   1  14
TORSDOF 5
ENDMDL
MODEL 6
REMARK VINA RESULT:    -7.009      3.631      7.631
REMARK INTER + INTRA:          -9.924
REMARK INTER:                  -9.295
REMARK INTRA:                  -0.630
REMARK UNBOUND:                -0.867
REMARK  Name = 
REMARK  5 active torsions:
REMARK  status: ('A' for Active; 'I' for Inactive)
REMARK    1  A    between atoms: C_2  and  C_4
REMARK    2  A    between atoms: C_7  and  N_8
REMARK    3  A    between atoms: N_8  and  C_9
REMARK    4  A    between atoms: C_9  and  C_10
REMARK    5  A    between atoms: C_14  and  N_15
REMARK                            x       y       z     vdW  Elec       q    Type
REMARK                         _______ _______ _______ _____ _____    ______ ____
ROOT
ATOM      1  N   UNL     1      46.648   5.377  13.421  0.00  0.00    +0.000 N 
ATOM      2  H   UNL     1      47.167   5.004  12.629  0.00  0.00    +0.000 HD
ENDROOT
BRANCH   1   6
ATOM      3  C   UNL     1      48.530   4.202  17.016  0.00  0.00    +0.000 A 
ATOM      4  C   UNL     1      48.642   5.524  16.581  0.00  0.00    +0.000 A 
ATOM      5  C   UNL     1      48.016   5.929  15.398  0.00  0.00    +0.000 A 
ATOM      6  C   UNL     1      47.241   5.040  14.642  0.00  0.00    +0.000 A 
ATOM      7  C   UNL     1      47.158   3.712  15.080  0.00  0.00    +0.000 A 
ATOM      8  C   UNL     1      47.801   3.290  16.252  0.00  0.00    +0.000 A 
BRANCH   3  10
ATOM      9  N   UNL     1      48.393   3.241  19.247  0.00  0.00    +0.000 N 
ATOM     10  C   UNL     1      49.198   3.734  18.257  0.00  0.00    +0.000 C 
ATOM     11  O   UNL     1      50.415   3.751  18.380  0.00  0.00    +0.000 OA
ATOM     12  H   UNL     1      48.863   2.828  20.043  0.00  0.00    +0.000 HD
ATOM     13  H   UNL     1      47.433   2.978  19.081  0.00  0.00    +0.000 HD
ENDBRANCH   3  10
ENDBRANCH   1   6
BRANCH   1  14
ATOM     14  C   UNL     1      45.201   5.288  13.272  0.00  0.00    +0.000 C 
BRANCH  14  15
ATOM     15  C   UNL     1      44.793   4.259  12.253  0.00  0.00    +0.000 A 
ATOM     16  C   UNL     1      43.605   3.558  12.438  0.00  0.00    +0.000 A 
ATOM     17  N   UNL     1      43.117   2.649  11.573  0.00  0.00    +0.000 NA
ATOM     18  C   UNL     1      43.855   2.435  10.459  0.00  0.00    +0.000 A 
ATOM     19  C   UNL     1      45.061   3.076  10.143  0.00  0.00    +0.000 A 
ATOM     20  C   UNL     1      45.506   4.024  11.067  0.00  0.00    +0.000 A 
BRANCH  19  21
ATOM     21  N   UNL     1      45.736   2.751   8.965  0.00  0.00    +0.000 N 
ATOM     22  C   UNL     1      45.755   1.353   8.521  0.00  0.00    +0.000 C 
ATOM     23  C   UNL     1      46.908   1.179   7.527  0.00  0.00    +0.000 C 
ATOM     24  C   UNL     1      46.821   2.177   6.372  0.00  0.00    +0.000 C 
ATOM     25  C   UNL     1      46.649   3.610   6.879  0.00  0.00    +0.000 C 
ATOM     26  C   UNL     1      45.498   3.712   7.875  0.00  0.00    +0.000 C 
ENDBRANCH  19  21
ENDBRANCH  14  15
ENDBRANCH   1  14
TORSDOF 5
ENDMDL
MODEL 7
REMARK VINA RESULT:    -6.751      2.045      2.563
REMARK INTER + INTRA:          -9.592
REMARK INTER:                  -9.000
REMARK INTRA:                  -0.592
REMARK UNBOUND:                -0.867
REMARK  Name = 
REMARK  5 active torsions:
REMARK  status: ('A' for Active; 'I' for Inactive)
REMARK    1  A    between atoms: C_2  and  C_4
REMARK    2  A    between atoms: C_7  and  N_8
REMARK    3  A    between atoms: N_8  and  C_9
REMARK    4  A    between atoms: C_9  and  C_10
REMARK    5  A    between atoms: C_14  and  N_15
REMARK                            x       y       z     vdW  Elec       q    Type
REMARK                         _______ _______ _______ _____ _____    ______ ____
ROOT
ATOM      1  N   UNL     1      44.730   5.297  10.402  0.00  0.00    +0.000 N 
ATOM      2  H   UNL     1      44.122   4.798  11.048  0.00  0.00    +0.000 HD
ENDROOT
BRANCH   1   6
ATOM      3  C   UNL     1      46.445   2.830   7.432  0.00  0.00    +0.000 A 
ATOM      4  C   UNL     1      45.600   2.266   8.390  0.00  0.00    +0.000 A 
ATOM      5  C   UNL     1      45.018   3.073   9.373  0.00  0.00    +0.000 A 
ATOM      6  C   UNL     1      45.236   4.457   9.405  0.00  0.00    +0.000 A 
ATOM      7  C   UNL     1      46.105   5.002   8.450  0.00  0.00    +0.000 A 
ATOM      8  C   UNL     1      46.712   4.199   7.475  0.00  0.00    +0.000 A 
BRANCH   3  10
ATOM      9  N   UNL     1      47.281   2.579   5.160  0.00  0.00    +0.000 N 
ATOM     10  C   UNL     1      47.095   2.000   6.386  0.00  0.00    +0.000 C 
ATOM     11  O   UNL     1      47.483   0.862   6.614  0.00  0.00    +0.000 OA
ATOM     12  H   UNL     1      47.818   2.045   4.489  0.00  0.00    +0.000 HD
ATOM     13  H   UNL     1      47.211   3.576   5.018  0.00  0.00    +0.000 HD
ENDBRANCH   3  10
ENDBRANCH   1   6
BRANCH   1  14
ATOM     14  C   UNL     1      45.609   6.264  11.046  0.00  0.00    +0.000 C 
BRANCH  14  15
ATOM     15  C   UNL     1      46.118   5.777  12.375  0.00  0.00    +0.000 A 
ATOM     16  C   UNL     1      45.735   4.517  12.826  0.00  0.00    +0.000 A 
ATOM     17  N   UNL     1      46.161   3.958  13.974  0.00  0.00    +0.000 NA
ATOM     18  C   UNL     1      47.023   4.698  14.708  0.00  0.00    +0.000 A 
ATOM     19  C   UNL     1      47.497   5.974  14.371  0.00  0.00    +0.000 A 
ATOM     20  C   UNL     1      47.037   6.492  13.158  0.00  0.00    +0.000 A 
BRANCH  19  21
ATOM     21  N   UNL     1      48.374   6.641  15.228  0.00  0.00    +0.000 N 
ATOM     22  C   UNL     1      48.813   5.972  16.457  0.00  0.00    +0.000 C 
ATOM     23  C   UNL     1      49.347   7.035  17.421  0.00  0.00    +0.000 C 
ATOM     24  C   UNL     1      50.440   7.890  16.778  0.00  0.00    +0.000 C 
ATOM     25  C   UNL     1      49.995   8.445  15.424  0.00  0.00    +0.000 C 
ATOM     26  C   UNL     1      49.459   7.340  14.519  0.00  0.00    +0.000 C 
ENDBRANCH  19  21
ENDBRANCH  14  15
ENDBRANCH   1  14
TORSDOF 5
ENDMDL
MODEL 8
REMARK VINA RESULT:    -6.203      5.244      8.307
REMARK INTER + INTRA:          -8.884
REMARK INTER:                  -8.222
REMARK INTRA:                  -0.662
REMARK UNBOUND:                -0.867
REMARK  Name = 
REMARK  5 active torsions:
REMARK  status: ('A' for Active; 'I' for Inactive)
REMARK    1  A    between atoms: C_2  and  C_4
REMARK    2  A    between atoms: C_7  and  N_8
REMARK    3  A    between atoms: N_8  and  C_9
REMARK    4  A    between atoms: C_9  and  C_10
REMARK    5  A    between atoms: C_14  and  N_15
REMARK                            x       y       z     vdW  Elec       q    Type
REMARK                         _______ _______ _______ _____ _____    ______ ____
ROOT
ATOM      1  N   UNL     1      49.028   4.686  17.603  0.00  0.00    +0.000 N 
ATOM      2  H   UNL     1      49.358   5.615  17.349  0.00  0.00    +0.000 HD
ENDROOT
BRANCH   1   6
ATOM      3  C   UNL     1      52.151   1.842  17.662  0.00  0.00    +0.000 A 
ATOM      4  C   UNL     1      52.408   3.154  18.063  0.00  0.00    +0.000 A 
ATOM      5  C   UNL     1      51.381   4.104  18.057  0.00  0.00    +0.000 A 
ATOM      6  C   UNL     1      50.074   3.763  17.686  0.00  0.00    +0.000 A 
ATOM      7  C   UNL     1      49.839   2.447  17.264  0.00  0.00    +0.000 A 
ATOM      8  C   UNL     1      50.865   1.494  17.243  0.00  0.00    +0.000 A 
BRANCH   3  10
ATOM      9  N   UNL     1      52.977  -0.354  18.306  0.00  0.00    +0.000 N 
ATOM     10  C   UNL     1      53.222   0.814  17.636  0.00  0.00    +0.000 C 
ATOM     11  O   UNL     1      54.263   0.982  17.016  0.00  0.00    +0.000 OA
ATOM     12  H   UNL     1      53.666  -1.087  18.195  0.00  0.00    +0.000 HD
ATOM     13  H   UNL     1      52.050  -0.623  18.602  0.00  0.00    +0.000 HD
ENDBRANCH   3  10
ENDBRANCH   1   6
BRANCH   1  14
ATOM     14  C   UNL     1      47.779   4.307  16.953  0.00  0.00    +0.000 C 
BRANCH  14  15
ATOM     15  C   UNL     1      47.627   4.937  15.596  0.00  0.00    +0.000 A 
ATOM     16  C   UNL     1      48.485   5.970  15.230  0.00  0.00    +0.000 A 
ATOM     17  N   UNL     1      48.473   6.577  14.028  0.00  0.00    +0.000 NA
ATOM     18  C   UNL     1      47.556   6.123  13.144  0.00  0.00    +0.000 A 
ATOM     19  C   UNL     1      46.639   5.088  13.377  0.00  0.00    +0.000 A 
ATOM     20  C   UNL     1      46.714   4.482  14.633  0.00  0.00    +0.000 A 
BRANCH  19  21
ATOM     21  N   UNL     1      45.729   4.725  12.382  0.00  0.00    +0.000 N 
ATOM     22  C   UNL     1      44.403   4.238  12.777  0.00  0.00    +0.000 C 
ATOM     23  C   UNL     1      43.797   3.478  11.593  0.00  0.00    +0.000 C 
ATOM     24  C   UNL     1      43.773   4.328  10.322  0.00  0.00    +0.000 C 
ATOM     25  C   UNL     1      45.143   4.941  10.031  0.00  0.00    +0.000 C 
ATOM     26  C   UNL     1      45.698   5.668  11.252  0.00  0.00    +0.000 C 
ENDBRANCH  19  21
ENDBRANCH  14  15
ENDBRANCH   1  14
TORSDOF 5
ENDMDL
MODEL 9
REMARK VINA RESULT:    -6.145      4.631      7.969
REMARK INTER + INTRA:          -8.809
REMARK INTER:                  -8.090
REMARK INTRA:                  -0.719
REMARK UNBOUND:                -0.867
REMARK  Name = 
REMARK  5 active torsions:
REMARK  status: ('A' for Active; 'I' for Inactive)
REMARK    1  A    between atoms: C_2  and  C_4
REMARK    2  A    between atoms: C_7  and  N_8
REMARK    3  A    between atoms: N_8  and  C_9
REMARK    4  A    between atoms: C_9  and  C_10
REMARK    5  A    between atoms: C_14  and  N_15
REMARK                            x       y       z     vdW  Elec       q    Type
REMARK                         _______ _______ _______ _____ _____    ______ ____
ROOT
ATOM      1  N   UNL     1      48.298   5.299  16.595  0.00  0.00    +0.000 N 
ATOM      2  H   UNL     1      47.648   5.487  17.356  0.00  0.00    +0.000 HD
ENDROOT
BRANCH   1   6
ATOM      3  C   UNL     1      51.151   2.309  17.466  0.00  0.00    +0.000 A 
ATOM      4  C   UNL     1      51.476   3.650  17.673  0.00  0.00    +0.000 A 
ATOM      5  C   UNL     1      50.538   4.650  17.398  0.00  0.00    +0.000 A 
ATOM      6  C   UNL     1      49.250   4.337  16.944  0.00  0.00    +0.000 A 
ATOM      7  C   UNL     1      48.948   2.987  16.720  0.00  0.00    +0.000 A 
ATOM      8  C   UNL     1      49.889   1.979  16.970  0.00  0.00    +0.000 A 
BRANCH   3  10
ATOM      9  N   UNL     1      51.635   0.045  18.217  0.00  0.00    +0.000 N 
ATOM     10  C   UNL     1      52.130   1.224  17.729  0.00  0.00    +0.000 C 
ATOM     11  O   UNL     1      53.322   1.357  17.488  0.00  0.00    +0.000 OA
ATOM     12  H   UNL     1      52.292  -0.720  18.292  0.00  0.00    +0.000 HD
ATOM     13  H   UNL     1      50.651  -0.182  18.183  0.00  0.00    +0.000 HD
ENDBRANCH   3  10
ENDBRANCH   1   6
BRANCH   1  14
ATOM     14  C   UNL     1      48.709   6.491  15.863  0.00  0.00    +0.000 C 
BRANCH  14  15
ATOM     15  C   UNL     1      48.133   6.536  14.474  0.00  0.00    +0.000 A 
ATOM     16  C   UNL     1      48.785   7.281  13.496  0.00  0.00    +0.000 A 
ATOM     17  N   UNL     1      48.391   7.358  12.211  0.00  0.00    +0.000 NA
ATOM     18  C   UNL     1      47.287   6.647  11.887  0.00  0.00    +0.000 A 
ATOM     19  C   UNL     1      46.540   5.850  12.766  0.00  0.00    +0.000 A 
ATOM     20  C   UNL     1      47.011   5.791  14.080  0.00  0.00    +0.000 A 
BRANCH  19  21
ATOM     21  N   UNL     1      45.406   5.177  12.307  0.00  0.00    +0.000 N 
ATOM     22  C   UNL     1      44.856   5.529  10.994  0.00  0.00    +0.000 C 
ATOM     23  C   UNL     1      43.408   5.032  10.930  0.00  0.00    +0.000 C 
ATOM     24  C   UNL     1      43.302   3.541  11.248  0.00  0.00    +0.000 C 
ATOM     25  C   UNL     1      44.021   3.192  12.552  0.00  0.00    +0.000 C 
ATOM     26  C   UNL     1      45.450   3.727  12.559  0.00  0.00    +0.000 C 
ENDBRANCH  19  21
ENDBRANCH  14  15
ENDBRANCH   1  14
TORSDOF 5
ENDMDL
