MODEL 1
REMARK VINA RESULT:    -6.397      0.000      0.000
REMARK INTER + INTRA:          -8.096
REMARK INTER:                  -7.519
REMARK INTRA:                  -0.577
REMARK UNBOUND:                -0.577
REMARK  Name = 
REMARK  4 active torsions:
REMARK  status: ('A' for Active; 'I' for Inactive)
REMARK    1  A    between atoms: C_1  and  O_2
REMARK    2  A    between atoms: O_2  and  C_3
REMARK    3  A    between atoms: N_11  and  C_12
REMARK    4  A    between atoms: C_12  and  C_13
REMARK                            x       y       z     vdW  Elec       q    Type
REMARK                         _______ _______ _______ _____ _____    ______ ____
ROOT
ATOM      1  C   UNL     1      45.933   2.948   7.901  0.00  0.00    +0.000 A 
ATOM      2  C   UNL     1      46.194   4.317   8.022  0.00  0.00    +0.000 A 
ATOM      3  C   UNL     1      45.703   5.054   9.103  0.00  0.00    +0.000 A 
ATOM      4  C   UNL     1      44.951   4.423  10.075  0.00  0.00    +0.000 A 
ATOM      5  C   UNL     1      44.618   3.078   9.903  0.00  0.00    +0.000 A 
ATOM      6  C   UNL     1      45.121   2.320   8.851  0.00  0.00    +0.000 A 
ATOM      7  C   UNL     1      43.703   2.647  11.003  0.00  0.00    +0.000 C 
ATOM      8  C   UNL     1      43.394   4.015  11.662  0.00  0.00    +0.000 C 
ATOM      9  N   UNL     1      44.472   4.944  11.281  0.00  0.00    +0.000 N 
ENDROOT
BRANCH   1  11
ATOM     10  C   UNL     1      47.116   0.965   7.355  0.00  0.00    +0.000 C 
ATOM     11  O   UNL     1      46.436   2.138   6.919  0.00  0.00    +0.000 OA
ENDBRANCH   1  11
BRANCH   9  12
ATOM     12  C   UNL     1      44.366   6.385  11.519  0.00  0.00    +0.000 C 
BRANCH  12  13
ATOM     13  C   UNL     1      45.072   6.819  12.831  0.00  0.00    +0.000 C 
ATOM     14  C   UNL     1      45.501   8.302  12.802  0.00  0.00    +0.000 C 
ATOM     15  C   UNL     1      46.869   8.573  12.163  0.00  0.00    +0.000 C 
ATOM     16  N   UNL     1      47.938   7.701  12.638  0.00  0.00    +0.000 NA
ATOM     17  C   UNL     1      47.573   6.293  12.544  0.00  0.00    +0.000 C 
ATOM     18  C   UNL     1      46.273   5.967  13.278  0.00  0.00    +0.000 C 
ATOM     19  H   UNL     1      48.174   7.927  13.603  0.00  0.00    +0.000 HD
ENDBRANCH  12  13
ENDBRANCH   9  12
TORSDOF 3
ENDMDL
MODEL 2
REMARK VINA RESULT:    -5.950      0.759      1.445
REMARK INTER + INTRA:          -7.570
REMARK INTER:                  -7.492
REMARK INTRA:                  -0.078
REMARK UNBOUND:                -0.577
REMARK  Name = 
REMARK  4 active torsions:
REMARK  status: ('A' for Active; 'I' for Inactive)
REMARK    1  A    between atoms: C_1  and  O_2
REMARK    2  A    between atoms: O_2  and  C_3
REMARK    3  A    between atoms: N_11  and  C_12
REMARK    4  A    between atoms: C_12  and  C_13
REMARK                            x       y       z     vdW  Elec       q    Type
REMARK                         _______ _______ _______ _____ _____    ______ ____
ROOT
ATOM      1  C   UNL     1      45.740   2.604   8.025  0.00  0.00    +0.000 A 
ATOM      2  C   UNL     1      45.988   3.981   8.011  0.00  0.00    +0.000 A 
ATOM      3  C   UNL     1      45.537   4.807   9.045  0.00  0.00    +0.000 A 
ATOM      4  C   UNL     1      44.840   4.257  10.104  0.00  0.00    +0.000 A 
ATOM      5  C   UNL     1      44.517   2.900  10.067  0.00  0.00    +0.000 A 
ATOM      6  C   UNL     1      44.982   2.055   9.063  0.00  0.00    +0.000 A 
ATOM      7  C   UNL     1      43.659   2.560  11.243  0.00  0.00    +0.000 C 
ATOM      8  C   UNL     1      43.362   3.977  11.792  0.00  0.00    +0.000 C 
ATOM      9  N   UNL     1      44.409   4.879  11.280  0.00  0.00    +0.000 N 
ENDROOT
BRANCH   1  11
ATOM     10  C   UNL     1      46.918   0.588   7.602  0.00  0.00    +0.000 C 
ATOM     11  O   UNL     1      46.209   1.715   7.095  0.00  0.00    +0.000 OA
ENDBRANCH   1  11
BRANCH   9  12
ATOM     12  C   UNL     1      44.294   6.335  11.394  0.00  0.00    +0.000 C 
BRANCH  12  13
ATOM     13  C   UNL     1      45.671   7.044  11.299  0.00  0.00    +0.000 C 
ATOM     14  C   UNL     1      46.780   6.271  12.043  0.00  0.00    +0.000 C 
ATOM     15  C   UNL     1      46.902   6.581  13.540  0.00  0.00    +0.000 C 
ATOM     16  N   UNL     1      46.916   8.005  13.860  0.00  0.00    +0.000 NA
ATOM     17  C   UNL     1      45.791   8.709  13.256  0.00  0.00    +0.000 C 
ATOM     18  C   UNL     1      45.715   8.518  11.742  0.00  0.00    +0.000 C 
ATOM     19  H   UNL     1      47.790   8.427  13.546  0.00  0.00    +0.000 HD
ENDBRANCH  12  13
ENDBRANCH   9  12
TORSDOF 3
ENDMDL
MODEL 3
REMARK VINA RESULT:    -5.344      3.628      5.025
REMARK INTER + INTRA:          -6.858
REMARK INTER:                  -6.587
REMARK INTRA:                  -0.271
REMARK UNBOUND:                -0.577
REMARK  Name = 
REMARK  4 active torsions:
REMARK  status: ('A' for Active; 'I' for Inactive)
REMARK    1  A    between atoms: C_1  and  O_2
REMARK    2  A    between atoms: O_2  and  C_3
REMARK    3  A    between atoms: N_11  and  C_12
REMARK    4  A    between atoms: C_12  and  C_13
REMARK                            x       y       z     vdW  Elec       q    Type
REMARK                         _______ _______ _______ _____ _____    ______ ____
ROOT
ATOM      1  C   UNL     1      44.717   4.412  10.692  0.00  0.00    +0.000 A 
ATOM      2  C   UNL     1      44.875   3.377  11.620  0.00  0.00    +0.000 A 
ATOM      3  C   UNL     1      45.654   3.547  12.768  0.00  0.00    +0.000 A 
ATOM      4  C   UNL     1      46.275   4.760  12.998  0.00  0.00    +0.000 A 
ATOM      5  C   UNL     1      46.188   5.758  12.027  0.00  0.00    +0.000 A 
ATOM      6  C   UNL     1      45.394   5.619  10.892  0.00  0.00    +0.000 A 
ATOM      7  C   UNL     1      47.035   6.921  12.430  0.00  0.00    +0.000 C 
ATOM      8  C   UNL     1      47.784   6.315  13.643  0.00  0.00    +0.000 C 
ATOM      9  N   UNL     1      46.991   5.171  14.127  0.00  0.00    +0.000 N 
ENDROOT
BRANCH   1  11
ATOM     10  C   UNL     1      44.532   3.917   8.379  0.00  0.00    +0.000 C 
ATOM     11  O   UNL     1      43.914   4.356   9.585  0.00  0.00    +0.000 OA
ENDBRANCH   1  11
BRANCH   9  12
ATOM     12  C   UNL     1      47.531   4.216  15.098  0.00  0.00    +0.000 C 
BRANCH  12  13
ATOM     13  C   UNL     1      47.534   4.783  16.542  0.00  0.00    +0.000 C 
ATOM     14  C   UNL     1      48.875   5.457  16.904  0.00  0.00    +0.000 C 
ATOM     15  C   UNL     1      49.956   4.512  17.442  0.00  0.00    +0.000 C 
ATOM     16  N   UNL     1      49.497   3.606  18.490  0.00  0.00    +0.000 NA
ATOM     17  C   UNL     1      48.299   2.877  18.091  0.00  0.00    +0.000 C 
ATOM     18  C   UNL     1      47.158   3.800  17.665  0.00  0.00    +0.000 C 
ATOM     19  H   UNL     1      49.310   4.126  19.347  0.00  0.00    +0.000 HD
ENDBRANCH  12  13
ENDBRANCH   9  12
TORSDOF 3
ENDMDL
MODEL 4
REMARK VINA RESULT:    -5.272      3.335      6.225
REMARK INTER + INTRA:          -6.773
REMARK INTER:                  -6.270
REMARK INTRA:                  -0.504
REMARK UNBOUND:                -0.577
REMARK  Name = 
REMARK  4 active torsions:
REMARK  status: ('A' for Active; 'I' for Inactive)
REMARK    1  A    between atoms: C_1  and  O_2
REMARK    2  A    between atoms: O_2  and  C_3
REMARK    3  A    between atoms: N_11  and  C_12
REMARK    4  A    between atoms: C_12  and  C_13
REMARK                            x       y       z     vdW  Elec       q    Type
REMARK                         _______ _______ _______ _____ _____    ______ ____
ROOT
ATOM      1  C   UNL     1      49.832   9.015  11.946  0.00  0.00    +0.000 A 
ATOM      2  C   UNL     1      49.803   7.646  12.234  0.00  0.00    +0.000 A 
ATOM      3  C   UNL     1      48.594   6.976  12.442  0.00  0.00    +0.000 A 
ATOM      4  C   UNL     1      47.404   7.672  12.356  0.00  0.00    +0.000 A 
ATOM      5  C   UNL     1      47.442   9.053  12.159  0.00  0.00    +0.000 A 
ATOM      6  C   UNL     1      48.633   9.734  11.919  0.00  0.00    +0.000 A 
ATOM      7  C   UNL     1      46.056   9.606  12.228  0.00  0.00    +0.000 C 
ATOM      8  C   UNL     1      45.283   8.361  12.732  0.00  0.00    +0.000 C 
ATOM      9  N   UNL     1      46.098   7.175  12.413  0.00  0.00    +0.000 N 
ENDROOT
BRANCH   1  11
ATOM     10  C   UNL     1      51.827   9.171  10.671  0.00  0.00    +0.000 C 
ATOM     11  O   UNL     1      50.962   9.730  11.655  0.00  0.00    +0.000 OA
ENDBRANCH   1  11
BRANCH   9  12
ATOM     12  C   UNL     1      45.789   5.857  12.972  0.00  0.00    +0.000 C 
BRANCH  12  13
ATOM     13  C   UNL     1      45.626   4.774  11.873  0.00  0.00    +0.000 C 
ATOM     14  C   UNL     1      44.743   5.256  10.702  0.00  0.00    +0.000 C 
ATOM     15  C   UNL     1      43.234   5.058  10.898  0.00  0.00    +0.000 C 
ATOM     16  N   UNL     1      42.857   3.725  11.357  0.00  0.00    +0.000 NA
ATOM     17  C   UNL     1      43.608   3.327  12.542  0.00  0.00    +0.000 C 
ATOM     18  C   UNL     1      45.121   3.396  12.337  0.00  0.00    +0.000 C 
ATOM     19  H   UNL     1      43.005   3.043  10.615  0.00  0.00    +0.000 HD
ENDBRANCH  12  13
ENDBRANCH   9  12
TORSDOF 3
ENDMDL
MODEL 5
REMARK VINA RESULT:    -5.225      2.073      3.595
REMARK INTER + INTRA:          -6.718
REMARK INTER:                  -6.183
REMARK INTRA:                  -0.536
REMARK UNBOUND:                -0.577
REMARK  Name = 
REMARK  4 active torsions:
REMARK  status: ('A' for Active; 'I' for Inactive)
REMARK    1  A    between atoms: C_1  and  O_2
REMARK    2  A    between atoms: O_2  and  C_3
REMARK    3  A    between atoms: N_11  and  C_12
REMARK    4  A    between atoms: C_12  and  C_13
REMARK                            x       y       z     vdW  Elec       q    Type
REMARK                         _______ _______ _______ _____ _____    ______ ____
ROOT
ATOM      1  C   UNL     1      44.435   3.676  10.957  0.00  0.00    +0.000 A 
ATOM      2  C   UNL     1      44.304   5.040  10.669  0.00  0.00    +0.000 A 
ATOM      3  C   UNL     1      45.040   6.000  11.369  0.00  0.00    +0.000 A 
ATOM      4  C   UNL     1      45.918   5.601  12.358  0.00  0.00    +0.000 A 
ATOM      5  C   UNL     1      45.978   4.249  12.702  0.00  0.00    +0.000 A 
ATOM      6  C   UNL     1      45.276   3.274  11.999  0.00  0.00    +0.000 A 
ATOM      7  C   UNL     1      46.891   4.073  13.871  0.00  0.00    +0.000 C 
ATOM      8  C   UNL     1      47.131   5.552  14.265  0.00  0.00    +0.000 C 
ATOM      9  N   UNL     1      46.823   6.380  13.085  0.00  0.00    +0.000 N 
ENDROOT
BRANCH   1  11
ATOM     10  C   UNL     1      44.515   2.135   9.155  0.00  0.00    +0.000 C 
ATOM     11  O   UNL     1      43.811   2.668  10.272  0.00  0.00    +0.000 OA
ENDBRANCH   1  11
BRANCH   9  12
ATOM     12  C   UNL     1      46.698   7.836  13.179  0.00  0.00    +0.000 C 
BRANCH  12  13
ATOM     13  C   UNL     1      47.538   8.570  12.101  0.00  0.00    +0.000 C 
ATOM     14  C   UNL     1      48.800   7.776  11.701  0.00  0.00    +0.000 C 
ATOM     15  C   UNL     1      50.028   8.009  12.590  0.00  0.00    +0.000 C 
ATOM     16  N   UNL     1      50.324   9.415  12.850  0.00  0.00    +0.000 NA
ATOM     17  C   UNL     1      49.157  10.132  13.349  0.00  0.00    +0.000 C 
ATOM     18  C   UNL     1      47.949  10.019  12.420  0.00  0.00    +0.000 C 
ATOM     19  H   UNL     1      50.663   9.865  12.001  0.00  0.00    +0.000 HD
ENDBRANCH  12  13
ENDBRANCH   9  12
TORSDOF 3
ENDMDL
MODEL 6
REMARK VINA RESULT:    -4.744      3.197      4.884
REMARK INTER + INTRA:          -6.153
REMARK INTER:                  -5.619
REMARK INTRA:                  -0.534
REMARK UNBOUND:                -0.577
REMARK  Name = 
REMARK  4 active torsions:
REMARK  status: ('A' for Active; 'I' for Inactive)
REMARK    1  A    between atoms: C_1  and  O_2
REMARK    2  A    between atoms: O_2  and  C_3
REMARK    3  A    between atoms: N_11  and  C_12
REMARK    4  A    between atoms: C_12  and  C_13
REMARK                            x       y       z     vdW  Elec       q    Type
REMARK                         _______ _______ _______ _____ _____    ______ ____
ROOT
ATOM      1  C   UNL     1      45.032   4.245  12.820  0.00  0.00    +0.000 A 
ATOM      2  C   UNL     1      46.309   4.465  13.349  0.00  0.00    +0.000 A 
ATOM      3  C   UNL     1      46.874   5.743  13.364  0.00  0.00    +0.000 A 
ATOM      4  C   UNL     1      46.162   6.812  12.857  0.00  0.00    +0.000 A 
ATOM      5  C   UNL     1      44.928   6.573  12.249  0.00  0.00    +0.000 A 
ATOM      6  C   UNL     1      44.334   5.314  12.250  0.00  0.00    +0.000 A 
ATOM      7  C   UNL     1      44.405   7.845  11.665  0.00  0.00    +0.000 C 
ATOM      8  C   UNL     1      45.644   8.759  11.831  0.00  0.00    +0.000 C 
ATOM      9  N   UNL     1      46.492   8.171  12.884  0.00  0.00    +0.000 N 
ENDROOT
BRANCH   1  11
ATOM     10  C   UNL     1      43.398   2.848  11.816  0.00  0.00    +0.000 C 
ATOM     11  O   UNL     1      44.375   3.045  12.834  0.00  0.00    +0.000 OA
ENDBRANCH   1  11
BRANCH   9  12
ATOM     12  C   UNL     1      47.860   8.636  13.119  0.00  0.00    +0.000 C 
BRANCH  12  13
ATOM     13  C   UNL     1      48.684   8.729  11.808  0.00  0.00    +0.000 C 
ATOM     14  C   UNL     1      49.925   7.811  11.829  0.00  0.00    +0.000 C 
ATOM     15  C   UNL     1      51.177   8.419  12.472  0.00  0.00    +0.000 C 
ATOM     16  N   UNL     1      51.499   9.765  12.008  0.00  0.00    +0.000 NA
ATOM     17  C   UNL     1      50.354  10.662  12.109  0.00  0.00    +0.000 C 
ATOM     18  C   UNL     1      49.122  10.139  11.372  0.00  0.00    +0.000 C 
ATOM     19  H   UNL     1      51.823   9.735  11.042  0.00  0.00    +0.000 HD
ENDBRANCH  12  13
ENDBRANCH   9  12
TORSDOF 3
ENDMDL
MODEL 7
REMARK VINA RESULT:    -4.610      3.243      5.349
REMARK INTER + INTRA:          -5.996
REMARK INTER:                  -5.519
REMARK INTRA:                  -0.477
REMARK UNBOUND:                -0.577
REMARK  Name = 
REMARK  4 active torsions:
REMARK  status: ('A' for Active; 'I' for Inactive)
REMARK    1  A    between atoms: C_1  and  O_2
REMARK    2  A    between atoms: O_2  and  C_3
REMARK    3  A    between atoms: N_11  and  C_12
REMARK    4  A    between atoms: C_12  and  C_13
REMARK                            x       y       z     vdW  Elec       q    Type
REMARK                         _______ _______ _______ _____ _____    ______ ____
ROOT
ATOM      1  C   UNL     1      44.568   4.534  12.913  0.00  0.00    +0.000 A 
ATOM      2  C   UNL     1      45.845   4.100  13.287  0.00  0.00    +0.000 A 
ATOM      3  C   UNL     1      46.894   5.006  13.461  0.00  0.00    +0.000 A 
ATOM      4  C   UNL     1      46.672   6.356  13.267  0.00  0.00    +0.000 A 
ATOM      5  C   UNL     1      45.422   6.774  12.807  0.00  0.00    +0.000 A 
ATOM      6  C   UNL     1      44.355   5.892  12.657  0.00  0.00    +0.000 A 
ATOM      7  C   UNL     1      45.452   8.246  12.550  0.00  0.00    +0.000 C 
ATOM      8  C   UNL     1      46.968   8.526  12.707  0.00  0.00    +0.000 C 
ATOM      9  N   UNL     1      47.542   7.424  13.501  0.00  0.00    +0.000 N 
ENDROOT
BRANCH   1  11
ATOM     10  C   UNL     1      43.401   2.920  11.623  0.00  0.00    +0.000 C 
ATOM     11  O   UNL     1      43.469   3.727  12.795  0.00  0.00    +0.000 OA
ENDBRANCH   1  11
BRANCH   9  12
ATOM     12  C   UNL     1      48.990   7.238  13.622  0.00  0.00    +0.000 C 
BRANCH  12  13
ATOM     13  C   UNL     1      49.612   8.155  14.708  0.00  0.00    +0.000 C 
ATOM     14  C   UNL     1      51.021   7.688  15.132  0.00  0.00    +0.000 C 
ATOM     15  C   UNL     1      51.050   6.626  16.239  0.00  0.00    +0.000 C 
ATOM     16  N   UNL     1      50.204   6.930  17.388  0.00  0.00    +0.000 NA
ATOM     17  C   UNL     1      48.839   7.249  16.987  0.00  0.00    +0.000 C 
ATOM     18  C   UNL     1      48.769   8.390  15.973  0.00  0.00    +0.000 C 
ATOM     19  H   UNL     1      50.594   7.710  17.915  0.00  0.00    +0.000 HD
ENDBRANCH  12  13
ENDBRANCH   9  12
TORSDOF 3
ENDMDL
MODEL 8
REMARK VINA RESULT:    -4.364      3.706      5.670
REMARK INTER + INTRA:          -5.706
REMARK INTER:                  -5.361
REMARK INTRA:                  -0.345
REMARK UNBOUND:                -0.577
REMARK  Name = 
REMARK  4 active torsions:
REMARK  status: ('A' for Active; 'I' for Inactive)
REMARK    1  A    between atoms: C_1  and  O_2
REMARK    2  A    between atoms: O_2  and  C_3
REMARK    3  A    between atoms: N_11  and  C_12
REMARK    4  A    between atoms: C_12  and  C_13
REMARK                            x       y       z     vdW  Elec       q    Type
REMARK                         _______ _______ _______ _____ _____    ______ ____
ROOT
ATOM      1  C   UNL     1      45.051   5.228  11.685  0.00  0.00    +0.000 A 
ATOM      2  C   UNL     1      45.189   4.715  12.980  0.00  0.00    +0.000 A 
ATOM      3  C   UNL     1      46.219   5.143  13.821  0.00  0.00    +0.000 A 
ATOM      4  C   UNL     1      47.116   6.094  13.374  0.00  0.00    +0.000 A 
ATOM      5  C   UNL     1      47.028   6.536  12.053  0.00  0.00    +0.000 A 
ATOM      6  C   UNL     1      45.993   6.145  11.209  0.00  0.00    +0.000 A 
ATOM      7  C   UNL     1      48.167   7.457  11.759  0.00  0.00    +0.000 C 
ATOM      8  C   UNL     1      49.021   7.263  13.036  0.00  0.00    +0.000 C 
ATOM      9  N   UNL     1      48.132   6.736  14.088  0.00  0.00    +0.000 N 
ENDROOT
BRANCH   1  11
ATOM     10  C   UNL     1      43.396   3.662  11.022  0.00  0.00    +0.000 C 
ATOM     11  O   UNL     1      44.030   4.922  10.826  0.00  0.00    +0.000 OA
ENDBRANCH   1  11
BRANCH   9  12
ATOM     12  C   UNL     1      48.661   6.200  15.344  0.00  0.00    +0.000 C 
BRANCH  12  13
ATOM     13  C   UNL     1      49.481   7.253  16.135  0.00  0.00    +0.000 C 
ATOM     14  C   UNL     1      50.654   6.618  16.913  0.00  0.00    +0.000 C 
ATOM     15  C   UNL     1      50.298   6.082  18.305  0.00  0.00    +0.000 C 
ATOM     16  N   UNL     1      49.531   7.009  19.130  0.00  0.00    +0.000 NA
ATOM     17  C   UNL     1      48.353   7.509  18.432  0.00  0.00    +0.000 C 
ATOM     18  C   UNL     1      48.689   8.162  17.092  0.00  0.00    +0.000 C 
ATOM     19  H   UNL     1      50.116   7.794  19.414  0.00  0.00    +0.000 HD
ENDBRANCH  12  13
ENDBRANCH   9  12
TORSDOF 3
ENDMDL
MODEL 9
REMARK VINA RESULT:    -4.074      7.669      9.007
REMARK INTER + INTRA:          -5.365
REMARK INTER:                  -4.915
REMARK INTRA:                  -0.450
REMARK UNBOUND:                -0.577
REMARK  Name = 
REMARK  4 active torsions:
REMARK  status: ('A' for Active; 'I' for Inactive)
REMARK    1  A    between atoms: C_1  and  O_2
REMARK    2  A    between atoms: O_2  and  C_3
REMARK    3  A    between atoms: N_11  and  C_12
REMARK    4  A    between atoms: C_12  and  C_13
REMARK                            x       y       z     vdW  Elec       q    Type
REMARK                         _______ _______ _______ _____ _____    ______ ____
ROOT
ATOM      1  C   UNL     1      51.312   2.267  17.436  0.00  0.00    +0.000 A 
ATOM      2  C   UNL     1      51.688   3.585  17.721  0.00  0.00    +0.000 A 
ATOM      3  C   UNL     1      50.733   4.596  17.856  0.00  0.00    +0.000 A 
ATOM      4  C   UNL     1      49.392   4.293  17.712  0.00  0.00    +0.000 A 
ATOM      5  C   UNL     1      49.029   2.998  17.338  0.00  0.00    +0.000 A 
ATOM      6  C   UNL     1      49.962   1.970  17.229  0.00  0.00    +0.000 A 
ATOM      7  C   UNL     1      47.552   2.938  17.120  0.00  0.00    +0.000 C 
ATOM      8  C   UNL     1      47.197   4.444  17.193  0.00  0.00    +0.000 C 
ATOM      9  N   UNL     1      48.285   5.121  17.921  0.00  0.00    +0.000 N 
ENDROOT
BRANCH   1  11
ATOM     10  C   UNL     1      53.499   1.435  17.829  0.00  0.00    +0.000 C 
ATOM     11  O   UNL     1      52.173   1.206  17.362  0.00  0.00    +0.000 OA
ENDBRANCH   1  11
BRANCH   9  12
ATOM     12  C   UNL     1      48.398   6.581  17.952  0.00  0.00    +0.000 C 
BRANCH  12  13
ATOM     13  C   UNL     1      47.551   7.214  19.087  0.00  0.00    +0.000 C 
ATOM     14  C   UNL     1      47.582   8.757  19.050  0.00  0.00    +0.000 C 
ATOM     15  C   UNL     1      48.762   9.403  19.787  0.00  0.00    +0.000 C 
ATOM     16  N   UNL     1      48.992   8.881  21.130  0.00  0.00    +0.000 NA
ATOM     17  C   UNL     1      49.087   7.426  21.138  0.00  0.00    +0.000 C 
ATOM     18  C   UNL     1      47.866   6.748  20.519  0.00  0.00    +0.000 C 
ATOM     19  H   UNL     1      48.243   9.177  21.755  0.00  0.00    +0.000 HD
ENDBRANCH  12  13
ENDBRANCH   9  12
TORSDOF 3
ENDMDL
