MODEL 1
REMARK VINA RESULT:    -8.408      0.000      0.000
REMARK INTER + INTRA:         -12.463
REMARK INTER:                 -11.358
REMARK INTRA:                  -1.106
REMARK UNBOUND:                -1.106
REMARK  Name = 
REMARK  9 active torsions:
REMARK  status: ('A' for Active; 'I' for Inactive)
REMARK    1  A    between atoms: C_1  and  C_2
REMARK    2  A    between atoms: N_6  and  C_7
REMARK    3  A    between atoms: C_11  and  C_12
REMARK    4  A    between atoms: C_12  and  C_13
REMARK    5  A    between atoms: C_12  and  C_14
REMARK    6  A    between atoms: C_12  and  C_15
REMARK    7  A    between atoms: C_15  and  N_16
REMARK    8  A    between atoms: N_16  and  C_17
REMARK    9  A    between atoms: C_20  and  C_21
REMARK                            x       y       z     vdW  Elec       q    Type
REMARK                         _______ _______ _______ _____ _____    ______ ____
ROOT
ATOM      1  C   UNL     1      44.234   4.906  12.290  0.00  0.00    +0.000 C 
ATOM      2  C   UNL     1      43.080   4.866  13.318  0.00  0.00    +0.000 C 
ATOM      3  C   UNL     1      43.885   5.967  11.215  0.00  0.00    +0.000 C 
ENDROOT
BRANCH   1   8
ATOM      4  C   UNL     1      47.191   4.900  14.803  0.00  0.00    +0.000 A 
ATOM      5  C   UNL     1      48.024   5.868  14.237  0.00  0.00    +0.000 A 
ATOM      6  C   UNL     1      47.652   6.553  13.081  0.00  0.00    +0.000 A 
ATOM      7  C   UNL     1      46.438   6.273  12.456  0.00  0.00    +0.000 A 
ATOM      8  C   UNL     1      45.565   5.306  12.972  0.00  0.00    +0.000 A 
ATOM      9  C   UNL     1      45.964   4.659  14.157  0.00  0.00    +0.000 A 
BRANCH   4  15
ATOM     10  C   UNL     1      49.574   5.707  17.655  0.00  0.00    +0.000 C 
ATOM     11  C   UNL     1      48.512   4.712  18.135  0.00  0.00    +0.000 C 
ATOM     12  C   UNL     1      49.049   3.271  18.167  0.00  0.00    +0.000 C 
ATOM     13  C   UNL     1      49.223   2.676  16.767  0.00  0.00    +0.000 C 
ATOM     14  C   UNL     1      47.949   2.812  15.928  0.00  0.00    +0.000 C 
ATOM     15  N   UNL     1      47.528   4.209  15.949  0.00  0.00    +0.000 N 
ATOM     16  C   UNL     1      47.246   4.775  17.270  0.00  0.00    +0.000 C 
ENDBRANCH   4  15
ENDBRANCH   1   8
BRANCH   1  17
ATOM     17  C   UNL     1      44.375   3.499  11.619  0.00  0.00    +0.000 C 
BRANCH  17  18
ATOM     18  N   UNL     1      43.944   3.496  10.217  0.00  0.00    +0.000 N 
ATOM     19  H   UNL     1      42.995   3.189  10.045  0.00  0.00    +0.000 HD
BRANCH  18  20
ATOM     20  C   UNL     1      44.807   3.151   9.182  0.00  0.00    +0.000 A 
ATOM     21  C   UNL     1      45.255   1.850   8.945  0.00  0.00    +0.000 A 
ATOM     22  C   UNL     1      46.212   1.582   7.962  0.00  0.00    +0.000 A 
ATOM     23  C   UNL     1      46.759   2.620   7.203  0.00  0.00    +0.000 A 
ATOM     24  C   UNL     1      46.341   3.934   7.435  0.00  0.00    +0.000 A 
ATOM     25  C   UNL     1      45.378   4.187   8.423  0.00  0.00    +0.000 A 
BRANCH  23  26
ATOM     26  C   UNL     1      47.814   2.287   6.212  0.00  0.00    +0.000 C 
ATOM     27  N   UNL     1      47.870   3.033   5.068  0.00  0.00    +0.000 N 
ATOM     28  O   UNL     1      48.595   1.362   6.395  0.00  0.00    +0.000 OA
ATOM     29  H   UNL     1      47.162   3.696   4.796  0.00  0.00    +0.000 HD
ATOM     30  H   UNL     1      48.547   2.742   4.374  0.00  0.00    +0.000 HD
ENDBRANCH  23  26
ENDBRANCH  18  20
ENDBRANCH  17  18
ENDBRANCH   1  17
TORSDOF 6
ENDMDL
MODEL 2
REMARK VINA RESULT:    -8.376      2.087      4.020
REMARK INTER + INTRA:         -12.419
REMARK INTER:                 -11.250
REMARK INTRA:                  -1.170
REMARK UNBOUND:                -1.106
REMARK  Name = 
REMARK  9 active torsions:
REMARK  status: ('A' for Active; 'I' for Inactive)
REMARK    1  A    between atoms: C_1  and  C_2
REMARK    2  A    between atoms: N_6  and  C_7
REMARK    3  A    between atoms: C_11  and  C_12
REMARK    4  A    between atoms: C_12  and  C_13
REMARK    5  A    between atoms: C_12  and  C_14
REMARK    6  A    between atoms: C_12  and  C_15
REMARK    7  A    between atoms: C_15  and  N_16
REMARK    8  A    between atoms: N_16  and  C_17
REMARK    9  A    between atoms: C_20  and  C_21
REMARK                            x       y       z     vdW  Elec       q    Type
REMARK                         _______ _______ _______ _____ _____    ______ ____
ROOT
ATOM      1  C   UNL     1      44.104   4.612  12.351  0.00  0.00    +0.000 C 
ATOM      2  C   UNL     1      44.056   3.068  12.417  0.00  0.00    +0.000 C 
ATOM      3  C   UNL     1      42.948   5.166  13.223  0.00  0.00    +0.000 C 
ENDROOT
BRANCH   1   8
ATOM      4  C   UNL     1      47.223   6.876  12.800  0.00  0.00    +0.000 A 
ATOM      5  C   UNL     1      47.831   6.278  13.905  0.00  0.00    +0.000 A 
ATOM      6  C   UNL     1      47.287   5.140  14.500  0.00  0.00    +0.000 A 
ATOM      7  C   UNL     1      46.108   4.583  14.006  0.00  0.00    +0.000 A 
ATOM      8  C   UNL     1      45.447   5.145  12.906  0.00  0.00    +0.000 A 
ATOM      9  C   UNL     1      46.046   6.274  12.316  0.00  0.00    +0.000 A 
BRANCH   4  15
ATOM     10  C   UNL     1      50.561   8.664  13.154  0.00  0.00    +0.000 C 
ATOM     11  C   UNL     1      49.948   8.982  11.786  0.00  0.00    +0.000 C 
ATOM     12  C   UNL     1      49.272  10.363  11.768  0.00  0.00    +0.000 C 
ATOM     13  C   UNL     1      47.959  10.388  12.555  0.00  0.00    +0.000 C 
ATOM     14  C   UNL     1      47.014   9.264  12.123  0.00  0.00    +0.000 C 
ATOM     15  N   UNL     1      47.740   7.999  12.186  0.00  0.00    +0.000 N 
ATOM     16  C   UNL     1      48.942   7.906  11.355  0.00  0.00    +0.000 C 
ENDBRANCH   4  15
ENDBRANCH   1   8
BRANCH   1  17
ATOM     17  C   UNL     1      43.914   5.071  10.867  0.00  0.00    +0.000 C 
BRANCH  17  18
ATOM     18  N   UNL     1      43.611   3.955   9.965  0.00  0.00    +0.000 N 
ATOM     19  H   UNL     1      42.998   3.239  10.333  0.00  0.00    +0.000 HD
BRANCH  18  20
ATOM     20  C   UNL     1      44.561   3.438   9.088  0.00  0.00    +0.000 A 
ATOM     21  C   UNL     1      44.940   2.095   9.057  0.00  0.00    +0.000 A 
ATOM     22  C   UNL     1      45.981   1.655   8.235  0.00  0.00    +0.000 A 
ATOM     23  C   UNL     1      46.683   2.561   7.435  0.00  0.00    +0.000 A 
ATOM     24  C   UNL     1      46.335   3.915   7.462  0.00  0.00    +0.000 A 
ATOM     25  C   UNL     1      45.286   4.340   8.290  0.00  0.00    +0.000 A 
BRANCH  23  26
ATOM     26  C   UNL     1      47.818   2.050   6.624  0.00  0.00    +0.000 C 
ATOM     27  N   UNL     1      48.861   2.901   6.384  0.00  0.00    +0.000 N 
ATOM     28  O   UNL     1      47.817   0.916   6.163  0.00  0.00    +0.000 OA
ATOM     29  H   UNL     1      48.844   3.885   6.603  0.00  0.00    +0.000 HD
ATOM     30  H   UNL     1      49.588   2.559   5.768  0.00  0.00    +0.000 HD
ENDBRANCH  23  26
ENDBRANCH  18  20
ENDBRANCH  17  18
ENDBRANCH   1  17
TORSDOF 6
ENDMDL
MODEL 3
REMARK VINA RESULT:    -8.266      2.106      2.859
REMARK INTER + INTRA:         -12.271
REMARK INTER:                 -11.177
REMARK INTRA:                  -1.094
REMARK UNBOUND:                -1.106
REMARK  Name = 
REMARK  9 active torsions:
REMARK  status: ('A' for Active; 'I' for Inactive)
REMARK    1  A    between atoms: C_1  and  C_2
REMARK    2  A    between atoms: N_6  and  C_7
REMARK    3  A    between atoms: C_11  and  C_12
REMARK    4  A    between atoms: C_12  and  C_13
REMARK    5  A    between atoms: C_12  and  C_14
REMARK    6  A    between atoms: C_12  and  C_15
REMARK    7  A    between atoms: C_15  and  N_16
REMARK    8  A    between atoms: N_16  and  C_17
REMARK    9  A    between atoms: C_20  and  C_21
REMARK                            x       y       z     vdW  Elec       q    Type
REMARK                         _______ _______ _______ _____ _____    ______ ____
ROOT
ATOM      1  C   UNL     1      44.304   4.870  12.184  0.00  0.00    +0.000 C 
ATOM      2  C   UNL     1      45.202   3.644  12.466  0.00  0.00    +0.000 C 
ATOM      3  C   UNL     1      43.148   4.867  13.217  0.00  0.00    +0.000 C 
ENDROOT
BRANCH   1   8
ATOM      4  C   UNL     1      47.214   7.291  13.038  0.00  0.00    +0.000 A 
ATOM      5  C   UNL     1      46.705   8.500  12.559  0.00  0.00    +0.000 A 
ATOM      6  C   UNL     1      45.432   8.574  11.994  0.00  0.00    +0.000 A 
ATOM      7  C   UNL     1      44.644   7.429  11.883  0.00  0.00    +0.000 A 
ATOM      8  C   UNL     1      45.105   6.186  12.336  0.00  0.00    +0.000 A 
ATOM      9  C   UNL     1      46.382   6.161  12.928  0.00  0.00    +0.000 A 
BRANCH   4  15
ATOM     10  C   UNL     1      48.731   8.850  16.157  0.00  0.00    +0.000 C 
ATOM     11  C   UNL     1      49.489   7.567  15.801  0.00  0.00    +0.000 C 
ATOM     12  C   UNL     1      50.811   7.865  15.075  0.00  0.00    +0.000 C 
ATOM     13  C   UNL     1      50.600   8.345  13.637  0.00  0.00    +0.000 C 
ATOM     14  C   UNL     1      49.695   7.396  12.847  0.00  0.00    +0.000 C 
ATOM     15  N   UNL     1      48.467   7.187  13.607  0.00  0.00    +0.000 N 
ATOM     16  C   UNL     1      48.631   6.622  14.948  0.00  0.00    +0.000 C 
ENDBRANCH   4  15
ENDBRANCH   1   8
BRANCH   1  17
ATOM     17  C   UNL     1      43.720   4.760  10.736  0.00  0.00    +0.000 C 
BRANCH  17  18
ATOM     18  N   UNL     1      43.813   3.402  10.191  0.00  0.00    +0.000 N 
ATOM     19  H   UNL     1      43.704   2.647  10.856  0.00  0.00    +0.000 HD
BRANCH  18  20
ATOM     20  C   UNL     1      44.698   3.079   9.166  0.00  0.00    +0.000 A 
ATOM     21  C   UNL     1      45.196   1.794   8.946  0.00  0.00    +0.000 A 
ATOM     22  C   UNL     1      46.171   1.552   7.973  0.00  0.00    +0.000 A 
ATOM     23  C   UNL     1      46.684   2.603   7.208  0.00  0.00    +0.000 A 
ATOM     24  C   UNL     1      46.216   3.902   7.423  0.00  0.00    +0.000 A 
ATOM     25  C   UNL     1      45.236   4.129   8.401  0.00  0.00    +0.000 A 
BRANCH  23  26
ATOM     26  C   UNL     1      47.760   2.299   6.230  0.00  0.00    +0.000 C 
ATOM     27  N   UNL     1      47.835   3.075   5.107  0.00  0.00    +0.000 N 
ATOM     28  O   UNL     1      48.541   1.372   6.402  0.00  0.00    +0.000 OA
ATOM     29  H   UNL     1      47.129   3.743   4.838  0.00  0.00    +0.000 HD
ATOM     30  H   UNL     1      48.526   2.806   4.418  0.00  0.00    +0.000 HD
ENDBRANCH  23  26
ENDBRANCH  18  20
ENDBRANCH  17  18
ENDBRANCH   1  17
TORSDOF 6
ENDMDL
MODEL 4
REMARK VINA RESULT:    -6.876      3.639      7.938
REMARK INTER + INTRA:         -10.393
REMARK INTER:                  -8.830
REMARK INTRA:                  -1.564
REMARK UNBOUND:                -1.106
REMARK  Name = 
REMARK  9 active torsions:
REMARK  status: ('A' for Active; 'I' for Inactive)
REMARK    1  A    between atoms: C_1  and  C_2
REMARK    2  A    between atoms: N_6  and  C_7
REMARK    3  A    between atoms: C_11  and  C_12
REMARK    4  A    between atoms: C_12  and  C_13
REMARK    5  A    between atoms: C_12  and  C_14
REMARK    6  A    between atoms: C_12  and  C_15
REMARK    7  A    between atoms: C_15  and  N_16
REMARK    8  A    between atoms: N_16  and  C_17
REMARK    9  A    between atoms: C_20  and  C_21
REMARK                            x       y       z     vdW  Elec       q    Type
REMARK                         _______ _______ _______ _____ _____    ______ ____
ROOT
ATOM      1  C   UNL     1      49.164   8.800  12.439  0.00  0.00    +0.000 C 
ATOM      2  C   UNL     1      49.999   7.684  11.771  0.00  0.00    +0.000 C 
ATOM      3  C   UNL     1      49.586  10.156  11.816  0.00  0.00    +0.000 C 
ENDROOT
BRANCH   1   8
ATOM      4  C   UNL     1      45.794   6.981  11.814  0.00  0.00    +0.000 A 
ATOM      5  C   UNL     1      44.903   8.056  11.831  0.00  0.00    +0.000 A 
ATOM      6  C   UNL     1      45.353   9.364  12.007  0.00  0.00    +0.000 A 
ATOM      7  C   UNL     1      46.712   9.622  12.184  0.00  0.00    +0.000 A 
ATOM      8  C   UNL     1      47.652   8.584  12.185  0.00  0.00    +0.000 A 
ATOM      9  C   UNL     1      47.160   7.282  11.974  0.00  0.00    +0.000 A 
BRANCH   4  15
ATOM     10  C   UNL     1      42.339   5.393  11.743  0.00  0.00    +0.000 C 
ATOM     11  C   UNL     1      43.330   4.507  10.980  0.00  0.00    +0.000 C 
ATOM     12  C   UNL     1      43.801   3.313  11.826  0.00  0.00    +0.000 C 
ATOM     13  C   UNL     1      44.764   3.725  12.943  0.00  0.00    +0.000 C 
ATOM     14  C   UNL     1      45.927   4.566  12.411  0.00  0.00    +0.000 C 
ATOM     15  N   UNL     1      45.380   5.676  11.637  0.00  0.00    +0.000 N 
ATOM     16  C   UNL     1      44.544   5.309  10.492  0.00  0.00    +0.000 C 
ENDBRANCH   4  15
ENDBRANCH   1   8
BRANCH   1  17
ATOM     17  C   UNL     1      49.455   8.811  13.978  0.00  0.00    +0.000 C 
BRANCH  17  18
ATOM     18  N   UNL     1      50.109   7.582  14.438  0.00  0.00    +0.000 N 
ATOM     19  H   UNL     1      50.685   7.103  13.757  0.00  0.00    +0.000 HD
BRANCH  18  20
ATOM     20  C   UNL     1      49.486   6.701  15.317  0.00  0.00    +0.000 A 
ATOM     21  C   UNL     1      50.046   6.284  16.526  0.00  0.00    +0.000 A 
ATOM     22  C   UNL     1      49.427   5.310  17.313  0.00  0.00    +0.000 A 
ATOM     23  C   UNL     1      48.234   4.714  16.895  0.00  0.00    +0.000 A 
ATOM     24  C   UNL     1      47.663   5.101  15.678  0.00  0.00    +0.000 A 
ATOM     25  C   UNL     1      48.295   6.081  14.901  0.00  0.00    +0.000 A 
BRANCH  23  26
ATOM     26  C   UNL     1      47.648   3.643  17.741  0.00  0.00    +0.000 C 
ATOM     27  N   UNL     1      48.320   3.294  18.879  0.00  0.00    +0.000 N 
ATOM     28  O   UNL     1      46.614   3.069  17.424  0.00  0.00    +0.000 OA
ATOM     29  H   UNL     1      49.247   3.618  19.106  0.00  0.00    +0.000 HD
ATOM     30  H   UNL     1      47.944   2.512  19.402  0.00  0.00    +0.000 HD
ENDBRANCH  23  26
ENDBRANCH  18  20
ENDBRANCH  17  18
ENDBRANCH   1  17
TORSDOF 6
ENDMDL
MODEL 5
REMARK VINA RESULT:    -6.732      3.227      5.277
REMARK INTER + INTRA:         -10.200
REMARK INTER:                  -8.593
REMARK INTRA:                  -1.607
REMARK UNBOUND:                -1.106
REMARK  Name = 
REMARK  9 active torsions:
REMARK  status: ('A' for Active; 'I' for Inactive)
REMARK    1  A    between atoms: C_1  and  C_2
REMARK    2  A    between atoms: N_6  and  C_7
REMARK    3  A    between atoms: C_11  and  C_12
REMARK    4  A    between atoms: C_12  and  C_13
REMARK    5  A    between atoms: C_12  and  C_14
REMARK    6  A    between atoms: C_12  and  C_15
REMARK    7  A    between atoms: C_15  and  N_16
REMARK    8  A    between atoms: N_16  and  C_17
REMARK    9  A    between atoms: C_20  and  C_21
REMARK                            x       y       z     vdW  Elec       q    Type
REMARK                         _______ _______ _______ _____ _____    ______ ____
ROOT
ATOM      1  C   UNL     1      49.684   8.586  13.173  0.00  0.00    +0.000 C 
ATOM      2  C   UNL     1      49.983  10.101  13.248  0.00  0.00    +0.000 C 
ATOM      3  C   UNL     1      50.391   8.018  11.916  0.00  0.00    +0.000 C 
ENDROOT
BRANCH   1   8
ATOM      4  C   UNL     1      49.829   6.196  16.226  0.00  0.00    +0.000 A 
ATOM      5  C   UNL     1      51.149   6.379  16.646  0.00  0.00    +0.000 A 
ATOM      6  C   UNL     1      51.995   7.276  15.996  0.00  0.00    +0.000 A 
ATOM      7  C   UNL     1      51.539   8.003  14.897  0.00  0.00    +0.000 A 
ATOM      8  C   UNL     1      50.229   7.856  14.424  0.00  0.00    +0.000 A 
ATOM      9  C   UNL     1      49.398   6.963  15.127  0.00  0.00    +0.000 A 
BRANCH   4  15
ATOM     10  C   UNL     1      50.259   2.609  17.414  0.00  0.00    +0.000 C 
ATOM     11  C   UNL     1      49.128   3.280  18.199  0.00  0.00    +0.000 C 
ATOM     12  C   UNL     1      47.743   2.879  17.664  0.00  0.00    +0.000 C 
ATOM     13  C   UNL     1      47.422   3.525  16.314  0.00  0.00    +0.000 C 
ATOM     14  C   UNL     1      47.625   5.042  16.346  0.00  0.00    +0.000 C 
ATOM     15  N   UNL     1      48.966   5.320  16.852  0.00  0.00    +0.000 N 
ATOM     16  C   UNL     1      49.265   4.809  18.191  0.00  0.00    +0.000 C 
ENDBRANCH   4  15
ENDBRANCH   1   8
BRANCH   1  17
ATOM     17  C   UNL     1      48.138   8.370  13.054  0.00  0.00    +0.000 C 
BRANCH  17  18
ATOM     18  N   UNL     1      47.753   7.724  11.795  0.00  0.00    +0.000 N 
ATOM     19  H   UNL     1      47.657   8.334  10.993  0.00  0.00    +0.000 HD
BRANCH  18  20
ATOM     20  C   UNL     1      46.860   6.657  11.759  0.00  0.00    +0.000 A 
ATOM     21  C   UNL     1      46.226   6.215  10.597  0.00  0.00    +0.000 A 
ATOM     22  C   UNL     1      45.251   5.214  10.640  0.00  0.00    +0.000 A 
ATOM     23  C   UNL     1      44.874   4.645  11.859  0.00  0.00    +0.000 A 
ATOM     24  C   UNL     1      45.480   5.085  13.040  0.00  0.00    +0.000 A 
ATOM     25  C   UNL     1      46.458   6.088  12.980  0.00  0.00    +0.000 A 
BRANCH  23  26
ATOM     26  C   UNL     1      43.791   3.627  11.855  0.00  0.00    +0.000 C 
ATOM     27  N   UNL     1      44.006   2.468  12.547  0.00  0.00    +0.000 N 
ATOM     28  O   UNL     1      42.750   3.801  11.235  0.00  0.00    +0.000 OA
ATOM     29  H   UNL     1      44.897   2.206  12.941  0.00  0.00    +0.000 HD
ATOM     30  H   UNL     1      43.289   1.758  12.470  0.00  0.00    +0.000 HD
ENDBRANCH  23  26
ENDBRANCH  18  20
ENDBRANCH  17  18
ENDBRANCH   1  17
TORSDOF 6
ENDMDL
MODEL 6
REMARK VINA RESULT:    -6.686      3.095      4.879
REMARK INTER + INTRA:         -10.137
REMARK INTER:                  -8.652
REMARK INTRA:                  -1.485
REMARK UNBOUND:                -1.106
REMARK  Name = 
REMARK  9 active torsions:
REMARK  status: ('A' for Active; 'I' for Inactive)
REMARK    1  A    between atoms: C_1  and  C_2
REMARK    2  A    between atoms: N_6  and  C_7
REMARK    3  A    between atoms: C_11  and  C_12
REMARK    4  A    between atoms: C_12  and  C_13
REMARK    5  A    between atoms: C_12  and  C_14
REMARK    6  A    between atoms: C_12  and  C_15
REMARK    7  A    between atoms: C_15  and  N_16
REMARK    8  A    between atoms: N_16  and  C_17
REMARK    9  A    between atoms: C_20  and  C_21
REMARK                            x       y       z     vdW  Elec       q    Type
REMARK                         _______ _______ _______ _____ _____    ______ ____
ROOT
ATOM      1  C   UNL     1      48.508   8.152  13.012  0.00  0.00    +0.000 C 
ATOM      2  C   UNL     1      49.450   9.165  12.322  0.00  0.00    +0.000 C 
ATOM      3  C   UNL     1      49.015   6.724  12.685  0.00  0.00    +0.000 C 
ENDROOT
BRANCH   1   8
ATOM      4  C   UNL     1      48.840   7.330  16.790  0.00  0.00    +0.000 A 
ATOM      5  C   UNL     1      48.683   8.598  17.354  0.00  0.00    +0.000 A 
ATOM      6  C   UNL     1      48.441   9.716  16.558  0.00  0.00    +0.000 A 
ATOM      7  C   UNL     1      48.363   9.591  15.172  0.00  0.00    +0.000 A 
ATOM      8  C   UNL     1      48.521   8.346  14.548  0.00  0.00    +0.000 A 
ATOM      9  C   UNL     1      48.734   7.238  15.389  0.00  0.00    +0.000 A 
BRANCH   4  15
ATOM     10  C   UNL     1      47.265   3.868  16.769  0.00  0.00    +0.000 C 
ATOM     11  C   UNL     1      48.668   3.793  17.380  0.00  0.00    +0.000 C 
ATOM     12  C   UNL     1      48.622   3.744  18.916  0.00  0.00    +0.000 C 
ATOM     13  C   UNL     1      48.236   5.089  19.537  0.00  0.00    +0.000 C 
ATOM     14  C   UNL     1      49.107   6.232  19.010  0.00  0.00    +0.000 C 
ATOM     15  N   UNL     1      49.075   6.202  17.551  0.00  0.00    +0.000 N 
ATOM     16  C   UNL     1      49.546   4.966  16.924  0.00  0.00    +0.000 C 
ENDBRANCH   4  15
ENDBRANCH   1   8
BRANCH   1  17
ATOM     17  C   UNL     1      47.056   8.338  12.459  0.00  0.00    +0.000 C 
BRANCH  17  18
ATOM     18  N   UNL     1      46.050   7.636  13.262  0.00  0.00    +0.000 N 
ATOM     19  H   UNL     1      46.186   7.660  14.265  0.00  0.00    +0.000 HD
BRANCH  18  20
ATOM     20  C   UNL     1      45.468   6.446  12.836  0.00  0.00    +0.000 A 
ATOM     21  C   UNL     1      45.802   5.190  13.347  0.00  0.00    +0.000 A 
ATOM     22  C   UNL     1      45.268   4.020  12.801  0.00  0.00    +0.000 A 
ATOM     23  C   UNL     1      44.396   4.081  11.710  0.00  0.00    +0.000 A 
ATOM     24  C   UNL     1      44.061   5.326  11.168  0.00  0.00    +0.000 A 
ATOM     25  C   UNL     1      44.603   6.491  11.729  0.00  0.00    +0.000 A 
BRANCH  23  26
ATOM     26  C   UNL     1      43.904   2.805  11.131  0.00  0.00    +0.000 C 
ATOM     27  N   UNL     1      44.576   2.294  10.056  0.00  0.00    +0.000 N 
ATOM     28  O   UNL     1      42.917   2.237  11.580  0.00  0.00    +0.000 OA
ATOM     29  H   UNL     1      45.291   2.794   9.552  0.00  0.00    +0.000 HD
ATOM     30  H   UNL     1      44.180   1.465   9.631  0.00  0.00    +0.000 HD
ENDBRANCH  23  26
ENDBRANCH  18  20
ENDBRANCH  17  18
ENDBRANCH   1  17
TORSDOF 6
ENDMDL
MODEL 7
REMARK VINA RESULT:    -6.427      3.160      5.099
REMARK INTER + INTRA:          -9.787
REMARK INTER:                  -8.310
REMARK INTRA:                  -1.477
REMARK UNBOUND:                -1.106
REMARK  Name = 
REMARK  9 active torsions:
REMARK  status: ('A' for Active; 'I' for Inactive)
REMARK    1  A    between atoms: C_1  and  C_2
REMARK    2  A    between atoms: N_6  and  C_7
REMARK    3  A    between atoms: C_11  and  C_12
REMARK    4  A    between atoms: C_12  and  C_13
REMARK    5  A    between atoms: C_12  and  C_14
REMARK    6  A    between atoms: C_12  and  C_15
REMARK    7  A    between atoms: C_15  and  N_16
REMARK    8  A    between atoms: N_16  and  C_17
REMARK    9  A    between atoms: C_20  and  C_21
REMARK                            x       y       z     vdW  Elec       q    Type
REMARK                         _______ _______ _______ _____ _____    ______ ____
ROOT
ATOM      1  C   UNL     1      48.856   8.880  14.189  0.00  0.00    +0.000 C 
ATOM      2  C   UNL     1      49.252  10.367  14.039  0.00  0.00    +0.000 C 
ATOM      3  C   UNL     1      50.038   8.014  13.682  0.00  0.00    +0.000 C 
ENDROOT
BRANCH   1   8
ATOM      4  C   UNL     1      48.425   6.776  17.420  0.00  0.00    +0.000 A 
ATOM      5  C   UNL     1      48.212   7.780  18.367  0.00  0.00    +0.000 A 
ATOM      6  C   UNL     1      48.170   9.124  17.996  0.00  0.00    +0.000 A 
ATOM      7  C   UNL     1      48.355   9.493  16.664  0.00  0.00    +0.000 A 
ATOM      8  C   UNL     1      48.581   8.530  15.672  0.00  0.00    +0.000 A 
ATOM      9  C   UNL     1      48.586   7.184  16.082  0.00  0.00    +0.000 A 
BRANCH   4  15
ATOM     10  C   UNL     1      51.259   4.240  17.432  0.00  0.00    +0.000 C 
ATOM     11  C   UNL     1      50.160   3.791  18.401  0.00  0.00    +0.000 C 
ATOM     12  C   UNL     1      49.264   2.703  17.786  0.00  0.00    +0.000 C 
ATOM     13  C   UNL     1      48.327   3.252  16.707  0.00  0.00    +0.000 C 
ATOM     14  C   UNL     1      47.531   4.461  17.205  0.00  0.00    +0.000 C 
ATOM     15  N   UNL     1      48.466   5.437  17.755  0.00  0.00    +0.000 N 
ATOM     16  C   UNL     1      49.299   4.973  18.866  0.00  0.00    +0.000 C 
ENDBRANCH   4  15
ENDBRANCH   1   8
BRANCH   1  17
ATOM     17  C   UNL     1      47.582   8.596  13.324  0.00  0.00    +0.000 C 
BRANCH  17  18
ATOM     18  N   UNL     1      47.765   7.470  12.402  0.00  0.00    +0.000 N 
ATOM     19  H   UNL     1      48.227   7.682  11.527  0.00  0.00    +0.000 HD
BRANCH  18  20
ATOM     20  C   UNL     1      46.809   6.468  12.266  0.00  0.00    +0.000 A 
ATOM     21  C   UNL     1      46.574   5.483  13.227  0.00  0.00    +0.000 A 
ATOM     22  C   UNL     1      45.682   4.434  12.986  0.00  0.00    +0.000 A 
ATOM     23  C   UNL     1      45.017   4.338  11.761  0.00  0.00    +0.000 A 
ATOM     24  C   UNL     1      45.250   5.300  10.775  0.00  0.00    +0.000 A 
ATOM     25  C   UNL     1      46.146   6.348  11.032  0.00  0.00    +0.000 A 
BRANCH  23  26
ATOM     26  C   UNL     1      44.125   3.171  11.536  0.00  0.00    +0.000 C 
ATOM     27  N   UNL     1      43.750   2.437  12.626  0.00  0.00    +0.000 N 
ATOM     28  O   UNL     1      43.753   2.856  10.412  0.00  0.00    +0.000 OA
ATOM     29  H   UNL     1      44.148   2.554  13.545  0.00  0.00    +0.000 HD
ATOM     30  H   UNL     1      43.205   1.605  12.443  0.00  0.00    +0.000 HD
ENDBRANCH  23  26
ENDBRANCH  18  20
ENDBRANCH  17  18
ENDBRANCH   1  17
TORSDOF 6
ENDMDL
MODEL 8
REMARK VINA RESULT:    -6.039      2.654      5.952
REMARK INTER + INTRA:          -9.264
REMARK INTER:                  -8.451
REMARK INTRA:                  -0.813
REMARK UNBOUND:                -1.106
REMARK  Name = 
REMARK  9 active torsions:
REMARK  status: ('A' for Active; 'I' for Inactive)
REMARK    1  A    between atoms: C_1  and  C_2
REMARK    2  A    between atoms: N_6  and  C_7
REMARK    3  A    between atoms: C_11  and  C_12
REMARK    4  A    between atoms: C_12  and  C_13
REMARK    5  A    between atoms: C_12  and  C_14
REMARK    6  A    between atoms: C_12  and  C_15
REMARK    7  A    between atoms: C_15  and  N_16
REMARK    8  A    between atoms: N_16  and  C_17
REMARK    9  A    between atoms: C_20  and  C_21
REMARK                            x       y       z     vdW  Elec       q    Type
REMARK                         _______ _______ _______ _____ _____    ______ ____
ROOT
ATOM      1  C   UNL     1      48.233   4.668  17.139  0.00  0.00    +0.000 C 
ATOM      2  C   UNL     1      48.877   3.550  17.990  0.00  0.00    +0.000 C 
ATOM      3  C   UNL     1      47.257   5.461  18.045  0.00  0.00    +0.000 C 
ENDROOT
BRANCH   1   8
ATOM      4  C   UNL     1      49.843   7.601  15.174  0.00  0.00    +0.000 A 
ATOM      5  C   UNL     1      51.162   7.536  15.630  0.00  0.00    +0.000 A 
ATOM      6  C   UNL     1      51.565   6.553  16.532  0.00  0.00    +0.000 A 
ATOM      7  C   UNL     1      50.649   5.617  17.010  0.00  0.00    +0.000 A 
ATOM      8  C   UNL     1      49.310   5.638  16.597  0.00  0.00    +0.000 A 
ATOM      9  C   UNL     1      48.951   6.627  15.662  0.00  0.00    +0.000 A 
BRANCH   4  15
ATOM     10  C   UNL     1      48.278   7.335  11.719  0.00  0.00    +0.000 C 
ATOM     11  C   UNL     1      47.905   8.680  12.352  0.00  0.00    +0.000 C 
ATOM     12  C   UNL     1      48.773   9.828  11.810  0.00  0.00    +0.000 C 
ATOM     13  C   UNL     1      50.209   9.781  12.338  0.00  0.00    +0.000 C 
ATOM     14  C   UNL     1      50.252   9.680  13.864  0.00  0.00    +0.000 C 
ATOM     15  N   UNL     1      49.414   8.559  14.278  0.00  0.00    +0.000 N 
ATOM     16  C   UNL     1      48.006   8.631  13.882  0.00  0.00    +0.000 C 
ENDBRANCH   4  15
ENDBRANCH   1   8
BRANCH   1  17
ATOM     17  C   UNL     1      47.445   4.021  15.951  0.00  0.00    +0.000 C 
BRANCH  17  18
ATOM     18  N   UNL     1      46.861   5.020  15.049  0.00  0.00    +0.000 N 
ATOM     19  H   UNL     1      46.497   5.856  15.488  0.00  0.00    +0.000 HD
BRANCH  18  20
ATOM     20  C   UNL     1      46.135   4.657  13.919  0.00  0.00    +0.000 A 
ATOM     21  C   UNL     1      46.170   3.382  13.350  0.00  0.00    +0.000 A 
ATOM     22  C   UNL     1      45.511   3.107  12.149  0.00  0.00    +0.000 A 
ATOM     23  C   UNL     1      44.813   4.115  11.477  0.00  0.00    +0.000 A 
ATOM     24  C   UNL     1      44.780   5.404  12.016  0.00  0.00    +0.000 A 
ATOM     25  C   UNL     1      45.444   5.664  13.224  0.00  0.00    +0.000 A 
BRANCH  23  26
ATOM     26  C   UNL     1      44.179   3.783  10.175  0.00  0.00    +0.000 C 
ATOM     27  N   UNL     1      43.806   4.820   9.367  0.00  0.00    +0.000 N 
ATOM     28  O   UNL     1      43.972   2.624   9.840  0.00  0.00    +0.000 OA
ATOM     29  H   UNL     1      43.807   5.786   9.657  0.00  0.00    +0.000 HD
ATOM     30  H   UNL     1      43.309   4.575   8.521  0.00  0.00    +0.000 HD
ENDBRANCH  23  26
ENDBRANCH  18  20
ENDBRANCH  17  18
ENDBRANCH   1  17
TORSDOF 6
ENDMDL
MODEL 9
REMARK VINA RESULT:    -5.860      3.967      7.308
REMARK INTER + INTRA:          -9.021
REMARK INTER:                  -7.438
REMARK INTRA:                  -1.582
REMARK UNBOUND:                -1.106
REMARK  Name = 
REMARK  9 active torsions:
REMARK  status: ('A' for Active; 'I' for Inactive)
REMARK    1  A    between atoms: C_1  and  C_2
REMARK    2  A    between atoms: N_6  and  C_7
REMARK    3  A    between atoms: C_11  and  C_12
REMARK    4  A    between atoms: C_12  and  C_13
REMARK    5  A    between atoms: C_12  and  C_14
REMARK    6  A    between atoms: C_12  and  C_15
REMARK    7  A    between atoms: C_15  and  N_16
REMARK    8  A    between atoms: N_16  and  C_17
REMARK    9  A    between atoms: C_20  and  C_21
REMARK                            x       y       z     vdW  Elec       q    Type
REMARK                         _______ _______ _______ _____ _____    ______ ____
ROOT
ATOM      1  C   UNL     1      44.792   6.251  11.727  0.00  0.00    +0.000 C 
ATOM      2  C   UNL     1      43.295   6.080  11.382  0.00  0.00    +0.000 C 
ATOM      3  C   UNL     1      45.623   5.546  10.624  0.00  0.00    +0.000 C 
ENDROOT
BRANCH   1   8
ATOM      4  C   UNL     1      46.949   9.450  12.143  0.00  0.00    +0.000 A 
ATOM      5  C   UNL     1      46.040  10.437  11.754  0.00  0.00    +0.000 A 
ATOM      6  C   UNL     1      44.735  10.112  11.388  0.00  0.00    +0.000 A 
ATOM      7  C   UNL     1      44.313   8.783  11.391  0.00  0.00    +0.000 A 
ATOM      8  C   UNL     1      45.181   7.749  11.763  0.00  0.00    +0.000 A 
ATOM      9  C   UNL     1      46.481   8.122  12.155  0.00  0.00    +0.000 A 
BRANCH   4  15
ATOM     10  C   UNL     1      50.250   7.691  11.455  0.00  0.00    +0.000 C 
ATOM     11  C   UNL     1      50.508   9.169  11.770  0.00  0.00    +0.000 C 
ATOM     12  C   UNL     1      50.981   9.372  13.218  0.00  0.00    +0.000 C 
ATOM     13  C   UNL     1      49.857   9.172  14.239  0.00  0.00    +0.000 C 
ATOM     14  C   UNL     1      48.623  10.010  13.899  0.00  0.00    +0.000 C 
ATOM     15  N   UNL     1      48.245   9.740  12.516  0.00  0.00    +0.000 N 
ATOM     16  C   UNL     1      49.264  10.028  11.504  0.00  0.00    +0.000 C 
ENDBRANCH   4  15
ENDBRANCH   1   8
BRANCH   1  17
ATOM     17  C   UNL     1      45.080   5.586  13.114  0.00  0.00    +0.000 C 
BRANCH  17  18
ATOM     18  N   UNL     1      46.379   4.906  13.156  0.00  0.00    +0.000 N 
ATOM     19  H   UNL     1      46.463   4.073  12.588  0.00  0.00    +0.000 HD
BRANCH  18  20
ATOM     20  C   UNL     1      47.132   4.829  14.324  0.00  0.00    +0.000 A 
ATOM     21  C   UNL     1      47.081   3.752  15.211  0.00  0.00    +0.000 A 
ATOM     22  C   UNL     1      47.772   3.780  16.425  0.00  0.00    +0.000 A 
ATOM     23  C   UNL     1      48.519   4.903  16.789  0.00  0.00    +0.000 A 
ATOM     24  C   UNL     1      48.571   6.003  15.926  0.00  0.00    +0.000 A 
ATOM     25  C   UNL     1      47.874   5.958  14.710  0.00  0.00    +0.000 A 
BRANCH  23  26
ATOM     26  C   UNL     1      49.187   4.905  18.116  0.00  0.00    +0.000 C 
ATOM     27  N   UNL     1      49.218   3.729  18.812  0.00  0.00    +0.000 N 
ATOM     28  O   UNL     1      49.673   5.924  18.588  0.00  0.00    +0.000 OA
ATOM     29  H   UNL     1      48.701   2.905  18.547  0.00  0.00    +0.000 HD
ATOM     30  H   UNL     1      49.610   3.768  19.745  0.00  0.00    +0.000 HD
ENDBRANCH  23  26
ENDBRANCH  18  20
ENDBRANCH  17  18
ENDBRANCH   1  17
TORSDOF 6
ENDMDL
