MODEL 1
REMARK VINA RESULT:    -7.649      0.000      0.000
REMARK INTER + INTRA:          -9.444
REMARK INTER:                  -9.661
REMARK INTRA:                   0.217
REMARK UNBOUND:                 0.217
REMARK  Name = 
REMARK  5 active torsions:
REMARK  status: ('A' for Active; 'I' for Inactive)
REMARK    1  A    between atoms: N_1  and  C_2
REMARK    2  A    between atoms: C_2  and  C_3
REMARK    3  A    between atoms: N_6  and  C_7
REMARK    4  A    between atoms: C_7  and  N_8
REMARK    5  A    between atoms: C_13  and  C_14
REMARK                            x       y       z     vdW  Elec       q    Type
REMARK                         _______ _______ _______ _____ _____    ______ ____
ROOT
ATOM      1  N   UNL     1      44.065   4.411  10.450  0.00  0.00    +0.000 N 
ATOM      2  C   UNL     1      43.541   3.252  10.967  0.00  0.00    +0.000 A 
ATOM      3  N   UNL     1      44.045   2.182  10.385  0.00  0.00    +0.000 NA
ATOM      4  C   UNL     1      44.920   2.665   9.445  0.00  0.00    +0.000 A 
ATOM      5  C   UNL     1      45.675   2.001   8.462  0.00  0.00    +0.000 A 
ATOM      6  C   UNL     1      46.423   2.799   7.582  0.00  0.00    +0.000 A 
ATOM      7  C   UNL     1      46.426   4.186   7.778  0.00  0.00    +0.000 A 
ATOM      8  N   UNL     1      45.745   4.866   8.739  0.00  0.00    +0.000 NA
ATOM      9  C   UNL     1      44.990   4.053   9.502  0.00  0.00    +0.000 A 
ENDROOT
BRANCH   6  10
ATOM     10  C   UNL     1      47.167   2.275   6.410  0.00  0.00    +0.000 C 
ATOM     11  N   UNL     1      47.199   3.027   5.267  0.00  0.00    +0.000 N 
ATOM     12  O   UNL     1      47.754   1.209   6.454  0.00  0.00    +0.000 OA
ATOM     13  H   UNL     1      46.708   3.895   5.128  0.00  0.00    +0.000 HD
ATOM     14  H   UNL     1      47.703   2.641   4.478  0.00  0.00    +0.000 HD
ENDBRANCH   6  10
BRANCH   1  15
ATOM     15  C   UNL     1      43.658   5.777  10.768  0.00  0.00    +0.000 C 
BRANCH  15  19
ATOM     16  C   UNL     1      46.943   7.151  13.224  0.00  0.00    +0.000 C 
ATOM     17  C   UNL     1      46.288   5.791  13.507  0.00  0.00    +0.000 C 
ATOM     18  C   UNL     1      45.423   5.305  12.344  0.00  0.00    +0.000 C 
ATOM     19  N   UNL     1      44.339   6.246  12.005  0.00  0.00    +0.000 NA
ATOM     20  C   UNL     1      44.879   7.606  11.771  0.00  0.00    +0.000 C 
ATOM     21  C   UNL     1      45.811   8.126  12.879  0.00  0.00    +0.000 C 
BRANCH  16  22
ATOM     22  C   UNL     1      48.065   7.023  12.169  0.00  0.00    +0.000 C 
BRANCH  22  23
ATOM     23  N   UNL     1      49.365   6.622  12.699  0.00  0.00    +0.000 NA
ATOM     24  H   UNL     1      49.218   6.026  13.516  0.00  0.00    +0.000 HD
ATOM     25  H   UNL     1      49.863   7.444  13.053  0.00  0.00    +0.000 HD
ENDBRANCH  22  23
ENDBRANCH  16  22
ENDBRANCH  15  19
ENDBRANCH   1  15
TORSDOF 5
ENDMDL
MODEL 2
REMARK VINA RESULT:    -6.626      4.070      5.715
REMARK INTER + INTRA:          -8.153
REMARK INTER:                  -8.215
REMARK INTRA:                   0.063
REMARK UNBOUND:                 0.217
REMARK  Name = 
REMARK  5 active torsions:
REMARK  status: ('A' for Active; 'I' for Inactive)
REMARK    1  A    between atoms: N_1  and  C_2
REMARK    2  A    between atoms: C_2  and  C_3
REMARK    3  A    between atoms: N_6  and  C_7
REMARK    4  A    between atoms: C_7  and  N_8
REMARK    5  A    between atoms: C_13  and  C_14
REMARK                            x       y       z     vdW  Elec       q    Type
REMARK                         _______ _______ _______ _____ _____    ______ ____
ROOT
ATOM      1  N   UNL     1      46.754   5.069  14.288  0.00  0.00    +0.000 N 
ATOM      2  C   UNL     1      47.492   6.124  13.811  0.00  0.00    +0.000 A 
ATOM      3  N   UNL     1      47.248   6.360  12.537  0.00  0.00    +0.000 NA
ATOM      4  C   UNL     1      46.325   5.415  12.169  0.00  0.00    +0.000 A 
ATOM      5  C   UNL     1      45.764   5.114  10.915  0.00  0.00    +0.000 A 
ATOM      6  C   UNL     1      44.896   4.012  10.850  0.00  0.00    +0.000 A 
ATOM      7  C   UNL     1      44.593   3.330  12.036  0.00  0.00    +0.000 A 
ATOM      8  N   UNL     1      45.079   3.612  13.275  0.00  0.00    +0.000 NA
ATOM      9  C   UNL     1      45.961   4.629  13.259  0.00  0.00    +0.000 A 
ENDROOT
BRANCH   6  10
ATOM     10  C   UNL     1      44.324   3.476   9.591  0.00  0.00    +0.000 C 
ATOM     11  N   UNL     1      44.083   4.343   8.561  0.00  0.00    +0.000 N 
ATOM     12  O   UNL     1      44.082   2.289   9.456  0.00  0.00    +0.000 OA
ATOM     13  H   UNL     1      44.210   5.342   8.599  0.00  0.00    +0.000 HD
ATOM     14  H   UNL     1      43.680   3.955   7.718  0.00  0.00    +0.000 HD
ENDBRANCH   6  10
BRANCH   1  15
ATOM     15  C   UNL     1      46.850   4.456  15.609  0.00  0.00    +0.000 C 
BRANCH  15  19
ATOM     16  C   UNL     1      50.166   4.414  18.385  0.00  0.00    +0.000 C 
ATOM     17  C   UNL     1      50.022   5.563  17.377  0.00  0.00    +0.000 C 
ATOM     18  C   UNL     1      48.630   5.619  16.748  0.00  0.00    +0.000 C 
ATOM     19  N   UNL     1      48.271   4.375  16.042  0.00  0.00    +0.000 NA
ATOM     20  C   UNL     1      48.437   3.200  16.930  0.00  0.00    +0.000 C 
ATOM     21  C   UNL     1      49.799   3.124  17.644  0.00  0.00    +0.000 C 
BRANCH  16  22
ATOM     22  C   UNL     1      49.365   4.699  19.676  0.00  0.00    +0.000 C 
BRANCH  22  23
ATOM     23  N   UNL     1      48.659   3.547  20.229  0.00  0.00    +0.000 NA
ATOM     24  H   UNL     1      49.209   2.705  20.048  0.00  0.00    +0.000 HD
ATOM     25  H   UNL     1      47.779   3.405  19.724  0.00  0.00    +0.000 HD
ENDBRANCH  22  23
ENDBRANCH  16  22
ENDBRANCH  15  19
ENDBRANCH   1  15
TORSDOF 5
ENDMDL
MODEL 3
REMARK VINA RESULT:    -6.300      4.827      8.440
REMARK INTER + INTRA:          -7.740
REMARK INTER:                  -7.283
REMARK INTRA:                  -0.457
REMARK UNBOUND:                 0.217
REMARK  Name = 
REMARK  5 active torsions:
REMARK  status: ('A' for Active; 'I' for Inactive)
REMARK    1  A    between atoms: N_1  and  C_2
REMARK    2  A    between atoms: C_2  and  C_3
REMARK    3  A    between atoms: N_6  and  C_7
REMARK    4  A    between atoms: C_7  and  N_8
REMARK    5  A    between atoms: C_13  and  C_14
REMARK                            x       y       z     vdW  Elec       q    Type
REMARK                         _______ _______ _______ _____ _____    ______ ____
ROOT
ATOM      1  N   UNL     1      48.036   6.148  14.448  0.00  0.00    +0.000 N 
ATOM      2  C   UNL     1      48.383   7.476  14.487  0.00  0.00    +0.000 A 
ATOM      3  N   UNL     1      48.770   7.849  15.691  0.00  0.00    +0.000 NA
ATOM      4  C   UNL     1      48.658   6.723  16.466  0.00  0.00    +0.000 A 
ATOM      5  C   UNL     1      48.839   6.534  17.848  0.00  0.00    +0.000 A 
ATOM      6  C   UNL     1      48.561   5.257  18.361  0.00  0.00    +0.000 A 
ATOM      7  C   UNL     1      48.190   4.245  17.467  0.00  0.00    +0.000 A 
ATOM      8  N   UNL     1      48.044   4.372  16.120  0.00  0.00    +0.000 NA
ATOM      9  C   UNL     1      48.252   5.634  15.701  0.00  0.00    +0.000 A 
ENDROOT
BRANCH   6  10
ATOM     10  C   UNL     1      48.570   4.920  19.806  0.00  0.00    +0.000 C 
ATOM     11  N   UNL     1      48.494   3.604  20.171  0.00  0.00    +0.000 N 
ATOM     12  O   UNL     1      48.657   5.784  20.660  0.00  0.00    +0.000 OA
ATOM     13  H   UNL     1      48.375   2.830  19.537  0.00  0.00    +0.000 HD
ATOM     14  H   UNL     1      48.490   3.402  21.162  0.00  0.00    +0.000 HD
ENDBRANCH   6  10
BRANCH   1  15
ATOM     15  C   UNL     1      47.455   5.425  13.320  0.00  0.00    +0.000 C 
BRANCH  15  19
ATOM     16  C   UNL     1      43.537   5.444  11.490  0.00  0.00    +0.000 C 
ATOM     17  C   UNL     1      44.516   6.596  11.222  0.00  0.00    +0.000 C 
ATOM     18  C   UNL     1      45.949   6.253  11.627  0.00  0.00    +0.000 C 
ATOM     19  N   UNL     1      46.071   5.902  13.055  0.00  0.00    +0.000 NA
ATOM     20  C   UNL     1      45.115   4.830  13.416  0.00  0.00    +0.000 C 
ATOM     21  C   UNL     1      43.664   5.089  12.976  0.00  0.00    +0.000 C 
BRANCH  16  22
ATOM     22  C   UNL     1      43.760   4.278  10.499  0.00  0.00    +0.000 C 
BRANCH  22  23
ATOM     23  N   UNL     1      43.764   4.662   9.090  0.00  0.00    +0.000 NA
ATOM     24  H   UNL     1      42.890   5.148   8.879  0.00  0.00    +0.000 HD
ATOM     25  H   UNL     1      43.751   3.823   8.503  0.00  0.00    +0.000 HD
ENDBRANCH  22  23
ENDBRANCH  16  22
ENDBRANCH  15  19
ENDBRANCH   1  15
TORSDOF 5
ENDMDL
MODEL 4
REMARK VINA RESULT:    -6.204      2.782      6.578
REMARK INTER + INTRA:          -7.619
REMARK INTER:                  -8.053
REMARK INTRA:                   0.433
REMARK UNBOUND:                 0.217
REMARK  Name = 
REMARK  5 active torsions:
REMARK  status: ('A' for Active; 'I' for Inactive)
REMARK    1  A    between atoms: N_1  and  C_2
REMARK    2  A    between atoms: C_2  and  C_3
REMARK    3  A    between atoms: N_6  and  C_7
REMARK    4  A    between atoms: C_7  and  N_8
REMARK    5  A    between atoms: C_13  and  C_14
REMARK                            x       y       z     vdW  Elec       q    Type
REMARK                         _______ _______ _______ _____ _____    ______ ____
ROOT
ATOM      1  N   UNL     1      45.191   4.553  11.029  0.00  0.00    +0.000 N 
ATOM      2  C   UNL     1      44.481   3.516  11.582  0.00  0.00    +0.000 A 
ATOM      3  N   UNL     1      44.742   3.369  12.865  0.00  0.00    +0.000 NA
ATOM      4  C   UNL     1      45.667   4.340  13.155  0.00  0.00    +0.000 A 
ATOM      5  C   UNL     1      46.383   4.608  14.335  0.00  0.00    +0.000 A 
ATOM      6  C   UNL     1      47.336   5.637  14.285  0.00  0.00    +0.000 A 
ATOM      7  C   UNL     1      47.466   6.370  13.099  0.00  0.00    +0.000 A 
ATOM      8  N   UNL     1      46.767   6.173  11.949  0.00  0.00    +0.000 NA
ATOM      9  C   UNL     1      45.924   5.127  12.036  0.00  0.00    +0.000 A 
ENDROOT
BRANCH   6  10
ATOM     10  C   UNL     1      48.269   5.964  15.392  0.00  0.00    +0.000 C 
ATOM     11  N   UNL     1      48.493   7.280  15.692  0.00  0.00    +0.000 N 
ATOM     12  O   UNL     1      48.818   5.090  16.040  0.00  0.00    +0.000 OA
ATOM     13  H   UNL     1      48.118   8.064  15.184  0.00  0.00    +0.000 HD
ATOM     14  H   UNL     1      49.142   7.475  16.443  0.00  0.00    +0.000 HD
ENDBRANCH   6  10
BRANCH   1  15
ATOM     15  C   UNL     1      45.241   4.930   9.620  0.00  0.00    +0.000 C 
BRANCH  15  19
ATOM     16  C   UNL     1      46.489   1.688   7.043  0.00  0.00    +0.000 C 
ATOM     17  C   UNL     1      45.611   2.818   6.486  0.00  0.00    +0.000 C 
ATOM     18  C   UNL     1      45.580   4.041   7.403  0.00  0.00    +0.000 C 
ATOM     19  N   UNL     1      45.080   3.730   8.755  0.00  0.00    +0.000 NA
ATOM     20  C   UNL     1      45.840   2.604   9.349  0.00  0.00    +0.000 C 
ATOM     21  C   UNL     1      45.961   1.365   8.445  0.00  0.00    +0.000 C 
BRANCH  16  22
ATOM     22  C   UNL     1      47.989   2.052   6.956  0.00  0.00    +0.000 C 
BRANCH  22  23
ATOM     23  N   UNL     1      48.600   1.834   5.648  0.00  0.00    +0.000 NA
ATOM     24  H   UNL     1      47.912   2.048   4.923  0.00  0.00    +0.000 HD
ATOM     25  H   UNL     1      48.815   0.840   5.527  0.00  0.00    +0.000 HD
ENDBRANCH  22  23
ENDBRANCH  16  22
ENDBRANCH  15  19
ENDBRANCH   1  15
TORSDOF 5
ENDMDL
MODEL 5
REMARK VINA RESULT:    -6.023      3.733      5.811
REMARK INTER + INTRA:          -7.391
REMARK INTER:                  -6.983
REMARK INTRA:                  -0.408
REMARK UNBOUND:                 0.217
REMARK  Name = 
REMARK  5 active torsions:
REMARK  status: ('A' for Active; 'I' for Inactive)
REMARK    1  A    between atoms: N_1  and  C_2
REMARK    2  A    between atoms: C_2  and  C_3
REMARK    3  A    between atoms: N_6  and  C_7
REMARK    4  A    between atoms: C_7  and  N_8
REMARK    5  A    between atoms: C_13  and  C_14
REMARK                            x       y       z     vdW  Elec       q    Type
REMARK                         _______ _______ _______ _____ _____    ______ ____
ROOT
ATOM      1  N   UNL     1      47.437   7.088  13.640  0.00  0.00    +0.000 N 
ATOM      2  C   UNL     1      46.939   8.358  13.483  0.00  0.00    +0.000 A 
ATOM      3  N   UNL     1      45.801   8.362  12.819  0.00  0.00    +0.000 NA
ATOM      4  C   UNL     1      45.556   7.046  12.521  0.00  0.00    +0.000 A 
ATOM      5  C   UNL     1      44.544   6.448  11.749  0.00  0.00    +0.000 A 
ATOM      6  C   UNL     1      44.620   5.060  11.559  0.00  0.00    +0.000 A 
ATOM      7  C   UNL     1      45.646   4.353  12.198  0.00  0.00    +0.000 A 
ATOM      8  N   UNL     1      46.620   4.883  12.987  0.00  0.00    +0.000 NA
ATOM      9  C   UNL     1      46.538   6.225  13.068  0.00  0.00    +0.000 A 
ENDROOT
BRANCH   6  10
ATOM     10  C   UNL     1      43.716   4.290  10.669  0.00  0.00    +0.000 C 
ATOM     11  N   UNL     1      43.772   4.522   9.321  0.00  0.00    +0.000 N 
ATOM     12  O   UNL     1      42.946   3.456  11.111  0.00  0.00    +0.000 OA
ATOM     13  H   UNL     1      44.344   5.221   8.875  0.00  0.00    +0.000 HD
ATOM     14  H   UNL     1      43.137   3.993   8.738  0.00  0.00    +0.000 HD
ENDBRANCH   6  10
BRANCH   1  15
ATOM     15  C   UNL     1      48.725   6.715  14.217  0.00  0.00    +0.000 C 
BRANCH  15  19
ATOM     16  C   UNL     1      49.650   5.396  18.231  0.00  0.00    +0.000 C 
ATOM     17  C   UNL     1      48.246   5.169  17.652  0.00  0.00    +0.000 C 
ATOM     18  C   UNL     1      48.203   5.346  16.134  0.00  0.00    +0.000 C 
ATOM     19  N   UNL     1      48.640   6.688  15.702  0.00  0.00    +0.000 NA
ATOM     20  C   UNL     1      49.970   7.014  16.267  0.00  0.00    +0.000 C 
ATOM     21  C   UNL     1      50.095   6.793  17.785  0.00  0.00    +0.000 C 
BRANCH  16  22
ATOM     22  C   UNL     1      50.602   4.236  17.858  0.00  0.00    +0.000 C 
BRANCH  22  23
ATOM     23  N   UNL     1      50.081   2.900  18.134  0.00  0.00    +0.000 NA
ATOM     24  H   UNL     1      50.083   2.747  19.144  0.00  0.00    +0.000 HD
ATOM     25  H   UNL     1      50.720   2.195  17.755  0.00  0.00    +0.000 HD
ENDBRANCH  22  23
ENDBRANCH  16  22
ENDBRANCH  15  19
ENDBRANCH   1  15
TORSDOF 5
ENDMDL
MODEL 6
REMARK VINA RESULT:    -5.942      3.200      5.264
REMARK INTER + INTRA:          -7.288
REMARK INTER:                  -6.829
REMARK INTRA:                  -0.459
REMARK UNBOUND:                 0.217
REMARK  Name = 
REMARK  5 active torsions:
REMARK  status: ('A' for Active; 'I' for Inactive)
REMARK    1  A    between atoms: N_1  and  C_2
REMARK    2  A    between atoms: C_2  and  C_3
REMARK    3  A    between atoms: N_6  and  C_7
REMARK    4  A    between atoms: C_7  and  N_8
REMARK    5  A    between atoms: C_13  and  C_14
REMARK                            x       y       z     vdW  Elec       q    Type
REMARK                         _______ _______ _______ _____ _____    ______ ____
ROOT
ATOM      1  N   UNL     1      47.582   5.908  14.136  0.00  0.00    +0.000 N 
ATOM      2  C   UNL     1      47.575   4.871  15.036  0.00  0.00    +0.000 A 
ATOM      3  N   UNL     1      46.839   3.860  14.618  0.00  0.00    +0.000 NA
ATOM      4  C   UNL     1      46.338   4.262  13.406  0.00  0.00    +0.000 A 
ATOM      5  C   UNL     1      45.417   3.644  12.540  0.00  0.00    +0.000 A 
ATOM      6  C   UNL     1      45.036   4.362  11.395  0.00  0.00    +0.000 A 
ATOM      7  C   UNL     1      45.638   5.604  11.154  0.00  0.00    +0.000 A 
ATOM      8  N   UNL     1      46.562   6.218  11.941  0.00  0.00    +0.000 NA
ATOM      9  C   UNL     1      46.829   5.516  13.058  0.00  0.00    +0.000 A 
ENDROOT
BRANCH   6  10
ATOM     10  C   UNL     1      43.982   3.922  10.449  0.00  0.00    +0.000 C 
ATOM     11  N   UNL     1      43.958   4.469   9.195  0.00  0.00    +0.000 N 
ATOM     12  O   UNL     1      43.157   3.080  10.761  0.00  0.00    +0.000 OA
ATOM     13  H   UNL     1      44.570   5.199   8.868  0.00  0.00    +0.000 HD
ATOM     14  H   UNL     1      43.222   4.160   8.573  0.00  0.00    +0.000 HD
ENDBRANCH   6  10
BRANCH   1  15
ATOM     15  C   UNL     1      48.190   7.223  14.316  0.00  0.00    +0.000 C 
BRANCH  15  19
ATOM     16  C   UNL     1      51.972   8.911  13.070  0.00  0.00    +0.000 C 
ATOM     17  C   UNL     1      51.082   8.182  12.052  0.00  0.00    +0.000 C 
ATOM     18  C   UNL     1      49.653   7.987  12.557  0.00  0.00    +0.000 C 
ATOM     19  N   UNL     1      49.591   7.220  13.815  0.00  0.00    +0.000 NA
ATOM     20  C   UNL     1      50.470   7.825  14.843  0.00  0.00    +0.000 C 
ATOM     21  C   UNL     1      51.908   8.105  14.372  0.00  0.00    +0.000 C 
BRANCH  16  22
ATOM     22  C   UNL     1      51.585  10.403  13.183  0.00  0.00    +0.000 C 
BRANCH  22  23
ATOM     23  N   UNL     1      51.999  11.054  14.422  0.00  0.00    +0.000 NA
ATOM     24  H   UNL     1      51.409  11.874  14.578  0.00  0.00    +0.000 HD
ATOM     25  H   UNL     1      52.948  11.424  14.320  0.00  0.00    +0.000 HD
ENDBRANCH  22  23
ENDBRANCH  16  22
ENDBRANCH  15  19
ENDBRANCH   1  15
TORSDOF 5
ENDMDL
MODEL 7
REMARK VINA RESULT:    -5.855      4.654      6.475
REMARK INTER + INTRA:          -7.178
REMARK INTER:                  -6.780
REMARK INTRA:                  -0.398
REMARK UNBOUND:                 0.217
REMARK  Name = 
REMARK  5 active torsions:
REMARK  status: ('A' for Active; 'I' for Inactive)
REMARK    1  A    between atoms: N_1  and  C_2
REMARK    2  A    between atoms: C_2  and  C_3
REMARK    3  A    between atoms: N_6  and  C_7
REMARK    4  A    between atoms: C_7  and  N_8
REMARK    5  A    between atoms: C_13  and  C_14
REMARK                            x       y       z     vdW  Elec       q    Type
REMARK                         _______ _______ _______ _____ _____    ______ ____
ROOT
ATOM      1  N   UNL     1      46.246   4.883  13.414  0.00  0.00    +0.000 N 
ATOM      2  C   UNL     1      44.899   4.621  13.379  0.00  0.00    +0.000 A 
ATOM      3  N   UNL     1      44.209   5.651  12.929  0.00  0.00    +0.000 NA
ATOM      4  C   UNL     1      45.142   6.623  12.676  0.00  0.00    +0.000 A 
ATOM      5  C   UNL     1      44.992   7.962  12.274  0.00  0.00    +0.000 A 
ATOM      6  C   UNL     1      46.159   8.737  12.181  0.00  0.00    +0.000 A 
ATOM      7  C   UNL     1      47.392   8.119  12.426  0.00  0.00    +0.000 A 
ATOM      8  N   UNL     1      47.587   6.819  12.776  0.00  0.00    +0.000 NA
ATOM      9  C   UNL     1      46.428   6.150  12.921  0.00  0.00    +0.000 A 
ENDROOT
BRANCH   6  10
ATOM     10  C   UNL     1      46.171  10.194  11.902  0.00  0.00    +0.000 C 
ATOM     11  N   UNL     1      45.046  10.923  12.176  0.00  0.00    +0.000 N 
ATOM     12  O   UNL     1      47.159  10.748  11.452  0.00  0.00    +0.000 OA
ATOM     13  H   UNL     1      44.173  10.542  12.505  0.00  0.00    +0.000 HD
ATOM     14  H   UNL     1      45.076  11.912  11.965  0.00  0.00    +0.000 HD
ENDBRANCH   6  10
BRANCH   1  15
ATOM     15  C   UNL     1      47.293   4.025  13.959  0.00  0.00    +0.000 C 
BRANCH  15  19
ATOM     16  C   UNL     1      48.917   4.014  17.968  0.00  0.00    +0.000 C 
ATOM     17  C   UNL     1      48.063   2.835  17.482  0.00  0.00    +0.000 C 
ATOM     18  C   UNL     1      47.893   2.822  15.963  0.00  0.00    +0.000 C 
ATOM     19  N   UNL     1      47.267   4.053  15.447  0.00  0.00    +0.000 NA
ATOM     20  C   UNL     1      47.999   5.252  15.918  0.00  0.00    +0.000 C 
ATOM     21  C   UNL     1      48.258   5.291  17.435  0.00  0.00    +0.000 C 
BRANCH  16  22
ATOM     22  C   UNL     1      50.404   3.818  17.594  0.00  0.00    +0.000 C 
BRANCH  22  23
ATOM     23  N   UNL     1      50.976   2.536  17.995  0.00  0.00    +0.000 NA
ATOM     24  H   UNL     1      50.280   1.803  17.845  0.00  0.00    +0.000 HD
ATOM     25  H   UNL     1      51.152   2.536  19.004  0.00  0.00    +0.000 HD
ENDBRANCH  22  23
ENDBRANCH  16  22
ENDBRANCH  15  19
ENDBRANCH   1  15
TORSDOF 5
ENDMDL
MODEL 8
REMARK VINA RESULT:    -5.797      4.803      8.269
REMARK INTER + INTRA:          -7.106
REMARK INTER:                  -6.714
REMARK INTRA:                  -0.392
REMARK UNBOUND:                 0.217
REMARK  Name = 
REMARK  5 active torsions:
REMARK  status: ('A' for Active; 'I' for Inactive)
REMARK    1  A    between atoms: N_1  and  C_2
REMARK    2  A    between atoms: C_2  and  C_3
REMARK    3  A    between atoms: N_6  and  C_7
REMARK    4  A    between atoms: C_7  and  N_8
REMARK    5  A    between atoms: C_13  and  C_14
REMARK                            x       y       z     vdW  Elec       q    Type
REMARK                         _______ _______ _______ _____ _____    ______ ____
ROOT
ATOM      1  N   UNL     1      47.329   4.636  15.250  0.00  0.00    +0.000 N 
ATOM      2  C   UNL     1      46.817   3.767  16.183  0.00  0.00    +0.000 A 
ATOM      3  N   UNL     1      47.387   3.920  17.362  0.00  0.00    +0.000 NA
ATOM      4  C   UNL     1      48.313   4.915  17.185  0.00  0.00    +0.000 A 
ATOM      5  C   UNL     1      49.282   5.439  18.060  0.00  0.00    +0.000 A 
ATOM      6  C   UNL     1      50.152   6.412  17.543  0.00  0.00    +0.000 A 
ATOM      7  C   UNL     1      49.960   6.846  16.225  0.00  0.00    +0.000 A 
ATOM      8  N   UNL     1      49.012   6.399  15.358  0.00  0.00    +0.000 NA
ATOM      9  C   UNL     1      48.260   5.416  15.887  0.00  0.00    +0.000 A 
ENDROOT
BRANCH   6  10
ATOM     10  C   UNL     1      51.310   6.972  18.282  0.00  0.00    +0.000 C 
ATOM     11  N   UNL     1      51.904   8.108  17.804  0.00  0.00    +0.000 N 
ATOM     12  O   UNL     1      51.724   6.452  19.303  0.00  0.00    +0.000 OA
ATOM     13  H   UNL     1      51.658   8.577  16.948  0.00  0.00    +0.000 HD
ATOM     14  H   UNL     1      52.700   8.462  18.320  0.00  0.00    +0.000 HD
ENDBRANCH   6  10
BRANCH   1  15
ATOM     15  C   UNL     1      47.021   4.673  13.823  0.00  0.00    +0.000 C 
BRANCH  15  19
ATOM     16  C   UNL     1      43.303   4.348  11.638  0.00  0.00    +0.000 C 
ATOM     17  C   UNL     1      43.381   5.225  12.896  0.00  0.00    +0.000 C 
ATOM     18  C   UNL     1      44.821   5.522  13.314  0.00  0.00    +0.000 C 
ATOM     19  N   UNL     1      45.600   4.299  13.588  0.00  0.00    +0.000 NA
ATOM     20  C   UNL     1      45.532   3.365  12.440  0.00  0.00    +0.000 C 
ATOM     21  C   UNL     1      44.108   3.077  11.931  0.00  0.00    +0.000 C 
BRANCH  16  22
ATOM     22  C   UNL     1      43.728   5.138  10.379  0.00  0.00    +0.000 C 
BRANCH  22  23
ATOM     23  N   UNL     1      43.743   4.361   9.142  0.00  0.00    +0.000 NA
ATOM     24  H   UNL     1      42.796   4.336   8.758  0.00  0.00    +0.000 HD
ATOM     25  H   UNL     1      43.974   3.385   9.349  0.00  0.00    +0.000 HD
ENDBRANCH  22  23
ENDBRANCH  16  22
ENDBRANCH  15  19
ENDBRANCH   1  15
TORSDOF 5
ENDMDL
MODEL 9
REMARK VINA RESULT:    -5.470      4.026      6.182
REMARK INTER + INTRA:          -6.693
REMARK INTER:                  -6.268
REMARK INTRA:                  -0.425
REMARK UNBOUND:                 0.217
REMARK  Name = 
REMARK  5 active torsions:
REMARK  status: ('A' for Active; 'I' for Inactive)
REMARK    1  A    between atoms: N_1  and  C_2
REMARK    2  A    between atoms: C_2  and  C_3
REMARK    3  A    between atoms: N_6  and  C_7
REMARK    4  A    between atoms: C_7  and  N_8
REMARK    5  A    between atoms: C_13  and  C_14
REMARK                            x       y       z     vdW  Elec       q    Type
REMARK                         _______ _______ _______ _____ _____    ______ ____
ROOT
ATOM      1  N   UNL     1      47.880   5.677  15.122  0.00  0.00    +0.000 N 
ATOM      2  C   UNL     1      47.588   4.508  15.781  0.00  0.00    +0.000 A 
ATOM      3  N   UNL     1      46.800   3.726  15.070  0.00  0.00    +0.000 NA
ATOM      4  C   UNL     1      46.559   4.420  13.912  0.00  0.00    +0.000 A 
ATOM      5  C   UNL     1      45.716   4.132  12.823  0.00  0.00    +0.000 A 
ATOM      6  C   UNL     1      45.624   5.101  11.812  0.00  0.00    +0.000 A 
ATOM      7  C   UNL     1      46.419   6.250  11.913  0.00  0.00    +0.000 A 
ATOM      8  N   UNL     1      47.278   6.549  12.924  0.00  0.00    +0.000 NA
ATOM      9  C   UNL     1      47.265   5.619  13.898  0.00  0.00    +0.000 A 
ENDROOT
BRANCH   6  10
ATOM     10  C   UNL     1      44.687   5.021  10.664  0.00  0.00    +0.000 C 
ATOM     11  N   UNL     1      43.531   5.753  10.711  0.00  0.00    +0.000 N 
ATOM     12  O   UNL     1      44.933   4.336   9.688  0.00  0.00    +0.000 OA
ATOM     13  H   UNL     1      43.226   6.309  11.494  0.00  0.00    +0.000 HD
ATOM     14  H   UNL     1      42.904   5.670   9.922  0.00  0.00    +0.000 HD
ENDBRANCH   6  10
BRANCH   1  15
ATOM     15  C   UNL     1      48.622   6.819  15.648  0.00  0.00    +0.000 C 
BRANCH  15  19
ATOM     16  C   UNL     1      52.852   7.607  16.091  0.00  0.00    +0.000 C 
ATOM     17  C   UNL     1      52.152   7.897  14.756  0.00  0.00    +0.000 C 
ATOM     18  C   UNL     1      50.629   7.920  14.886  0.00  0.00    +0.000 C 
ATOM     19  N   UNL     1      50.079   6.650  15.397  0.00  0.00    +0.000 NA
ATOM     20  C   UNL     1      50.744   6.263  16.664  0.00  0.00    +0.000 C 
ATOM     21  C   UNL     1      52.282   6.283  16.613  0.00  0.00    +0.000 C 
BRANCH  16  22
ATOM     22  C   UNL     1      52.743   8.812  17.053  0.00  0.00    +0.000 C 
BRANCH  22  23
ATOM     23  N   UNL     1      53.045   8.514  18.449  0.00  0.00    +0.000 NA
ATOM     24  H   UNL     1      54.022   8.223  18.521  0.00  0.00    +0.000 HD
ATOM     25  H   UNL     1      52.501   7.701  18.755  0.00  0.00    +0.000 HD
ENDBRANCH  22  23
ENDBRANCH  16  22
ENDBRANCH  15  19
ENDBRANCH   1  15
TORSDOF 5
ENDMDL
