MODEL 1
REMARK VINA RESULT:    -7.617      0.000      0.000
REMARK INTER + INTRA:         -11.522
REMARK INTER:                 -10.734
REMARK INTRA:                  -0.789
REMARK UNBOUND:                -0.789
REMARK  Name = 
REMARK  9 active torsions:
REMARK  status: ('A' for Active; 'I' for Inactive)
REMARK    1  A    between atoms: C_1  and  N_2
REMARK    2  A    between atoms: N_2  and  C_3
REMARK    3  A    between atoms: N_2  and  C_4
REMARK    4  A    between atoms: C_6  and  C_7
REMARK    5  A    between atoms: C_12  and  N_13
REMARK    6  A    between atoms: N_13  and  C_14
REMARK    7  A    between atoms: C_14  and  C_15
REMARK    8  A    between atoms: C_18  and  O_19
REMARK    9  A    between atoms: O_19  and  C_20
REMARK                            x       y       z     vdW  Elec       q    Type
REMARK                         _______ _______ _______ _____ _____    ______ ____
ROOT
ATOM      1  N   UNL     1      44.821   6.268  12.817  0.00  0.00    +0.000 N 
ATOM      2  H   UNL     1      44.343   7.091  13.186  0.00  0.00    +0.000 HD
ENDROOT
BRANCH   1   8
ATOM      3  C   UNL     1      47.142   5.845  13.450  0.00  0.00    +0.000 A 
ATOM      4  C   UNL     1      48.483   6.292  13.434  0.00  0.00    +0.000 A 
ATOM      5  C   UNL     1      48.910   7.365  12.634  0.00  0.00    +0.000 A 
ATOM      6  C   UNL     1      47.993   7.967  11.778  0.00  0.00    +0.000 A 
ATOM      7  C   UNL     1      46.658   7.547  11.774  0.00  0.00    +0.000 A 
ATOM      8  C   UNL     1      46.195   6.575  12.666  0.00  0.00    +0.000 A 
BRANCH   5   9
ATOM      9  C   UNL     1      50.343   7.787  12.724  0.00  0.00    +0.000 C 
ATOM     10  N   UNL     1      50.968   7.743  13.932  0.00  0.00    +0.000 N 
ATOM     11  O   UNL     1      50.964   8.146  11.728  0.00  0.00    +0.000 OA
ATOM     12  H   UNL     1      50.567   7.390  14.787  0.00  0.00    +0.000 HD
ATOM     13  H   UNL     1      51.947   7.997  13.942  0.00  0.00    +0.000 HD
ENDBRANCH   5   9
BRANCH   3  15
ATOM     14  C   UNL     1      47.225   4.642  15.600  0.00  0.00    +0.000 C 
ATOM     15  N   UNL     1      46.732   4.718  14.221  0.00  0.00    +0.000 N 
ATOM     16  C   UNL     1      46.831   3.439  13.501  0.00  0.00    +0.000 C 
ENDBRANCH   3  15
ENDBRANCH   1   8
BRANCH   1  17
ATOM     17  C   UNL     1      44.009   5.206  12.212  0.00  0.00    +0.000 C 
ATOM     18  C   UNL     1      42.505   5.501  12.221  0.00  0.00    +0.000 C 
ATOM     19  C   UNL     1      43.039   4.392  13.049  0.00  0.00    +0.000 C 
BRANCH  17  20
ATOM     20  C   UNL     1      44.561   4.549  10.944  0.00  0.00    +0.000 A 
ATOM     21  C   UNL     1      44.333   3.191  10.659  0.00  0.00    +0.000 A 
ATOM     22  C   UNL     1      44.777   2.583   9.485  0.00  0.00    +0.000 A 
ATOM     23  C   UNL     1      45.356   3.351   8.488  0.00  0.00    +0.000 A 
ATOM     24  C   UNL     1      45.624   4.697   8.746  0.00  0.00    +0.000 A 
ATOM     25  C   UNL     1      45.250   5.278   9.965  0.00  0.00    +0.000 A 
BRANCH  23  26
ATOM     26  O   UNL     1      45.700   2.912   7.249  0.00  0.00    +0.000 OA
BRANCH  26  27
ATOM     27  C   UNL     1      46.896   2.167   7.083  0.00  0.00    +0.000 C 
ATOM     28  F   UNL     1      47.022   1.113   7.921  0.00  0.00    +0.000 F 
ATOM     29  F   UNL     1      46.923   1.671   5.820  0.00  0.00    +0.000 F 
ATOM     30  F   UNL     1      47.964   2.981   7.230  0.00  0.00    +0.000 F 
ENDBRANCH  26  27
ENDBRANCH  23  26
ENDBRANCH  17  20
ENDBRANCH   1  17
TORSDOF 7
ENDMDL
MODEL 2
REMARK VINA RESULT:    -7.361      1.075      2.395
REMARK INTER + INTRA:         -11.162
REMARK INTER:                 -10.841
REMARK INTRA:                  -0.321
REMARK UNBOUND:                -0.789
REMARK  Name = 
REMARK  9 active torsions:
REMARK  status: ('A' for Active; 'I' for Inactive)
REMARK    1  A    between atoms: C_1  and  N_2
REMARK    2  A    between atoms: N_2  and  C_3
REMARK    3  A    between atoms: N_2  and  C_4
REMARK    4  A    between atoms: C_6  and  C_7
REMARK    5  A    between atoms: C_12  and  N_13
REMARK    6  A    between atoms: N_13  and  C_14
REMARK    7  A    between atoms: C_14  and  C_15
REMARK    8  A    between atoms: C_18  and  O_19
REMARK    9  A    between atoms: O_19  and  C_20
REMARK                            x       y       z     vdW  Elec       q    Type
REMARK                         _______ _______ _______ _____ _____    ______ ____
ROOT
ATOM      1  N   UNL     1      44.592   6.569  12.540  0.00  0.00    +0.000 N 
ATOM      2  H   UNL     1      44.046   7.431  12.580  0.00  0.00    +0.000 HD
ENDROOT
BRANCH   1   8
ATOM      3  C   UNL     1      46.365   8.225  12.256  0.00  0.00    +0.000 A 
ATOM      4  C   UNL     1      47.752   8.481  12.152  0.00  0.00    +0.000 A 
ATOM      5  C   UNL     1      48.723   7.512  12.456  0.00  0.00    +0.000 A 
ATOM      6  C   UNL     1      48.304   6.276  12.939  0.00  0.00    +0.000 A 
ATOM      7  C   UNL     1      46.938   5.993  13.050  0.00  0.00    +0.000 A 
ATOM      8  C   UNL     1      45.966   6.901  12.619  0.00  0.00    +0.000 A 
BRANCH   5   9
ATOM      9  C   UNL     1      50.163   7.872  12.271  0.00  0.00    +0.000 C 
ATOM     10  N   UNL     1      50.962   7.978  13.369  0.00  0.00    +0.000 N 
ATOM     11  O   UNL     1      50.637   8.047  11.153  0.00  0.00    +0.000 OA
ATOM     12  H   UNL     1      50.684   7.777  14.317  0.00  0.00    +0.000 HD
ATOM     13  H   UNL     1      51.937   8.182  13.197  0.00  0.00    +0.000 HD
ENDBRANCH   5   9
BRANCH   3  15
ATOM     14  C   UNL     1      44.395   8.948  10.963  0.00  0.00    +0.000 C 
ATOM     15  N   UNL     1      45.391   9.233  12.002  0.00  0.00    +0.000 N 
ATOM     16  C   UNL     1      45.951  10.590  11.907  0.00  0.00    +0.000 C 
ENDBRANCH   3  15
ENDBRANCH   1   8
BRANCH   1  17
ATOM     17  C   UNL     1      43.932   5.350  12.059  0.00  0.00    +0.000 C 
ATOM     18  C   UNL     1      42.402   5.408  12.137  0.00  0.00    +0.000 C 
ATOM     19  C   UNL     1      43.146   4.462  13.006  0.00  0.00    +0.000 C 
BRANCH  17  20
ATOM     20  C   UNL     1      44.520   4.691  10.808  0.00  0.00    +0.000 A 
ATOM     21  C   UNL     1      44.150   3.392  10.417  0.00  0.00    +0.000 A 
ATOM     22  C   UNL     1      44.628   2.791   9.253  0.00  0.00    +0.000 A 
ATOM     23  C   UNL     1      45.397   3.525   8.365  0.00  0.00    +0.000 A 
ATOM     24  C   UNL     1      45.807   4.808   8.732  0.00  0.00    +0.000 A 
ATOM     25  C   UNL     1      45.390   5.371   9.946  0.00  0.00    +0.000 A 
BRANCH  23  26
ATOM     26  O   UNL     1      45.804   3.108   7.138  0.00  0.00    +0.000 OA
BRANCH  26  27
ATOM     27  C   UNL     1      46.937   2.260   7.032  0.00  0.00    +0.000 C 
ATOM     28  F   UNL     1      46.963   1.245   7.924  0.00  0.00    +0.000 F 
ATOM     29  F   UNL     1      46.942   1.700   5.796  0.00  0.00    +0.000 F 
ATOM     30  F   UNL     1      48.066   2.991   7.159  0.00  0.00    +0.000 F 
ENDBRANCH  26  27
ENDBRANCH  23  26
ENDBRANCH  17  20
ENDBRANCH   1  17
TORSDOF 7
ENDMDL
MODEL 3
REMARK VINA RESULT:    -7.343      1.792      2.789
REMARK INTER + INTRA:         -11.136
REMARK INTER:                 -10.290
REMARK INTRA:                  -0.846
REMARK UNBOUND:                -0.789
REMARK  Name = 
REMARK  9 active torsions:
REMARK  status: ('A' for Active; 'I' for Inactive)
REMARK    1  A    between atoms: C_1  and  N_2
REMARK    2  A    between atoms: N_2  and  C_3
REMARK    3  A    between atoms: N_2  and  C_4
REMARK    4  A    between atoms: C_6  and  C_7
REMARK    5  A    between atoms: C_12  and  N_13
REMARK    6  A    between atoms: N_13  and  C_14
REMARK    7  A    between atoms: C_14  and  C_15
REMARK    8  A    between atoms: C_18  and  O_19
REMARK    9  A    between atoms: O_19  and  C_20
REMARK                            x       y       z     vdW  Elec       q    Type
REMARK                         _______ _______ _______ _____ _____    ______ ____
ROOT
ATOM      1  N   UNL     1      45.086   5.815  12.010  0.00  0.00    +0.000 N 
ATOM      2  H   UNL     1      45.180   6.681  11.478  0.00  0.00    +0.000 HD
ENDROOT
BRANCH   1   8
ATOM      3  C   UNL     1      46.840   6.996  13.233  0.00  0.00    +0.000 A 
ATOM      4  C   UNL     1      47.875   6.930  14.194  0.00  0.00    +0.000 A 
ATOM      5  C   UNL     1      48.049   5.821  15.040  0.00  0.00    +0.000 A 
ATOM      6  C   UNL     1      47.130   4.779  14.972  0.00  0.00    +0.000 A 
ATOM      7  C   UNL     1      46.097   4.815  14.029  0.00  0.00    +0.000 A 
ATOM      8  C   UNL     1      45.999   5.849  13.092  0.00  0.00    +0.000 A 
BRANCH   5   9
ATOM      9  C   UNL     1      49.203   5.833  15.993  0.00  0.00    +0.000 C 
ATOM     10  N   UNL     1      49.116   5.107  17.141  0.00  0.00    +0.000 N 
ATOM     11  O   UNL     1      50.227   6.461  15.745  0.00  0.00    +0.000 OA
ATOM     12  H   UNL     1      48.352   4.500  17.394  0.00  0.00    +0.000 HD
ATOM     13  H   UNL     1      49.932   5.109  17.738  0.00  0.00    +0.000 HD
ENDBRANCH   5   9
BRANCH   3  15
ATOM     14  C   UNL     1      47.829   8.921  12.053  0.00  0.00    +0.000 C 
ATOM     15  N   UNL     1      46.637   8.150  12.422  0.00  0.00    +0.000 N 
ATOM     16  C   UNL     1      45.517   8.996  12.862  0.00  0.00    +0.000 C 
ENDBRANCH   3  15
ENDBRANCH   1   8
BRANCH   1  17
ATOM     17  C   UNL     1      44.396   4.684  11.380  0.00  0.00    +0.000 C 
ATOM     18  C   UNL     1      42.868   4.813  11.390  0.00  0.00    +0.000 C 
ATOM     19  C   UNL     1      43.519   3.752  12.197  0.00  0.00    +0.000 C 
BRANCH  17  20
ATOM     20  C   UNL     1      45.017   4.118  10.101  0.00  0.00    +0.000 A 
ATOM     21  C   UNL     1      44.925   2.753   9.778  0.00  0.00    +0.000 A 
ATOM     22  C   UNL     1      45.434   2.222   8.593  0.00  0.00    +0.000 A 
ATOM     23  C   UNL     1      45.941   3.069   7.622  0.00  0.00    +0.000 A 
ATOM     24  C   UNL     1      46.075   4.428   7.917  0.00  0.00    +0.000 A 
ATOM     25  C   UNL     1      45.638   4.937   9.148  0.00  0.00    +0.000 A 
BRANCH  23  26
ATOM     26  O   UNL     1      46.334   2.700   6.375  0.00  0.00    +0.000 OA
BRANCH  26  27
ATOM     27  C   UNL     1      47.636   2.168   6.186  0.00  0.00    +0.000 C 
ATOM     28  F   UNL     1      48.604   2.785   6.899  0.00  0.00    +0.000 F 
ATOM     29  F   UNL     1      47.630   0.867   6.571  0.00  0.00    +0.000 F 
ATOM     30  F   UNL     1      47.957   2.208   4.874  0.00  0.00    +0.000 F 
ENDBRANCH  26  27
ENDBRANCH  23  26
ENDBRANCH  17  20
ENDBRANCH   1  17
TORSDOF 7
ENDMDL
MODEL 4
REMARK VINA RESULT:    -6.981      2.133      3.599
REMARK INTER + INTRA:         -10.626
REMARK INTER:                  -9.709
REMARK INTRA:                  -0.917
REMARK UNBOUND:                -0.789
REMARK  Name = 
REMARK  9 active torsions:
REMARK  status: ('A' for Active; 'I' for Inactive)
REMARK    1  A    between atoms: C_1  and  N_2
REMARK    2  A    between atoms: N_2  and  C_3
REMARK    3  A    between atoms: N_2  and  C_4
REMARK    4  A    between atoms: C_6  and  C_7
REMARK    5  A    between atoms: C_12  and  N_13
REMARK    6  A    between atoms: N_13  and  C_14
REMARK    7  A    between atoms: C_14  and  C_15
REMARK    8  A    between atoms: C_18  and  O_19
REMARK    9  A    between atoms: O_19  and  C_20
REMARK                            x       y       z     vdW  Elec       q    Type
REMARK                         _______ _______ _______ _____ _____    ______ ____
ROOT
ATOM      1  N   UNL     1      46.819   5.872  12.737  0.00  0.00    +0.000 N 
ATOM      2  H   UNL     1      47.646   5.905  12.140  0.00  0.00    +0.000 HD
ENDROOT
BRANCH   1   8
ATOM      3  C   UNL     1      48.135   6.430  14.718  0.00  0.00    +0.000 A 
ATOM      4  C   UNL     1      48.679   5.997  15.948  0.00  0.00    +0.000 A 
ATOM      5  C   UNL     1      48.306   4.785  16.554  0.00  0.00    +0.000 A 
ATOM      6  C   UNL     1      47.316   4.015  15.951  0.00  0.00    +0.000 A 
ATOM      7  C   UNL     1      46.760   4.417  14.732  0.00  0.00    +0.000 A 
ATOM      8  C   UNL     1      47.225   5.549  14.054  0.00  0.00    +0.000 A 
BRANCH   5   9
ATOM      9  C   UNL     1      48.976   4.399  17.835  0.00  0.00    +0.000 C 
ATOM     10  N   UNL     1      48.210   3.959  18.872  0.00  0.00    +0.000 N 
ATOM     11  O   UNL     1      50.196   4.449  17.956  0.00  0.00    +0.000 OA
ATOM     12  H   UNL     1      47.213   3.810  18.842  0.00  0.00    +0.000 HD
ATOM     13  H   UNL     1      48.704   3.669  19.705  0.00  0.00    +0.000 HD
ENDBRANCH   5   9
BRANCH   3  15
ATOM     14  C   UNL     1      49.818   7.810  13.561  0.00  0.00    +0.000 C 
ATOM     15  N   UNL     1      48.477   7.688  14.143  0.00  0.00    +0.000 N 
ATOM     16  C   UNL     1      48.102   8.843  14.973  0.00  0.00    +0.000 C 
ENDBRANCH   3  15
ENDBRANCH   1   8
BRANCH   1  17
ATOM     17  C   UNL     1      45.503   5.775  12.095  0.00  0.00    +0.000 C 
ATOM     18  C   UNL     1      44.711   7.087  12.117  0.00  0.00    +0.000 C 
ATOM     19  C   UNL     1      44.227   5.926  12.904  0.00  0.00    +0.000 C 
BRANCH  17  20
ATOM     20  C   UNL     1      45.420   4.957  10.803  0.00  0.00    +0.000 A 
ATOM     21  C   UNL     1      45.907   5.458   9.583  0.00  0.00    +0.000 A 
ATOM     22  C   UNL     1      45.894   4.712   8.404  0.00  0.00    +0.000 A 
ATOM     23  C   UNL     1      45.511   3.382   8.435  0.00  0.00    +0.000 A 
ATOM     24  C   UNL     1      44.996   2.858   9.623  0.00  0.00    +0.000 A 
ATOM     25  C   UNL     1      44.933   3.643  10.782  0.00  0.00    +0.000 A 
BRANCH  23  26
ATOM     26  O   UNL     1      45.587   2.510   7.396  0.00  0.00    +0.000 OA
BRANCH  26  27
ATOM     27  C   UNL     1      46.824   1.879   7.107  0.00  0.00    +0.000 C 
ATOM     28  F   UNL     1      47.912   2.656   7.311  0.00  0.00    +0.000 F 
ATOM     29  F   UNL     1      46.955   0.797   7.915  0.00  0.00    +0.000 F 
ATOM     30  F   UNL     1      46.825   1.442   5.829  0.00  0.00    +0.000 F 
ENDBRANCH  26  27
ENDBRANCH  23  26
ENDBRANCH  17  20
ENDBRANCH   1  17
TORSDOF 7
ENDMDL
MODEL 5
REMARK VINA RESULT:    -6.947      3.237      4.876
REMARK INTER + INTRA:         -10.579
REMARK INTER:                  -9.614
REMARK INTRA:                  -0.965
REMARK UNBOUND:                -0.789
REMARK  Name = 
REMARK  9 active torsions:
REMARK  status: ('A' for Active; 'I' for Inactive)
REMARK    1  A    between atoms: C_1  and  N_2
REMARK    2  A    between atoms: N_2  and  C_3
REMARK    3  A    between atoms: N_2  and  C_4
REMARK    4  A    between atoms: C_6  and  C_7
REMARK    5  A    between atoms: C_12  and  N_13
REMARK    6  A    between atoms: N_13  and  C_14
REMARK    7  A    between atoms: C_14  and  C_15
REMARK    8  A    between atoms: C_18  and  O_19
REMARK    9  A    between atoms: O_19  and  C_20
REMARK                            x       y       z     vdW  Elec       q    Type
REMARK                         _______ _______ _______ _____ _____    ______ ____
ROOT
ATOM      1  N   UNL     1      47.054   5.490  15.200  0.00  0.00    +0.000 N 
ATOM      2  H   UNL     1      46.528   6.054  15.868  0.00  0.00    +0.000 HD
ENDROOT
BRANCH   1   8
ATOM      3  C   UNL     1      48.954   5.236  16.715  0.00  0.00    +0.000 A 
ATOM      4  C   UNL     1      49.932   4.378  17.267  0.00  0.00    +0.000 A 
ATOM      5  C   UNL     1      49.885   2.982  17.114  0.00  0.00    +0.000 A 
ATOM      6  C   UNL     1      48.798   2.420  16.450  0.00  0.00    +0.000 A 
ATOM      7  C   UNL     1      47.815   3.245  15.891  0.00  0.00    +0.000 A 
ATOM      8  C   UNL     1      47.928   4.638  15.919  0.00  0.00    +0.000 A 
BRANCH   5   9
ATOM      9  C   UNL     1      50.994   2.168  17.700  0.00  0.00    +0.000 C 
ATOM     10  N   UNL     1      51.908   2.780  18.502  0.00  0.00    +0.000 N 
ATOM     11  O   UNL     1      51.078   0.961  17.491  0.00  0.00    +0.000 OA
ATOM     12  H   UNL     1      51.878   3.745  18.794  0.00  0.00    +0.000 HD
ATOM     13  H   UNL     1      52.617   2.187  18.911  0.00  0.00    +0.000 HD
ENDBRANCH   5   9
BRANCH   3  15
ATOM     14  C   UNL     1      50.112   7.382  16.354  0.00  0.00    +0.000 C 
ATOM     15  N   UNL     1      48.980   6.645  16.927  0.00  0.00    +0.000 N 
ATOM     16  C   UNL     1      48.674   7.044  18.310  0.00  0.00    +0.000 C 
ENDBRANCH   3  15
ENDBRANCH   1   8
BRANCH   1  17
ATOM     17  C   UNL     1      47.082   5.919  13.797  0.00  0.00    +0.000 C 
ATOM     18  C   UNL     1      48.492   6.218  13.274  0.00  0.00    +0.000 C 
ATOM     19  C   UNL     1      47.514   7.325  13.420  0.00  0.00    +0.000 C 
BRANCH  17  20
ATOM     20  C   UNL     1      46.143   5.192  12.831  0.00  0.00    +0.000 A 
ATOM     21  C   UNL     1      45.779   5.755  11.595  0.00  0.00    +0.000 A 
ATOM     22  C   UNL     1      44.970   5.091  10.673  0.00  0.00    +0.000 A 
ATOM     23  C   UNL     1      44.602   3.775  10.903  0.00  0.00    +0.000 A 
ATOM     24  C   UNL     1      44.922   3.192  12.132  0.00  0.00    +0.000 A 
ATOM     25  C   UNL     1      45.663   3.901  13.087  0.00  0.00    +0.000 A 
BRANCH  23  26
ATOM     26  O   UNL     1      43.942   2.973  10.029  0.00  0.00    +0.000 OA
BRANCH  26  27
ATOM     27  C   UNL     1      44.659   2.359   8.970  0.00  0.00    +0.000 C 
ATOM     28  F   UNL     1      45.997   2.296   9.161  0.00  0.00    +0.000 F 
ATOM     29  F   UNL     1      44.219   1.083   8.833  0.00  0.00    +0.000 F 
ATOM     30  F   UNL     1      44.407   3.009   7.813  0.00  0.00    +0.000 F 
ENDBRANCH  26  27
ENDBRANCH  23  26
ENDBRANCH  17  20
ENDBRANCH   1  17
TORSDOF 7
ENDMDL
MODEL 6
REMARK VINA RESULT:    -6.658      2.897      4.679
REMARK INTER + INTRA:         -10.171
REMARK INTER:                  -9.300
REMARK INTRA:                  -0.871
REMARK UNBOUND:                -0.789
REMARK  Name = 
REMARK  9 active torsions:
REMARK  status: ('A' for Active; 'I' for Inactive)
REMARK    1  A    between atoms: C_1  and  N_2
REMARK    2  A    between atoms: N_2  and  C_3
REMARK    3  A    between atoms: N_2  and  C_4
REMARK    4  A    between atoms: C_6  and  C_7
REMARK    5  A    between atoms: C_12  and  N_13
REMARK    6  A    between atoms: N_13  and  C_14
REMARK    7  A    between atoms: C_14  and  C_15
REMARK    8  A    between atoms: C_18  and  O_19
REMARK    9  A    between atoms: O_19  and  C_20
REMARK                            x       y       z     vdW  Elec       q    Type
REMARK                         _______ _______ _______ _____ _____    ______ ____
ROOT
ATOM      1  N   UNL     1      48.070   6.263  13.685  0.00  0.00    +0.000 N 
ATOM      2  H   UNL     1      48.840   5.824  13.179  0.00  0.00    +0.000 HD
ENDROOT
BRANCH   1   8
ATOM      3  C   UNL     1      48.833   6.652  15.972  0.00  0.00    +0.000 A 
ATOM      4  C   UNL     1      49.037   6.123  17.267  0.00  0.00    +0.000 A 
ATOM      5  C   UNL     1      48.509   4.884  17.668  0.00  0.00    +0.000 A 
ATOM      6  C   UNL     1      47.701   4.184  16.777  0.00  0.00    +0.000 A 
ATOM      7  C   UNL     1      47.484   4.681  15.488  0.00  0.00    +0.000 A 
ATOM      8  C   UNL     1      48.118   5.842  15.036  0.00  0.00    +0.000 A 
BRANCH   5   9
ATOM      9  C   UNL     1      48.820   4.395  19.047  0.00  0.00    +0.000 C 
ATOM     10  N   UNL     1      48.292   3.210  19.461  0.00  0.00    +0.000 N 
ATOM     11  O   UNL     1      49.558   5.029  19.796  0.00  0.00    +0.000 OA
ATOM     12  H   UNL     1      47.742   2.584  18.893  0.00  0.00    +0.000 HD
ATOM     13  H   UNL     1      48.560   2.896  20.384  0.00  0.00    +0.000 HD
ENDBRANCH   5   9
BRANCH   3  15
ATOM     14  C   UNL     1      50.777   8.131  15.642  0.00  0.00    +0.000 C 
ATOM     15  N   UNL     1      49.324   7.936  15.596  0.00  0.00    +0.000 N 
ATOM     16  C   UNL     1      48.573   9.055  16.186  0.00  0.00    +0.000 C 
ENDBRANCH   3  15
ENDBRANCH   1   8
BRANCH   1  17
ATOM     17  C   UNL     1      46.970   6.843  12.906  0.00  0.00    +0.000 C 
ATOM     18  C   UNL     1      47.347   8.140  12.181  0.00  0.00    +0.000 C 
ATOM     19  C   UNL     1      46.363   8.181  13.290  0.00  0.00    +0.000 C 
BRANCH  17  20
ATOM     20  C   UNL     1      46.081   5.869  12.129  0.00  0.00    +0.000 A 
ATOM     21  C   UNL     1      45.919   5.972  10.736  0.00  0.00    +0.000 A 
ATOM     22  C   UNL     1      45.160   5.064   9.997  0.00  0.00    +0.000 A 
ATOM     23  C   UNL     1      44.640   3.938  10.614  0.00  0.00    +0.000 A 
ATOM     24  C   UNL     1      44.758   3.817  12.000  0.00  0.00    +0.000 A 
ATOM     25  C   UNL     1      45.450   4.780  12.745  0.00  0.00    +0.000 A 
BRANCH  23  26
ATOM     26  O   UNL     1      44.009   2.911   9.987  0.00  0.00    +0.000 OA
BRANCH  26  27
ATOM     27  C   UNL     1      44.670   2.228   8.934  0.00  0.00    +0.000 C 
ATOM     28  F   UNL     1      44.584   2.836   7.729  0.00  0.00    +0.000 F 
ATOM     29  F   UNL     1      45.989   2.139   9.238  0.00  0.00    +0.000 F 
ATOM     30  F   UNL     1      44.184   0.971   8.832  0.00  0.00    +0.000 F 
ENDBRANCH  26  27
ENDBRANCH  23  26
ENDBRANCH  17  20
ENDBRANCH   1  17
TORSDOF 7
ENDMDL
MODEL 7
REMARK VINA RESULT:    -6.611      4.222      7.090
REMARK INTER + INTRA:         -10.104
REMARK INTER:                  -9.387
REMARK INTRA:                  -0.718
REMARK UNBOUND:                -0.789
REMARK  Name = 
REMARK  9 active torsions:
REMARK  status: ('A' for Active; 'I' for Inactive)
REMARK    1  A    between atoms: C_1  and  N_2
REMARK    2  A    between atoms: N_2  and  C_3
REMARK    3  A    between atoms: N_2  and  C_4
REMARK    4  A    between atoms: C_6  and  C_7
REMARK    5  A    between atoms: C_12  and  N_13
REMARK    6  A    between atoms: N_13  and  C_14
REMARK    7  A    between atoms: C_14  and  C_15
REMARK    8  A    between atoms: C_18  and  O_19
REMARK    9  A    between atoms: O_19  and  C_20
REMARK                            x       y       z     vdW  Elec       q    Type
REMARK                         _______ _______ _______ _____ _____    ______ ____
ROOT
ATOM      1  N   UNL     1      45.161   6.484  11.711  0.00  0.00    +0.000 N 
ATOM      2  H   UNL     1      44.219   6.384  12.090  0.00  0.00    +0.000 HD
ENDROOT
BRANCH   1   8
ATOM      3  C   UNL     1      44.614   4.353  10.649  0.00  0.00    +0.000 A 
ATOM      4  C   UNL     1      44.916   3.413   9.637  0.00  0.00    +0.000 A 
ATOM      5  C   UNL     1      45.796   3.699   8.580  0.00  0.00    +0.000 A 
ATOM      6  C   UNL     1      46.341   4.977   8.492  0.00  0.00    +0.000 A 
ATOM      7  C   UNL     1      46.062   5.927   9.481  0.00  0.00    +0.000 A 
ATOM      8  C   UNL     1      45.299   5.607  10.608  0.00  0.00    +0.000 A 
BRANCH   5   9
ATOM      9  C   UNL     1      46.081   2.619   7.585  0.00  0.00    +0.000 C 
ATOM     10  N   UNL     1      46.312   1.354   8.034  0.00  0.00    +0.000 N 
ATOM     11  O   UNL     1      46.086   2.849   6.379  0.00  0.00    +0.000 OA
ATOM     12  H   UNL     1      46.252   1.053   8.994  0.00  0.00    +0.000 HD
ATOM     13  H   UNL     1      46.460   0.646   7.327  0.00  0.00    +0.000 HD
ENDBRANCH   5   9
BRANCH   3  15
ATOM     14  C   UNL     1      43.310   2.666  11.886  0.00  0.00    +0.000 C 
ATOM     15  N   UNL     1      43.674   4.072  11.683  0.00  0.00    +0.000 N 
ATOM     16  C   UNL     1      42.513   4.975  11.691  0.00  0.00    +0.000 C 
ENDBRANCH   3  15
ENDBRANCH   1   8
BRANCH   1  17
ATOM     17  C   UNL     1      46.179   7.137  12.543  0.00  0.00    +0.000 C 
ATOM     18  C   UNL     1      45.788   8.548  12.996  0.00  0.00    +0.000 C 
ATOM     19  C   UNL     1      46.916   8.369  12.049  0.00  0.00    +0.000 C 
BRANCH  17  20
ATOM     20  C   UNL     1      46.888   6.265  13.582  0.00  0.00    +0.000 A 
ATOM     21  C   UNL     1      47.929   6.772  14.380  0.00  0.00    +0.000 A 
ATOM     22  C   UNL     1      48.554   6.016  15.372  0.00  0.00    +0.000 A 
ATOM     23  C   UNL     1      48.067   4.759  15.689  0.00  0.00    +0.000 A 
ATOM     24  C   UNL     1      47.053   4.212  14.900  0.00  0.00    +0.000 A 
ATOM     25  C   UNL     1      46.490   4.949  13.849  0.00  0.00    +0.000 A 
BRANCH  23  26
ATOM     26  O   UNL     1      48.489   3.982  16.720  0.00  0.00    +0.000 OA
BRANCH  26  27
ATOM     27  C   UNL     1      47.604   3.711  17.795  0.00  0.00    +0.000 C 
ATOM     28  F   UNL     1      46.844   2.605  17.631  0.00  0.00    +0.000 F 
ATOM     29  F   UNL     1      48.336   3.524  18.921  0.00  0.00    +0.000 F 
ATOM     30  F   UNL     1      46.797   4.776  17.999  0.00  0.00    +0.000 F 
ENDBRANCH  26  27
ENDBRANCH  23  26
ENDBRANCH  17  20
ENDBRANCH   1  17
TORSDOF 7
ENDMDL
MODEL 8
REMARK VINA RESULT:    -6.404      4.162      5.681
REMARK INTER + INTRA:          -9.814
REMARK INTER:                  -8.368
REMARK INTRA:                  -1.446
REMARK UNBOUND:                -0.789
REMARK  Name = 
REMARK  9 active torsions:
REMARK  status: ('A' for Active; 'I' for Inactive)
REMARK    1  A    between atoms: C_1  and  N_2
REMARK    2  A    between atoms: N_2  and  C_3
REMARK    3  A    between atoms: N_2  and  C_4
REMARK    4  A    between atoms: C_6  and  C_7
REMARK    5  A    between atoms: C_12  and  N_13
REMARK    6  A    between atoms: N_13  and  C_14
REMARK    7  A    between atoms: C_14  and  C_15
REMARK    8  A    between atoms: C_18  and  O_19
REMARK    9  A    between atoms: O_19  and  C_20
REMARK                            x       y       z     vdW  Elec       q    Type
REMARK                         _______ _______ _______ _____ _____    ______ ____
ROOT
ATOM      1  N   UNL     1      49.164   7.513  14.491  0.00  0.00    +0.000 N 
ATOM      2  H   UNL     1      50.005   6.938  14.549  0.00  0.00    +0.000 HD
ENDROOT
BRANCH   1   8
ATOM      3  C   UNL     1      48.986   7.061  16.885  0.00  0.00    +0.000 A 
ATOM      4  C   UNL     1      48.476   7.465  18.140  0.00  0.00    +0.000 A 
ATOM      5  C   UNL     1      47.904   8.731  18.349  0.00  0.00    +0.000 A 
ATOM      6  C   UNL     1      47.900   9.644  17.299  0.00  0.00    +0.000 A 
ATOM      7  C   UNL     1      48.396   9.271  16.045  0.00  0.00    +0.000 A 
ATOM      8  C   UNL     1      48.839   7.970  15.791  0.00  0.00    +0.000 A 
BRANCH   5   9
ATOM      9  C   UNL     1      47.354   9.042  19.706  0.00  0.00    +0.000 C 
ATOM     10  N   UNL     1      46.802  10.268  19.927  0.00  0.00    +0.000 N 
ATOM     11  O   UNL     1      47.369   8.208  20.606  0.00  0.00    +0.000 OA
ATOM     12  H   UNL     1      46.674  10.986  19.232  0.00  0.00    +0.000 HD
ATOM     13  H   UNL     1      46.405  10.423  20.844  0.00  0.00    +0.000 HD
ENDBRANCH   5   9
BRANCH   3  15
ATOM     14  C   UNL     1      48.831   4.605  17.036  0.00  0.00    +0.000 C 
ATOM     15  N   UNL     1      49.617   5.797  16.698  0.00  0.00    +0.000 N 
ATOM     16  C   UNL     1      50.996   5.740  17.208  0.00  0.00    +0.000 C 
ENDBRANCH   3  15
ENDBRANCH   1   8
BRANCH   1  17
ATOM     17  C   UNL     1      48.341   7.419  13.280  0.00  0.00    +0.000 C 
ATOM     18  C   UNL     1      49.157   7.398  11.982  0.00  0.00    +0.000 C 
ATOM     19  C   UNL     1      48.287   8.562  12.282  0.00  0.00    +0.000 C 
BRANCH  17  20
ATOM     20  C   UNL     1      47.133   6.480  13.334  0.00  0.00    +0.000 A 
ATOM     21  C   UNL     1      45.863   6.888  12.887  0.00  0.00    +0.000 A 
ATOM     22  C   UNL     1      44.760   6.035  12.873  0.00  0.00    +0.000 A 
ATOM     23  C   UNL     1      44.922   4.695  13.187  0.00  0.00    +0.000 A 
ATOM     24  C   UNL     1      46.161   4.261  13.662  0.00  0.00    +0.000 A 
ATOM     25  C   UNL     1      47.242   5.148  13.753  0.00  0.00    +0.000 A 
BRANCH  23  26
ATOM     26  O   UNL     1      43.967   3.735  13.077  0.00  0.00    +0.000 OA
BRANCH  26  27
ATOM     27  C   UNL     1      43.578   3.286  11.789  0.00  0.00    +0.000 C 
ATOM     28  F   UNL     1      43.025   2.052  11.768  0.00  0.00    +0.000 F 
ATOM     29  F   UNL     1      42.649   4.143  11.296  0.00  0.00    +0.000 F 
ATOM     30  F   UNL     1      44.643   3.309  10.958  0.00  0.00    +0.000 F 
ENDBRANCH  26  27
ENDBRANCH  23  26
ENDBRANCH  17  20
ENDBRANCH   1  17
TORSDOF 7
ENDMDL
MODEL 9
REMARK VINA RESULT:    -6.127      4.138      6.106
REMARK INTER + INTRA:          -9.422
REMARK INTER:                  -8.924
REMARK INTRA:                  -0.498
REMARK UNBOUND:                -0.789
REMARK  Name = 
REMARK  9 active torsions:
REMARK  status: ('A' for Active; 'I' for Inactive)
REMARK    1  A    between atoms: C_1  and  N_2
REMARK    2  A    between atoms: N_2  and  C_3
REMARK    3  A    between atoms: N_2  and  C_4
REMARK    4  A    between atoms: C_6  and  C_7
REMARK    5  A    between atoms: C_12  and  N_13
REMARK    6  A    between atoms: N_13  and  C_14
REMARK    7  A    between atoms: C_14  and  C_15
REMARK    8  A    between atoms: C_18  and  O_19
REMARK    9  A    between atoms: O_19  and  C_20
REMARK                            x       y       z     vdW  Elec       q    Type
REMARK                         _______ _______ _______ _____ _____    ______ ____
ROOT
ATOM      1  N   UNL     1      48.373   6.305  16.134  0.00  0.00    +0.000 N 
ATOM      2  H   UNL     1      48.148   6.963  16.882  0.00  0.00    +0.000 HD
ENDROOT
BRANCH   1   8
ATOM      3  C   UNL     1      50.476   5.506  17.087  0.00  0.00    +0.000 A 
ATOM      4  C   UNL     1      51.277   4.399  17.446  0.00  0.00    +0.000 A 
ATOM      5  C   UNL     1      50.778   3.086  17.482  0.00  0.00    +0.000 A 
ATOM      6  C   UNL     1      49.428   2.878  17.215  0.00  0.00    +0.000 A 
ATOM      7  C   UNL     1      48.611   3.955  16.854  0.00  0.00    +0.000 A 
ATOM      8  C   UNL     1      49.131   5.241  16.682  0.00  0.00    +0.000 A 
BRANCH   5   9
ATOM      9  C   UNL     1      51.722   1.980  17.833  0.00  0.00    +0.000 C 
ATOM     10  N   UNL     1      51.246   0.706  17.907  0.00  0.00    +0.000 N 
ATOM     11  O   UNL     1      52.914   2.198  18.031  0.00  0.00    +0.000 OA
ATOM     12  H   UNL     1      50.305   0.419  17.686  0.00  0.00    +0.000 HD
ATOM     13  H   UNL     1      51.924  -0.017  18.106  0.00  0.00    +0.000 HD
ENDBRANCH   5   9
BRANCH   3  15
ATOM     14  C   UNL     1      52.271   7.076  16.460  0.00  0.00    +0.000 C 
ATOM     15  N   UNL     1      50.978   6.840  17.111  0.00  0.00    +0.000 N 
ATOM     16  C   UNL     1      50.867   7.492  18.426  0.00  0.00    +0.000 C 
ENDBRANCH   3  15
ENDBRANCH   1   8
BRANCH   1  17
ATOM     17  C   UNL     1      48.228   6.755  14.745  0.00  0.00    +0.000 C 
ATOM     18  C   UNL     1      49.517   7.327  14.147  0.00  0.00    +0.000 C 
ATOM     19  C   UNL     1      48.359   8.224  14.383  0.00  0.00    +0.000 C 
BRANCH  17  20
ATOM     20  C   UNL     1      47.383   5.878  13.817  0.00  0.00    +0.000 A 
ATOM     21  C   UNL     1      47.162   4.517  14.090  0.00  0.00    +0.000 A 
ATOM     22  C   UNL     1      46.352   3.710  13.291  0.00  0.00    +0.000 A 
ATOM     23  C   UNL     1      45.623   4.276  12.257  0.00  0.00    +0.000 A 
ATOM     24  C   UNL     1      45.837   5.619  11.940  0.00  0.00    +0.000 A 
ATOM     25  C   UNL     1      46.721   6.399  12.697  0.00  0.00    +0.000 A 
BRANCH  23  26
ATOM     26  O   UNL     1      44.695   3.635  11.499  0.00  0.00    +0.000 OA
BRANCH  26  27
ATOM     27  C   UNL     1      43.384   3.456  12.010  0.00  0.00    +0.000 C 
ATOM     28  F   UNL     1      43.248   3.752  13.322  0.00  0.00    +0.000 F 
ATOM     29  F   UNL     1      42.541   4.274  11.331  0.00  0.00    +0.000 F 
ATOM     30  F   UNL     1      42.983   2.183  11.798  0.00  0.00    +0.000 F 
ENDBRANCH  26  27
ENDBRANCH  23  26
ENDBRANCH  17  20
ENDBRANCH   1  17
TORSDOF 7
ENDMDL
