MODEL 1
REMARK VINA RESULT:    -7.233      0.000      0.000
REMARK INTER + INTRA:         -11.203
REMARK INTER:                 -10.193
REMARK INTRA:                  -1.010
REMARK UNBOUND:                -1.010
REMARK  Name = 
REMARK  7 active torsions:
REMARK  status: ('A' for Active; 'I' for Inactive)
REMARK    1  A    between atoms: C_2  and  C_19
REMARK    2  A    between atoms: N_3  and  C_4
REMARK    3  A    between atoms: C_4  and  C_5
REMARK    4  A    between atoms: C_8  and  O_9
REMARK    5  A    between atoms: O_9  and  C_10
REMARK    6  A    between atoms: C_10  and  C_11
REMARK    7  A    between atoms: C_11  and  N_12
REMARK                            x       y       z     vdW  Elec       q    Type
REMARK                         _______ _______ _______ _____ _____    ______ ____
ROOT
ATOM      1  O   UNL     1      48.967   6.672  13.111  0.00  0.00    +0.000 OA
ATOM      2  C   UNL     1      48.240   6.710  14.100  0.00  0.00    +0.000 C 
ATOM      3  N   UNL     1      46.935   7.126  14.035  0.00  0.00    +0.000 N 
ATOM      4  H   UNL     1      46.438   7.313  14.900  0.00  0.00    +0.000 HD
ENDROOT
BRANCH   2   5
ATOM      5  C   UNL     1      48.709   6.253  15.413  0.00  0.00    +0.000 A 
ATOM      6  C   UNL     1      49.728   6.940  16.058  0.00  0.00    +0.000 A 
ATOM      7  S   UNL     1      50.176   6.252  17.553  0.00  0.00    +0.000 S 
ATOM      8  C   UNL     1      48.989   5.042  17.415  0.00  0.00    +0.000 A 
ATOM      9  N   UNL     1      48.819   4.113  18.394  0.00  0.00    +0.000 NA
ATOM     10  C   UNL     1      47.850   3.285  18.184  0.00  0.00    +0.000 A 
ATOM     11  N   UNL     1      47.040   3.296  17.077  0.00  0.00    +0.000 N 
ATOM     12  C   UNL     1      47.222   4.167  16.030  0.00  0.00    +0.000 A 
ATOM     13  O   UNL     1      46.563   4.072  15.000  0.00  0.00    +0.000 OA
ATOM     14  C   UNL     1      48.274   5.148  16.236  0.00  0.00    +0.000 A 
ATOM     15  H   UNL     1      46.316   2.603  16.962  0.00  0.00    +0.000 HD
ENDBRANCH   2   5
BRANCH   3  16
ATOM     16  C   UNL     1      46.351   7.661  12.831  0.00  0.00    +0.000 C 
BRANCH  16  17
ATOM     17  C   UNL     1      45.708   6.580  12.016  0.00  0.00    +0.000 A 
ATOM     18  C   UNL     1      46.121   6.287  10.713  0.00  0.00    +0.000 A 
ATOM     19  C   UNL     1      45.475   5.285   9.991  0.00  0.00    +0.000 A 
ATOM     20  C   UNL     1      44.415   4.625  10.594  0.00  0.00    +0.000 A 
ATOM     21  N   UNL     1      43.989   4.888  11.846  0.00  0.00    +0.000 NA
ATOM     22  C   UNL     1      44.638   5.853  12.524  0.00  0.00    +0.000 A 
BRANCH  20  23
ATOM     23  O   UNL     1      43.771   3.645   9.859  0.00  0.00    +0.000 OA
BRANCH  23  24
ATOM     24  C   UNL     1      44.600   2.481   9.723  0.00  0.00    +0.000 C 
BRANCH  24  25
ATOM     25  C   UNL     1      45.057   2.311   8.266  0.00  0.00    +0.000 C 
BRANCH  25  26
ATOM     26  N   UNL     1      46.511   2.500   8.093  0.00  0.00    +0.000 NA
ATOM     27  C   UNL     1      47.168   1.400   7.379  0.00  0.00    +0.000 C 
ATOM     28  C   UNL     1      46.987   1.726   5.907  0.00  0.00    +0.000 C 
ATOM     29  O   UNL     1      46.770   3.140   5.837  0.00  0.00    +0.000 OA
ATOM     30  C   UNL     1      46.775   3.616   7.183  0.00  0.00    +0.000 C 
ENDBRANCH  25  26
ENDBRANCH  24  25
ENDBRANCH  23  24
ENDBRANCH  20  23
ENDBRANCH  16  17
ENDBRANCH   3  16
TORSDOF 7
ENDMDL
MODEL 2
REMARK VINA RESULT:    -6.947      3.431      7.785
REMARK INTER + INTRA:         -10.800
REMARK INTER:                  -9.787
REMARK INTRA:                  -1.014
REMARK UNBOUND:                -1.010
REMARK  Name = 
REMARK  7 active torsions:
REMARK  status: ('A' for Active; 'I' for Inactive)
REMARK    1  A    between atoms: C_2  and  C_19
REMARK    2  A    between atoms: N_3  and  C_4
REMARK    3  A    between atoms: C_4  and  C_5
REMARK    4  A    between atoms: C_8  and  O_9
REMARK    5  A    between atoms: O_9  and  C_10
REMARK    6  A    between atoms: C_10  and  C_11
REMARK    7  A    between atoms: C_11  and  N_12
REMARK                            x       y       z     vdW  Elec       q    Type
REMARK                         _______ _______ _______ _____ _____    ______ ____
ROOT
ATOM      1  O   UNL     1      45.543   7.834  11.752  0.00  0.00    +0.000 OA
ATOM      2  C   UNL     1      46.210   6.856  11.427  0.00  0.00    +0.000 C 
ATOM      3  N   UNL     1      47.557   6.774  11.670  0.00  0.00    +0.000 N 
ATOM      4  H   UNL     1      48.091   6.036  11.222  0.00  0.00    +0.000 HD
ENDROOT
BRANCH   2   5
ATOM      5  C   UNL     1      45.593   5.679  10.805  0.00  0.00    +0.000 A 
ATOM      6  C   UNL     1      45.739   5.464   9.442  0.00  0.00    +0.000 A 
ATOM      7  S   UNL     1      44.926   4.074   8.879  0.00  0.00    +0.000 S 
ATOM      8  C   UNL     1      44.393   3.683  10.445  0.00  0.00    +0.000 A 
ATOM      9  N   UNL     1      43.647   2.569  10.673  0.00  0.00    +0.000 NA
ATOM     10  C   UNL     1      43.353   2.366  11.915  0.00  0.00    +0.000 A 
ATOM     11  N   UNL     1      43.731   3.183  12.949  0.00  0.00    +0.000 N 
ATOM     12  C   UNL     1      44.420   4.357  12.758  0.00  0.00    +0.000 A 
ATOM     13  O   UNL     1      44.634   5.128  13.688  0.00  0.00    +0.000 OA
ATOM     14  C   UNL     1      44.811   4.610  11.383  0.00  0.00    +0.000 A 
ATOM     15  H   UNL     1      43.445   2.981  13.896  0.00  0.00    +0.000 HD
ENDBRANCH   2   5
BRANCH   3  16
ATOM     16  C   UNL     1      48.314   7.872  12.217  0.00  0.00    +0.000 C 
BRANCH  16  17
ATOM     17  C   UNL     1      48.923   7.505  13.537  0.00  0.00    +0.000 A 
ATOM     18  C   UNL     1      48.226   6.765  14.495  0.00  0.00    +0.000 A 
ATOM     19  C   UNL     1      48.831   6.468  15.715  0.00  0.00    +0.000 A 
ATOM     20  C   UNL     1      50.112   6.949  15.943  0.00  0.00    +0.000 A 
ATOM     21  N   UNL     1      50.808   7.669  15.041  0.00  0.00    +0.000 NA
ATOM     22  C   UNL     1      50.202   7.932  13.868  0.00  0.00    +0.000 A 
BRANCH  20  23
ATOM     23  O   UNL     1      50.694   6.663  17.165  0.00  0.00    +0.000 OA
BRANCH  23  24
ATOM     24  C   UNL     1      50.053   5.537  17.785  0.00  0.00    +0.000 C 
BRANCH  24  25
ATOM     25  C   UNL     1      50.844   4.248  17.512  0.00  0.00    +0.000 C 
BRANCH  25  26
ATOM     26  N   UNL     1      50.146   3.034  17.982  0.00  0.00    +0.000 NA
ATOM     27  C   UNL     1      48.689   3.094  17.826  0.00  0.00    +0.000 C 
ATOM     28  C   UNL     1      48.429   2.647  16.399  0.00  0.00    +0.000 C 
ATOM     29  O   UNL     1      49.570   1.871  16.012  0.00  0.00    +0.000 OA
ATOM     30  C   UNL     1      50.468   1.895  17.121  0.00  0.00    +0.000 C 
ENDBRANCH  25  26
ENDBRANCH  24  25
ENDBRANCH  23  24
ENDBRANCH  20  23
ENDBRANCH  16  17
ENDBRANCH   3  16
TORSDOF 7
ENDMDL
MODEL 3
REMARK VINA RESULT:    -6.890      2.872      8.180
REMARK INTER + INTRA:         -10.720
REMARK INTER:                  -9.861
REMARK INTRA:                  -0.859
REMARK UNBOUND:                -1.010
REMARK  Name = 
REMARK  7 active torsions:
REMARK  status: ('A' for Active; 'I' for Inactive)
REMARK    1  A    between atoms: C_2  and  C_19
REMARK    2  A    between atoms: N_3  and  C_4
REMARK    3  A    between atoms: C_4  and  C_5
REMARK    4  A    between atoms: C_8  and  O_9
REMARK    5  A    between atoms: O_9  and  C_10
REMARK    6  A    between atoms: C_10  and  C_11
REMARK    7  A    between atoms: C_11  and  N_12
REMARK                            x       y       z     vdW  Elec       q    Type
REMARK                         _______ _______ _______ _____ _____    ______ ____
ROOT
ATOM      1  O   UNL     1      44.843   7.506  11.576  0.00  0.00    +0.000 OA
ATOM      2  C   UNL     1      45.480   6.458  11.624  0.00  0.00    +0.000 C 
ATOM      3  N   UNL     1      46.795   6.417  12.011  0.00  0.00    +0.000 N 
ATOM      4  H   UNL     1      47.324   5.564  11.858  0.00  0.00    +0.000 HD
ENDROOT
BRANCH   2   5
ATOM      5  C   UNL     1      44.854   5.165  11.324  0.00  0.00    +0.000 A 
ATOM      6  C   UNL     1      44.035   4.561  12.267  0.00  0.00    +0.000 A 
ATOM      7  S   UNL     1      43.423   3.048  11.772  0.00  0.00    +0.000 S 
ATOM      8  C   UNL     1      44.190   3.170  10.259  0.00  0.00    +0.000 A 
ATOM      9  N   UNL     1      44.053   2.192   9.324  0.00  0.00    +0.000 NA
ATOM     10  C   UNL     1      44.646   2.437   8.203  0.00  0.00    +0.000 A 
ATOM     11  N   UNL     1      45.374   3.569   7.936  0.00  0.00    +0.000 N 
ATOM     12  C   UNL     1      45.601   4.546   8.874  0.00  0.00    +0.000 A 
ATOM     13  O   UNL     1      46.358   5.485   8.646  0.00  0.00    +0.000 OA
ATOM     14  C   UNL     1      44.920   4.339  10.140  0.00  0.00    +0.000 A 
ATOM     15  H   UNL     1      45.835   3.686   7.046  0.00  0.00    +0.000 HD
ENDBRANCH   2   5
BRANCH   3  16
ATOM     16  C   UNL     1      47.563   7.608  12.277  0.00  0.00    +0.000 C 
BRANCH  16  17
ATOM     17  C   UNL     1      48.492   7.404  13.435  0.00  0.00    +0.000 A 
ATOM     18  C   UNL     1      49.716   8.071  13.531  0.00  0.00    +0.000 A 
ATOM     19  C   UNL     1      50.553   7.830  14.619  0.00  0.00    +0.000 A 
ATOM     20  C   UNL     1      50.143   6.904  15.566  0.00  0.00    +0.000 A 
ATOM     21  N   UNL     1      48.971   6.240  15.499  0.00  0.00    +0.000 NA
ATOM     22  C   UNL     1      48.178   6.501  14.443  0.00  0.00    +0.000 A 
BRANCH  20  23
ATOM     23  O   UNL     1      50.991   6.660  16.631  0.00  0.00    +0.000 OA
BRANCH  23  24
ATOM     24  C   UNL     1      50.444   5.654  17.499  0.00  0.00    +0.000 C 
BRANCH  24  25
ATOM     25  C   UNL     1      51.211   4.332  17.341  0.00  0.00    +0.000 C 
BRANCH  25  26
ATOM     26  N   UNL     1      50.523   3.189  17.976  0.00  0.00    +0.000 NA
ATOM     27  C   UNL     1      49.062   3.246  17.868  0.00  0.00    +0.000 C 
ATOM     28  C   UNL     1      48.745   2.639  16.514  0.00  0.00    +0.000 C 
ATOM     29  O   UNL     1      49.864   1.810  16.179  0.00  0.00    +0.000 OA
ATOM     30  C   UNL     1      50.805   1.954  17.243  0.00  0.00    +0.000 C 
ENDBRANCH  25  26
ENDBRANCH  24  25
ENDBRANCH  23  24
ENDBRANCH  20  23
ENDBRANCH  16  17
ENDBRANCH   3  16
TORSDOF 7
ENDMDL
MODEL 4
REMARK VINA RESULT:    -6.469      2.955      3.679
REMARK INTER + INTRA:         -10.127
REMARK INTER:                  -8.814
REMARK INTRA:                  -1.313
REMARK UNBOUND:                -1.010
REMARK  Name = 
REMARK  7 active torsions:
REMARK  status: ('A' for Active; 'I' for Inactive)
REMARK    1  A    between atoms: C_2  and  C_19
REMARK    2  A    between atoms: N_3  and  C_4
REMARK    3  A    between atoms: C_4  and  C_5
REMARK    4  A    between atoms: C_8  and  O_9
REMARK    5  A    between atoms: O_9  and  C_10
REMARK    6  A    between atoms: C_10  and  C_11
REMARK    7  A    between atoms: C_11  and  N_12
REMARK                            x       y       z     vdW  Elec       q    Type
REMARK                         _______ _______ _______ _____ _____    ______ ____
ROOT
ATOM      1  O   UNL     1      48.919   8.721  16.310  0.00  0.00    +0.000 OA
ATOM      2  C   UNL     1      49.063   7.544  15.989  0.00  0.00    +0.000 C 
ATOM      3  N   UNL     1      49.210   7.154  14.682  0.00  0.00    +0.000 N 
ATOM      4  H   UNL     1      49.141   6.166  14.457  0.00  0.00    +0.000 HD
ENDROOT
BRANCH   2   5
ATOM      5  C   UNL     1      49.147   6.480  16.996  0.00  0.00    +0.000 A 
ATOM      6  C   UNL     1      49.934   6.660  18.124  0.00  0.00    +0.000 A 
ATOM      7  S   UNL     1      49.950   5.311  19.168  0.00  0.00    +0.000 S 
ATOM      8  C   UNL     1      48.865   4.459  18.174  0.00  0.00    +0.000 A 
ATOM      9  N   UNL     1      48.438   3.212  18.512  0.00  0.00    +0.000 NA
ATOM     10  C   UNL     1      47.578   2.702  17.694  0.00  0.00    +0.000 A 
ATOM     11  N   UNL     1      47.114   3.322  16.562  0.00  0.00    +0.000 N 
ATOM     12  C   UNL     1      47.573   4.547  16.143  0.00  0.00    +0.000 A 
ATOM     13  O   UNL     1      47.233   5.019  15.063  0.00  0.00    +0.000 OA
ATOM     14  C   UNL     1      48.511   5.183  17.050  0.00  0.00    +0.000 A 
ATOM     15  H   UNL     1      46.461   2.855  15.950  0.00  0.00    +0.000 HD
ENDBRANCH   2   5
BRANCH   3  16
ATOM     16  C   UNL     1      49.089   8.074  13.580  0.00  0.00    +0.000 C 
BRANCH  16  17
ATOM     17  C   UNL     1      47.736   7.975  12.940  0.00  0.00    +0.000 A 
ATOM     18  C   UNL     1      46.726   8.907  13.194  0.00  0.00    +0.000 A 
ATOM     19  C   UNL     1      45.480   8.757  12.589  0.00  0.00    +0.000 A 
ATOM     20  C   UNL     1      45.280   7.659  11.767  0.00  0.00    +0.000 A 
ATOM     21  N   UNL     1      46.232   6.741  11.507  0.00  0.00    +0.000 NA
ATOM     22  C   UNL     1      47.430   6.916  12.096  0.00  0.00    +0.000 A 
BRANCH  20  23
ATOM     23  O   UNL     1      44.032   7.512  11.187  0.00  0.00    +0.000 OA
BRANCH  23  24
ATOM     24  C   UNL     1      43.313   6.424  11.789  0.00  0.00    +0.000 C 
BRANCH  24  25
ATOM     25  C   UNL     1      43.312   5.199  10.861  0.00  0.00    +0.000 C 
BRANCH  25  26
ATOM     26  N   UNL     1      43.124   3.927  11.587  0.00  0.00    +0.000 NA
ATOM     27  C   UNL     1      44.159   2.928  11.304  0.00  0.00    +0.000 C 
ATOM     28  C   UNL     1      45.296   3.261  12.253  0.00  0.00    +0.000 C 
ATOM     29  O   UNL     1      44.708   3.994  13.334  0.00  0.00    +0.000 OA
ATOM     30  C   UNL     1      43.321   4.128  13.024  0.00  0.00    +0.000 C 
ENDBRANCH  25  26
ENDBRANCH  24  25
ENDBRANCH  23  24
ENDBRANCH  20  23
ENDBRANCH  16  17
ENDBRANCH   3  16
TORSDOF 7
ENDMDL
MODEL 5
REMARK VINA RESULT:    -6.448      3.150      4.784
REMARK INTER + INTRA:         -10.096
REMARK INTER:                  -9.173
REMARK INTRA:                  -0.923
REMARK UNBOUND:                -1.010
REMARK  Name = 
REMARK  7 active torsions:
REMARK  status: ('A' for Active; 'I' for Inactive)
REMARK    1  A    between atoms: C_2  and  C_19
REMARK    2  A    between atoms: N_3  and  C_4
REMARK    3  A    between atoms: C_4  and  C_5
REMARK    4  A    between atoms: C_8  and  O_9
REMARK    5  A    between atoms: O_9  and  C_10
REMARK    6  A    between atoms: C_10  and  C_11
REMARK    7  A    between atoms: C_11  and  N_12
REMARK                            x       y       z     vdW  Elec       q    Type
REMARK                         _______ _______ _______ _____ _____    ______ ____
ROOT
ATOM      1  O   UNL     1      50.050   5.862  19.429  0.00  0.00    +0.000 OA
ATOM      2  C   UNL     1      50.684   5.390  18.489  0.00  0.00    +0.000 C 
ATOM      3  N   UNL     1      50.466   5.774  17.191  0.00  0.00    +0.000 N 
ATOM      4  H   UNL     1      50.881   5.226  16.443  0.00  0.00    +0.000 HD
ENDROOT
BRANCH   2   5
ATOM      5  C   UNL     1      51.765   4.421  18.704  0.00  0.00    +0.000 A 
ATOM      6  C   UNL     1      52.846   4.761  19.505  0.00  0.00    +0.000 A 
ATOM      7  S   UNL     1      54.027   3.536  19.615  0.00  0.00    +0.000 S 
ATOM      8  C   UNL     1      53.111   2.488  18.638  0.00  0.00    +0.000 A 
ATOM      9  N   UNL     1      53.553   1.234  18.350  0.00  0.00    +0.000 NA
ATOM     10  C   UNL     1      52.736   0.529  17.640  0.00  0.00    +0.000 A 
ATOM     11  N   UNL     1      51.520   0.968  17.184  0.00  0.00    +0.000 N 
ATOM     12  C   UNL     1      51.066   2.249  17.387  0.00  0.00    +0.000 A 
ATOM     13  O   UNL     1      50.033   2.650  16.861  0.00  0.00    +0.000 OA
ATOM     14  C   UNL     1      51.930   3.071  18.216  0.00  0.00    +0.000 A 
ATOM     15  H   UNL     1      50.939   0.373  16.611  0.00  0.00    +0.000 HD
ENDBRANCH   2   5
BRANCH   3  16
ATOM     16  C   UNL     1      49.400   6.668  16.815  0.00  0.00    +0.000 C 
BRANCH  16  17
ATOM     17  C   UNL     1      48.510   6.045  15.783  0.00  0.00    +0.000 A 
ATOM     18  C   UNL     1      48.333   6.610  14.517  0.00  0.00    +0.000 A 
ATOM     19  C   UNL     1      47.477   6.001  13.601  0.00  0.00    +0.000 A 
ATOM     20  C   UNL     1      46.805   4.855  13.997  0.00  0.00    +0.000 A 
ATOM     21  N   UNL     1      46.951   4.288  15.212  0.00  0.00    +0.000 NA
ATOM     22  C   UNL     1      47.792   4.892  16.072  0.00  0.00    +0.000 A 
BRANCH  20  23
ATOM     23  O   UNL     1      45.945   4.270  13.085  0.00  0.00    +0.000 OA
BRANCH  23  24
ATOM     24  C   UNL     1      45.236   5.271  12.337  0.00  0.00    +0.000 C 
BRANCH  24  25
ATOM     25  C   UNL     1      45.486   5.096  10.831  0.00  0.00    +0.000 C 
BRANCH  25  26
ATOM     26  N   UNL     1      44.252   4.804  10.074  0.00  0.00    +0.000 NA
ATOM     27  C   UNL     1      44.473   3.984   8.879  0.00  0.00    +0.000 C 
ATOM     28  C   UNL     1      44.463   2.551   9.380  0.00  0.00    +0.000 C 
ATOM     29  O   UNL     1      43.732   2.567  10.612  0.00  0.00    +0.000 OA
ATOM     30  C   UNL     1      43.373   3.928  10.850  0.00  0.00    +0.000 C 
ENDBRANCH  25  26
ENDBRANCH  24  25
ENDBRANCH  23  24
ENDBRANCH  20  23
ENDBRANCH  16  17
ENDBRANCH   3  16
TORSDOF 7
ENDMDL
MODEL 6
REMARK VINA RESULT:    -6.384      4.361      9.168
REMARK INTER + INTRA:         -10.007
REMARK INTER:                  -9.214
REMARK INTRA:                  -0.793
REMARK UNBOUND:                -1.010
REMARK  Name = 
REMARK  7 active torsions:
REMARK  status: ('A' for Active; 'I' for Inactive)
REMARK    1  A    between atoms: C_2  and  C_19
REMARK    2  A    between atoms: N_3  and  C_4
REMARK    3  A    between atoms: C_4  and  C_5
REMARK    4  A    between atoms: C_8  and  O_9
REMARK    5  A    between atoms: O_9  and  C_10
REMARK    6  A    between atoms: C_10  and  C_11
REMARK    7  A    between atoms: C_11  and  N_12
REMARK                            x       y       z     vdW  Elec       q    Type
REMARK                         _______ _______ _______ _____ _____    ______ ____
ROOT
ATOM      1  O   UNL     1      47.203   3.036  14.074  0.00  0.00    +0.000 OA
ATOM      2  C   UNL     1      46.806   4.107  14.524  0.00  0.00    +0.000 C 
ATOM      3  N   UNL     1      46.805   4.381  15.868  0.00  0.00    +0.000 N 
ATOM      4  H   UNL     1      46.300   5.197  16.200  0.00  0.00    +0.000 HD
ENDROOT
BRANCH   2   5
ATOM      5  C   UNL     1      46.360   5.192  13.643  0.00  0.00    +0.000 A 
ATOM      6  C   UNL     1      47.206   6.261  13.386  0.00  0.00    +0.000 A 
ATOM      7  S   UNL     1      46.516   7.450  12.376  0.00  0.00    +0.000 S 
ATOM      8  C   UNL     1      45.082   6.552  12.205  0.00  0.00    +0.000 A 
ATOM      9  N   UNL     1      44.060   7.006  11.430  0.00  0.00    +0.000 NA
ATOM     10  C   UNL     1      43.052   6.202  11.350  0.00  0.00    +0.000 A 
ATOM     11  N   UNL     1      42.970   4.987  11.981  0.00  0.00    +0.000 N 
ATOM     12  C   UNL     1      43.945   4.523  12.831  0.00  0.00    +0.000 A 
ATOM     13  O   UNL     1      43.788   3.492  13.479  0.00  0.00    +0.000 OA
ATOM     14  C   UNL     1      45.119   5.372  12.924  0.00  0.00    +0.000 A 
ATOM     15  H   UNL     1      42.142   4.417  11.897  0.00  0.00    +0.000 HD
ENDBRANCH   2   5
BRANCH   3  16
ATOM     16  C   UNL     1      47.155   3.396  16.861  0.00  0.00    +0.000 C 
BRANCH  16  17
ATOM     17  C   UNL     1      48.606   3.488  17.225  0.00  0.00    +0.000 A 
ATOM     18  C   UNL     1      49.486   2.417  17.049  0.00  0.00    +0.000 A 
ATOM     19  C   UNL     1      50.821   2.550  17.424  0.00  0.00    +0.000 A 
ATOM     20  C   UNL     1      51.225   3.749  17.990  0.00  0.00    +0.000 A 
ATOM     21  N   UNL     1      50.400   4.799  18.178  0.00  0.00    +0.000 NA
ATOM     22  C   UNL     1      49.118   4.646  17.797  0.00  0.00    +0.000 A 
BRANCH  20  23
ATOM     23  O   UNL     1      52.549   3.861  18.375  0.00  0.00    +0.000 OA
BRANCH  23  24
ATOM     24  C   UNL     1      53.328   2.776  17.846  0.00  0.00    +0.000 C 
BRANCH  24  25
ATOM     25  C   UNL     1      54.130   2.092  18.964  0.00  0.00    +0.000 C 
BRANCH  25  26
ATOM     26  N   UNL     1      55.222   1.241  18.451  0.00  0.00    +0.000 NA
ATOM     27  C   UNL     1      55.416   0.005  19.216  0.00  0.00    +0.000 C 
ATOM     28  C   UNL     1      54.420  -0.979  18.629  0.00  0.00    +0.000 C 
ATOM     29  O   UNL     1      54.132  -0.510  17.306  0.00  0.00    +0.000 OA
ATOM     30  C   UNL     1      54.871   0.699  17.137  0.00  0.00    +0.000 C 
ENDBRANCH  25  26
ENDBRANCH  24  25
ENDBRANCH  23  24
ENDBRANCH  20  23
ENDBRANCH  16  17
ENDBRANCH   3  16
TORSDOF 7
ENDMDL
MODEL 7
REMARK VINA RESULT:    -6.213      1.735      2.125
REMARK INTER + INTRA:          -9.766
REMARK INTER:                  -8.766
REMARK INTRA:                  -1.000
REMARK UNBOUND:                -1.010
REMARK  Name = 
REMARK  7 active torsions:
REMARK  status: ('A' for Active; 'I' for Inactive)
REMARK    1  A    between atoms: C_2  and  C_19
REMARK    2  A    between atoms: N_3  and  C_4
REMARK    3  A    between atoms: C_4  and  C_5
REMARK    4  A    between atoms: C_8  and  O_9
REMARK    5  A    between atoms: O_9  and  C_10
REMARK    6  A    between atoms: C_10  and  C_11
REMARK    7  A    between atoms: C_11  and  N_12
REMARK                            x       y       z     vdW  Elec       q    Type
REMARK                         _______ _______ _______ _____ _____    ______ ____
ROOT
ATOM      1  O   UNL     1      48.203   8.499  11.981  0.00  0.00    +0.000 OA
ATOM      2  C   UNL     1      48.047   8.248  13.173  0.00  0.00    +0.000 C 
ATOM      3  N   UNL     1      46.833   7.872  13.690  0.00  0.00    +0.000 N 
ATOM      4  H   UNL     1      46.715   7.857  14.699  0.00  0.00    +0.000 HD
ENDROOT
BRANCH   2   5
ATOM      5  C   UNL     1      49.170   8.278  14.117  0.00  0.00    +0.000 A 
ATOM      6  C   UNL     1      50.070   9.334  14.083  0.00  0.00    +0.000 A 
ATOM      7  S   UNL     1      51.335   9.191  15.218  0.00  0.00    +0.000 S 
ATOM      8  C   UNL     1      50.696   7.738  15.830  0.00  0.00    +0.000 A 
ATOM      9  N   UNL     1      51.301   7.086  16.858  0.00  0.00    +0.000 NA
ATOM     10  C   UNL     1      50.683   6.023  17.255  0.00  0.00    +0.000 A 
ATOM     11  N   UNL     1      49.518   5.549  16.710  0.00  0.00    +0.000 N 
ATOM     12  C   UNL     1      48.912   6.132  15.623  0.00  0.00    +0.000 A 
ATOM     13  O   UNL     1      47.942   5.614  15.080  0.00  0.00    +0.000 OA
ATOM     14  C   UNL     1      49.545   7.356  15.164  0.00  0.00    +0.000 A 
ATOM     15  H   UNL     1      49.099   4.696  17.051  0.00  0.00    +0.000 HD
ENDBRANCH   2   5
BRANCH   3  16
ATOM     16  C   UNL     1      45.626   7.857  12.903  0.00  0.00    +0.000 C 
BRANCH  16  17
ATOM     17  C   UNL     1      45.432   6.528  12.237  0.00  0.00    +0.000 A 
ATOM     18  C   UNL     1      45.514   6.372  10.851  0.00  0.00    +0.000 A 
ATOM     19  C   UNL     1      45.305   5.118  10.282  0.00  0.00    +0.000 A 
ATOM     20  C   UNL     1      44.994   4.061  11.125  0.00  0.00    +0.000 A 
ATOM     21  N   UNL     1      44.903   4.180  12.464  0.00  0.00    +0.000 NA
ATOM     22  C   UNL     1      45.120   5.401  12.987  0.00  0.00    +0.000 A 
BRANCH  20  23
ATOM     23  O   UNL     1      44.771   2.825  10.545  0.00  0.00    +0.000 OA
BRANCH  23  24
ATOM     24  C   UNL     1      44.620   2.948   9.121  0.00  0.00    +0.000 C 
BRANCH  24  25
ATOM     25  C   UNL     1      45.538   1.952   8.394  0.00  0.00    +0.000 C 
BRANCH  25  26
ATOM     26  N   UNL     1      46.846   2.534   8.033  0.00  0.00    +0.000 NA
ATOM     27  C   UNL     1      47.520   1.835   6.934  0.00  0.00    +0.000 C 
ATOM     28  C   UNL     1      46.941   2.443   5.670  0.00  0.00    +0.000 C 
ATOM     29  O   UNL     1      46.443   3.734   6.043  0.00  0.00    +0.000 OA
ATOM     30  C   UNL     1      46.669   3.863   7.446  0.00  0.00    +0.000 C 
ENDBRANCH  25  26
ENDBRANCH  24  25
ENDBRANCH  23  24
ENDBRANCH  20  23
ENDBRANCH  16  17
ENDBRANCH   3  16
TORSDOF 7
ENDMDL
MODEL 8
REMARK VINA RESULT:    -6.193      3.904      9.092
REMARK INTER + INTRA:          -9.737
REMARK INTER:                  -8.564
REMARK INTRA:                  -1.174
REMARK UNBOUND:                -1.010
REMARK  Name = 
REMARK  7 active torsions:
REMARK  status: ('A' for Active; 'I' for Inactive)
REMARK    1  A    between atoms: C_2  and  C_19
REMARK    2  A    between atoms: N_3  and  C_4
REMARK    3  A    between atoms: C_4  and  C_5
REMARK    4  A    between atoms: C_8  and  O_9
REMARK    5  A    between atoms: O_9  and  C_10
REMARK    6  A    between atoms: C_10  and  C_11
REMARK    7  A    between atoms: C_11  and  N_12
REMARK                            x       y       z     vdW  Elec       q    Type
REMARK                         _______ _______ _______ _____ _____    ______ ____
ROOT
ATOM      1  O   UNL     1      47.256   3.240  13.844  0.00  0.00    +0.000 OA
ATOM      2  C   UNL     1      46.756   4.257  14.316  0.00  0.00    +0.000 C 
ATOM      3  N   UNL     1      46.797   4.539  15.658  0.00  0.00    +0.000 N 
ATOM      4  H   UNL     1      46.216   5.289  16.018  0.00  0.00    +0.000 HD
ENDROOT
BRANCH   2   5
ATOM      5  C   UNL     1      46.131   5.272  13.461  0.00  0.00    +0.000 A 
ATOM      6  C   UNL     1      46.824   6.433  13.150  0.00  0.00    +0.000 A 
ATOM      7  S   UNL     1      45.937   7.521  12.181  0.00  0.00    +0.000 S 
ATOM      8  C   UNL     1      44.613   6.456  12.101  0.00  0.00    +0.000 A 
ATOM      9  N   UNL     1      43.499   6.777  11.391  0.00  0.00    +0.000 NA
ATOM     10  C   UNL     1      42.592   5.857  11.374  0.00  0.00    +0.000 A 
ATOM     11  N   UNL     1      42.695   4.648  12.012  0.00  0.00    +0.000 N 
ATOM     12  C   UNL     1      43.768   4.311  12.802  0.00  0.00    +0.000 A 
ATOM     13  O   UNL     1      43.775   3.276  13.460  0.00  0.00    +0.000 OA
ATOM     14  C   UNL     1      44.836   5.295  12.820  0.00  0.00    +0.000 A 
ATOM     15  H   UNL     1      41.937   3.982  11.981  0.00  0.00    +0.000 HD
ENDBRANCH   2   5
BRANCH   3  16
ATOM     16  C   UNL     1      47.322   3.612  16.629  0.00  0.00    +0.000 C 
BRANCH  16  17
ATOM     17  C   UNL     1      47.865   4.333  17.826  0.00  0.00    +0.000 A 
ATOM     18  C   UNL     1      47.119   5.290  18.518  0.00  0.00    +0.000 A 
ATOM     19  C   UNL     1      47.680   5.946  19.612  0.00  0.00    +0.000 A 
ATOM     20  C   UNL     1      48.985   5.637  19.960  0.00  0.00    +0.000 A 
ATOM     21  N   UNL     1      49.733   4.723  19.310  0.00  0.00    +0.000 NA
ATOM     22  C   UNL     1      49.162   4.097  18.264  0.00  0.00    +0.000 A 
BRANCH  20  23
ATOM     23  O   UNL     1      49.536   6.309  21.037  0.00  0.00    +0.000 OA
BRANCH  23  24
ATOM     24  C   UNL     1      49.688   7.707  20.744  0.00  0.00    +0.000 C 
BRANCH  24  25
ATOM     25  C   UNL     1      51.025   7.966  20.030  0.00  0.00    +0.000 C 
BRANCH  25  26
ATOM     26  N   UNL     1      50.903   8.923  18.912  0.00  0.00    +0.000 NA
ATOM     27  C   UNL     1      51.766   8.607  17.769  0.00  0.00    +0.000 C 
ATOM     28  C   UNL     1      50.977   7.603  16.949  0.00  0.00    +0.000 C 
ATOM     29  O   UNL     1      49.602   7.799  17.298  0.00  0.00    +0.000 OA
ATOM     30  C   UNL     1      49.580   8.820  18.295  0.00  0.00    +0.000 C 
ENDBRANCH  25  26
ENDBRANCH  24  25
ENDBRANCH  23  24
ENDBRANCH  20  23
ENDBRANCH  16  17
ENDBRANCH   3  16
TORSDOF 7
ENDMDL
MODEL 9
REMARK VINA RESULT:    -6.172      3.840      9.144
REMARK INTER + INTRA:          -9.707
REMARK INTER:                  -8.626
REMARK INTRA:                  -1.082
REMARK UNBOUND:                -1.010
REMARK  Name = 
REMARK  7 active torsions:
REMARK  status: ('A' for Active; 'I' for Inactive)
REMARK    1  A    between atoms: C_2  and  C_19
REMARK    2  A    between atoms: N_3  and  C_4
REMARK    3  A    between atoms: C_4  and  C_5
REMARK    4  A    between atoms: C_8  and  O_9
REMARK    5  A    between atoms: O_9  and  C_10
REMARK    6  A    between atoms: C_10  and  C_11
REMARK    7  A    between atoms: C_11  and  N_12
REMARK                            x       y       z     vdW  Elec       q    Type
REMARK                         _______ _______ _______ _____ _____    ______ ____
ROOT
ATOM      1  O   UNL     1      47.150   3.234  13.708  0.00  0.00    +0.000 OA
ATOM      2  C   UNL     1      46.768   4.294  14.197  0.00  0.00    +0.000 C 
ATOM      3  N   UNL     1      46.990   4.617  15.511  0.00  0.00    +0.000 N 
ATOM      4  H   UNL     1      46.499   5.412  15.909  0.00  0.00    +0.000 HD
ENDROOT
BRANCH   2   5
ATOM      5  C   UNL     1      46.097   5.316  13.384  0.00  0.00    +0.000 A 
ATOM      6  C   UNL     1      46.741   6.516  13.118  0.00  0.00    +0.000 A 
ATOM      7  S   UNL     1      45.805   7.603  12.195  0.00  0.00    +0.000 S 
ATOM      8  C   UNL     1      44.526   6.488  12.076  0.00  0.00    +0.000 A 
ATOM      9  N   UNL     1      43.396   6.790  11.382  0.00  0.00    +0.000 NA
ATOM     10  C   UNL     1      42.528   5.834  11.331  0.00  0.00    +0.000 A 
ATOM     11  N   UNL     1      42.684   4.606  11.920  0.00  0.00    +0.000 N 
ATOM     12  C   UNL     1      43.773   4.284  12.693  0.00  0.00    +0.000 A 
ATOM     13  O   UNL     1      43.826   3.224  13.310  0.00  0.00    +0.000 OA
ATOM     14  C   UNL     1      44.799   5.310  12.748  0.00  0.00    +0.000 A 
ATOM     15  H   UNL     1      41.954   3.911  11.864  0.00  0.00    +0.000 HD
ENDBRANCH   2   5
BRANCH   3  16
ATOM     16  C   UNL     1      47.579   3.694  16.447  0.00  0.00    +0.000 C 
BRANCH  16  17
ATOM     17  C   UNL     1      48.321   4.420  17.529  0.00  0.00    +0.000 A 
ATOM     18  C   UNL     1      48.887   5.682  17.322  0.00  0.00    +0.000 A 
ATOM     19  C   UNL     1      49.584   6.304  18.356  0.00  0.00    +0.000 A 
ATOM     20  C   UNL     1      49.714   5.626  19.558  0.00  0.00    +0.000 A 
ATOM     21  N   UNL     1      49.185   4.408  19.786  0.00  0.00    +0.000 NA
ATOM     22  C   UNL     1      48.507   3.835  18.774  0.00  0.00    +0.000 A 
BRANCH  20  23
ATOM     23  O   UNL     1      50.424   6.248  20.570  0.00  0.00    +0.000 OA
BRANCH  23  24
ATOM     24  C   UNL     1      51.826   6.285  20.261  0.00  0.00    +0.000 C 
BRANCH  24  25
ATOM     25  C   UNL     1      52.477   4.923  20.546  0.00  0.00    +0.000 C 
BRANCH  25  26
ATOM     26  N   UNL     1      53.478   4.539  19.530  0.00  0.00    +0.000 NA
ATOM     27  C   UNL     1      53.488   3.105  19.225  0.00  0.00    +0.000 C 
ATOM     28  C   UNL     1      52.406   2.920  18.177  0.00  0.00    +0.000 C 
ATOM     29  O   UNL     1      52.231   4.199  17.557  0.00  0.00    +0.000 OA
ATOM     30  C   UNL     1      53.118   5.096  18.225  0.00  0.00    +0.000 C 
ENDBRANCH  25  26
ENDBRANCH  24  25
ENDBRANCH  23  24
ENDBRANCH  20  23
ENDBRANCH  16  17
ENDBRANCH   3  16
TORSDOF 7
ENDMDL
