MODEL 1
REMARK VINA RESULT:    -8.668      0.000      0.000
REMARK INTER + INTRA:         -11.249
REMARK INTER:                 -10.695
REMARK INTRA:                  -0.554
REMARK UNBOUND:                -0.554
REMARK  Name = 
REMARK  4 active torsions:
REMARK  status: ('A' for Active; 'I' for Inactive)
REMARK    1  A    between atoms: C_2  and  C_4
REMARK    2  A    between atoms: N_8  and  C_9
REMARK    3  A    between atoms: C_9  and  C_10
REMARK    4  A    between atoms: C_14  and  N_15
REMARK                            x       y       z     vdW  Elec       q    Type
REMARK                         _______ _______ _______ _____ _____    ______ ____
ROOT
ATOM      1  C   UNL     1      46.448   2.686   7.573  0.00  0.00    +0.000 A 
ATOM      2  C   UNL     1      46.059   4.009   7.743  0.00  0.00    +0.000 A 
ATOM      3  C   UNL     1      45.143   4.323   8.747  0.00  0.00    +0.000 A 
ATOM      4  C   UNL     1      44.628   3.319   9.557  0.00  0.00    +0.000 A 
ATOM      5  N   UNL     1      43.801   3.544  10.620  0.00  0.00    +0.000 N 
ATOM      6  N   UNL     1      44.971   2.027   9.371  0.00  0.00    +0.000 NA
ATOM      7  C   UNL     1      45.861   1.734   8.389  0.00  0.00    +0.000 A 
ATOM      8  H   UNL     1      43.435   2.689  11.018  0.00  0.00    +0.000 HD
ENDROOT
BRANCH   1  10
ATOM      9  N   UNL     1      47.437   2.918   5.370  0.00  0.00    +0.000 N 
ATOM     10  C   UNL     1      47.452   2.267   6.574  0.00  0.00    +0.000 C 
ATOM     11  O   UNL     1      48.290   1.412   6.822  0.00  0.00    +0.000 OA
ATOM     12  H   UNL     1      48.199   2.705   4.738  0.00  0.00    +0.000 HD
ATOM     13  H   UNL     1      46.946   3.788   5.228  0.00  0.00    +0.000 HD
ENDBRANCH   1  10
BRANCH   5  14
ATOM     14  C   UNL     1      43.220   4.803  11.011  0.00  0.00    +0.000 C 
BRANCH  14  15
ATOM     15  C   UNL     1      44.241   5.734  11.615  0.00  0.00    +0.000 A 
ATOM     16  C   UNL     1      44.193   7.106  11.352  0.00  0.00    +0.000 A 
ATOM     17  C   UNL     1      45.116   7.960  11.943  0.00  0.00    +0.000 A 
ATOM     18  C   UNL     1      46.091   7.447  12.803  0.00  0.00    +0.000 A 
ATOM     19  C   UNL     1      46.176   6.079  13.101  0.00  0.00    +0.000 A 
ATOM     20  C   UNL     1      45.232   5.242  12.486  0.00  0.00    +0.000 A 
BRANCH  19  21
ATOM     21  N   UNL     1      47.111   5.603  13.994  0.00  0.00    +0.000 N 
ATOM     22  C   UNL     1      47.103   4.228  14.511  0.00  0.00    +0.000 C 
ATOM     23  C   UNL     1      47.408   4.262  16.021  0.00  0.00    +0.000 C 
ATOM     24  O   UNL     1      48.637   4.952  16.309  0.00  0.00    +0.000 OA
ATOM     25  C   UNL     1      48.576   6.305  15.822  0.00  0.00    +0.000 C 
ATOM     26  C   UNL     1      48.345   6.341  14.304  0.00  0.00    +0.000 C 
ENDBRANCH  19  21
ENDBRANCH  14  15
ENDBRANCH   5  14
TORSDOF 4
ENDMDL
MODEL 2
REMARK VINA RESULT:    -8.078      2.284      3.482
REMARK INTER + INTRA:         -10.522
REMARK INTER:                  -9.913
REMARK INTRA:                  -0.609
REMARK UNBOUND:                -0.554
REMARK  Name = 
REMARK  4 active torsions:
REMARK  status: ('A' for Active; 'I' for Inactive)
REMARK    1  A    between atoms: C_2  and  C_4
REMARK    2  A    between atoms: N_8  and  C_9
REMARK    3  A    between atoms: C_9  and  C_10
REMARK    4  A    between atoms: C_14  and  N_15
REMARK                            x       y       z     vdW  Elec       q    Type
REMARK                         _______ _______ _______ _____ _____    ______ ____
ROOT
ATOM      1  C   UNL     1      46.646   2.656   7.390  0.00  0.00    +0.000 A 
ATOM      2  C   UNL     1      46.349   3.984   7.669  0.00  0.00    +0.000 A 
ATOM      3  C   UNL     1      45.450   4.278   8.693  0.00  0.00    +0.000 A 
ATOM      4  C   UNL     1      44.859   3.247   9.416  0.00  0.00    +0.000 A 
ATOM      5  N   UNL     1      44.041   3.441  10.492  0.00  0.00    +0.000 N 
ATOM      6  N   UNL     1      45.112   1.955   9.123  0.00  0.00    +0.000 NA
ATOM      7  C   UNL     1      45.988   1.683   8.121  0.00  0.00    +0.000 A 
ATOM      8  H   UNL     1      43.613   2.584  10.815  0.00  0.00    +0.000 HD
ENDROOT
BRANCH   1  10
ATOM      9  N   UNL     1      47.686   3.017   5.227  0.00  0.00    +0.000 N 
ATOM     10  C   UNL     1      47.627   2.253   6.362  0.00  0.00    +0.000 C 
ATOM     11  O   UNL     1      48.385   1.309   6.530  0.00  0.00    +0.000 OA
ATOM     12  H   UNL     1      48.437   2.802   4.583  0.00  0.00    +0.000 HD
ATOM     13  H   UNL     1      47.272   3.936   5.169  0.00  0.00    +0.000 HD
ENDBRANCH   1  10
BRANCH   5  14
ATOM     14  C   UNL     1      43.546   4.701  10.985  0.00  0.00    +0.000 C 
BRANCH  14  15
ATOM     15  C   UNL     1      44.563   5.412  11.841  0.00  0.00    +0.000 A 
ATOM     16  C   UNL     1      45.404   4.688  12.693  0.00  0.00    +0.000 A 
ATOM     17  C   UNL     1      46.363   5.351  13.449  0.00  0.00    +0.000 A 
ATOM     18  C   UNL     1      46.489   6.739  13.357  0.00  0.00    +0.000 A 
ATOM     19  C   UNL     1      45.673   7.507  12.513  0.00  0.00    +0.000 A 
ATOM     20  C   UNL     1      44.712   6.810  11.765  0.00  0.00    +0.000 A 
BRANCH  19  21
ATOM     21  N   UNL     1      45.851   8.868  12.397  0.00  0.00    +0.000 N 
ATOM     22  C   UNL     1      44.747   9.808  12.160  0.00  0.00    +0.000 C 
ATOM     23  C   UNL     1      45.194  10.848  11.116  0.00  0.00    +0.000 C 
ATOM     24  O   UNL     1      46.411  11.513  11.501  0.00  0.00    +0.000 OA
ATOM     25  C   UNL     1      47.470  10.554  11.678  0.00  0.00    +0.000 C 
ATOM     26  C   UNL     1      47.115   9.527  12.762  0.00  0.00    +0.000 C 
ENDBRANCH  19  21
ENDBRANCH  14  15
ENDBRANCH   5  14
TORSDOF 4
ENDMDL
MODEL 3
REMARK VINA RESULT:    -7.590      2.083      3.035
REMARK INTER + INTRA:          -9.919
REMARK INTER:                  -9.288
REMARK INTRA:                  -0.631
REMARK UNBOUND:                -0.554
REMARK  Name = 
REMARK  4 active torsions:
REMARK  status: ('A' for Active; 'I' for Inactive)
REMARK    1  A    between atoms: C_2  and  C_4
REMARK    2  A    between atoms: N_8  and  C_9
REMARK    3  A    between atoms: C_9  and  C_10
REMARK    4  A    between atoms: C_14  and  N_15
REMARK                            x       y       z     vdW  Elec       q    Type
REMARK                         _______ _______ _______ _____ _____    ______ ____
ROOT
ATOM      1  C   UNL     1      46.408   2.232   7.520  0.00  0.00    +0.000 A 
ATOM      2  C   UNL     1      45.971   1.907   8.798  0.00  0.00    +0.000 A 
ATOM      3  C   UNL     1      45.180   2.818   9.497  0.00  0.00    +0.000 A 
ATOM      4  C   UNL     1      44.843   4.035   8.916  0.00  0.00    +0.000 A 
ATOM      5  N   UNL     1      44.001   4.946   9.486  0.00  0.00    +0.000 N 
ATOM      6  N   UNL     1      45.298   4.373   7.692  0.00  0.00    +0.000 NA
ATOM      7  C   UNL     1      46.070   3.479   7.023  0.00  0.00    +0.000 A 
ATOM      8  H   UNL     1      43.967   5.818   8.976  0.00  0.00    +0.000 HD
ENDROOT
BRANCH   1  10
ATOM      9  N   UNL     1      48.241   1.849   5.977  0.00  0.00    +0.000 N 
ATOM     10  C   UNL     1      47.202   1.308   6.685  0.00  0.00    +0.000 C 
ATOM     11  O   UNL     1      46.976   0.107   6.661  0.00  0.00    +0.000 OA
ATOM     12  H   UNL     1      48.847   1.192   5.501  0.00  0.00    +0.000 HD
ATOM     13  H   UNL     1      48.613   2.767   6.174  0.00  0.00    +0.000 HD
ENDBRANCH   1  10
BRANCH   5  14
ATOM     14  C   UNL     1      43.425   4.883  10.805  0.00  0.00    +0.000 C 
BRANCH  14  15
ATOM     15  C   UNL     1      44.458   5.090  11.883  0.00  0.00    +0.000 A 
ATOM     16  C   UNL     1      44.643   4.128  12.882  0.00  0.00    +0.000 A 
ATOM     17  C   UNL     1      45.623   4.311  13.850  0.00  0.00    +0.000 A 
ATOM     18  C   UNL     1      46.426   5.454  13.824  0.00  0.00    +0.000 A 
ATOM     19  C   UNL     1      46.281   6.444  12.840  0.00  0.00    +0.000 A 
ATOM     20  C   UNL     1      45.280   6.233  11.878  0.00  0.00    +0.000 A 
BRANCH  19  21
ATOM     21  N   UNL     1      47.119   7.537  12.802  0.00  0.00    +0.000 N 
ATOM     22  C   UNL     1      46.676   8.903  13.111  0.00  0.00    +0.000 C 
ATOM     23  C   UNL     1      47.296   9.871  12.086  0.00  0.00    +0.000 C 
ATOM     24  O   UNL     1      48.729   9.756  12.031  0.00  0.00    +0.000 OA
ATOM     25  C   UNL     1      49.109   8.412  11.682  0.00  0.00    +0.000 C 
ATOM     26  C   UNL     1      48.581   7.400  12.708  0.00  0.00    +0.000 C 
ENDBRANCH  19  21
ENDBRANCH  14  15
ENDBRANCH   5  14
TORSDOF 4
ENDMDL
MODEL 4
REMARK VINA RESULT:    -7.239      2.338      8.248
REMARK INTER + INTRA:          -9.486
REMARK INTER:                  -9.096
REMARK INTRA:                  -0.391
REMARK UNBOUND:                -0.554
REMARK  Name = 
REMARK  4 active torsions:
REMARK  status: ('A' for Active; 'I' for Inactive)
REMARK    1  A    between atoms: C_2  and  C_4
REMARK    2  A    between atoms: N_8  and  C_9
REMARK    3  A    between atoms: C_9  and  C_10
REMARK    4  A    between atoms: C_14  and  N_15
REMARK                            x       y       z     vdW  Elec       q    Type
REMARK                         _______ _______ _______ _____ _____    ______ ____
ROOT
ATOM      1  C   UNL     1      48.537   4.498  18.271  0.00  0.00    +0.000 A 
ATOM      2  C   UNL     1      48.733   5.530  17.362  0.00  0.00    +0.000 A 
ATOM      3  C   UNL     1      48.043   5.509  16.150  0.00  0.00    +0.000 A 
ATOM      4  C   UNL     1      47.178   4.460  15.862  0.00  0.00    +0.000 A 
ATOM      5  N   UNL     1      46.394   4.402  14.746  0.00  0.00    +0.000 N 
ATOM      6  N   UNL     1      47.014   3.434  16.723  0.00  0.00    +0.000 NA
ATOM      7  C   UNL     1      47.693   3.466  17.898  0.00  0.00    +0.000 A 
ATOM      8  H   UNL     1      45.919   3.514  14.648  0.00  0.00    +0.000 HD
ENDROOT
BRANCH   1  10
ATOM      9  N   UNL     1      48.601   3.671  20.551  0.00  0.00    +0.000 N 
ATOM     10  C   UNL     1      49.181   4.466  19.599  0.00  0.00    +0.000 C 
ATOM     11  O   UNL     1      50.211   5.083  19.830  0.00  0.00    +0.000 OA
ATOM     12  H   UNL     1      49.114   3.567  21.418  0.00  0.00    +0.000 HD
ATOM     13  H   UNL     1      47.922   2.959  20.324  0.00  0.00    +0.000 HD
ENDBRANCH   1  10
BRANCH   5  14
ATOM     14  C   UNL     1      46.408   5.314  13.631  0.00  0.00    +0.000 C 
BRANCH  14  15
ATOM     15  C   UNL     1      45.332   4.995  12.625  0.00  0.00    +0.000 A 
ATOM     16  C   UNL     1      44.013   5.406  12.843  0.00  0.00    +0.000 A 
ATOM     17  C   UNL     1      43.036   5.138  11.892  0.00  0.00    +0.000 A 
ATOM     18  C   UNL     1      43.371   4.460  10.717  0.00  0.00    +0.000 A 
ATOM     19  C   UNL     1      44.681   4.032  10.452  0.00  0.00    +0.000 A 
ATOM     20  C   UNL     1      45.644   4.314  11.433  0.00  0.00    +0.000 A 
BRANCH  19  21
ATOM     21  N   UNL     1      45.000   3.414   9.263  0.00  0.00    +0.000 N 
ATOM     22  C   UNL     1      44.842   1.971   9.038  0.00  0.00    +0.000 C 
ATOM     23  C   UNL     1      46.077   1.447   8.282  0.00  0.00    +0.000 C 
ATOM     24  O   UNL     1      46.313   2.172   7.062  0.00  0.00    +0.000 OA
ATOM     25  C   UNL     1      46.504   3.570   7.342  0.00  0.00    +0.000 C 
ATOM     26  C   UNL     1      45.273   4.174   8.033  0.00  0.00    +0.000 C 
ENDBRANCH  19  21
ENDBRANCH  14  15
ENDBRANCH   5  14
TORSDOF 4
ENDMDL
MODEL 5
REMARK VINA RESULT:    -6.823      2.672      6.945
REMARK INTER + INTRA:          -8.972
REMARK INTER:                  -8.352
REMARK INTRA:                  -0.621
REMARK UNBOUND:                -0.554
REMARK  Name = 
REMARK  4 active torsions:
REMARK  status: ('A' for Active; 'I' for Inactive)
REMARK    1  A    between atoms: C_2  and  C_4
REMARK    2  A    between atoms: N_8  and  C_9
REMARK    3  A    between atoms: C_9  and  C_10
REMARK    4  A    between atoms: C_14  and  N_15
REMARK                            x       y       z     vdW  Elec       q    Type
REMARK                         _______ _______ _______ _____ _____    ______ ____
ROOT
ATOM      1  C   UNL     1      49.907   8.316  12.432  0.00  0.00    +0.000 A 
ATOM      2  C   UNL     1      48.766   8.597  11.692  0.00  0.00    +0.000 A 
ATOM      3  C   UNL     1      47.580   7.926  11.990  0.00  0.00    +0.000 A 
ATOM      4  C   UNL     1      47.553   6.986  13.014  0.00  0.00    +0.000 A 
ATOM      5  N   UNL     1      46.421   6.350  13.436  0.00  0.00    +0.000 N 
ATOM      6  N   UNL     1      48.667   6.679  13.710  0.00  0.00    +0.000 NA
ATOM      7  C   UNL     1      49.815   7.338  13.407  0.00  0.00    +0.000 A 
ATOM      8  H   UNL     1      46.612   5.618  14.107  0.00  0.00    +0.000 HD
ENDROOT
BRANCH   1  10
ATOM      9  N   UNL     1      51.269  10.311  12.659  0.00  0.00    +0.000 N 
ATOM     10  C   UNL     1      51.191   9.016  12.224  0.00  0.00    +0.000 C 
ATOM     11  O   UNL     1      52.157   8.455  11.727  0.00  0.00    +0.000 OA
ATOM     12  H   UNL     1      52.185  10.742  12.616  0.00  0.00    +0.000 HD
ATOM     13  H   UNL     1      50.597  10.712  13.297  0.00  0.00    +0.000 HD
ENDBRANCH   1  10
BRANCH   5  14
ATOM     14  C   UNL     1      45.112   6.429  12.839  0.00  0.00    +0.000 C 
BRANCH  14  15
ATOM     15  C   UNL     1      44.669   5.104  12.272  0.00  0.00    +0.000 A 
ATOM     16  C   UNL     1      43.754   4.306  12.965  0.00  0.00    +0.000 A 
ATOM     17  C   UNL     1      43.325   3.104  12.415  0.00  0.00    +0.000 A 
ATOM     18  C   UNL     1      43.805   2.694  11.169  0.00  0.00    +0.000 A 
ATOM     19  C   UNL     1      44.720   3.463  10.434  0.00  0.00    +0.000 A 
ATOM     20  C   UNL     1      45.137   4.670  11.017  0.00  0.00    +0.000 A 
BRANCH  19  21
ATOM     21  N   UNL     1      45.139   3.066   9.183  0.00  0.00    +0.000 N 
ATOM     22  C   UNL     1      45.229   1.659   8.773  0.00  0.00    +0.000 C 
ATOM     23  C   UNL     1      46.535   1.453   7.983  0.00  0.00    +0.000 C 
ATOM     24  O   UNL     1      46.643   2.359   6.870  0.00  0.00    +0.000 OA
ATOM     25  C   UNL     1      46.594   3.722   7.330  0.00  0.00    +0.000 C 
ATOM     26  C   UNL     1      45.278   4.014   8.066  0.00  0.00    +0.000 C 
ENDBRANCH  19  21
ENDBRANCH  14  15
ENDBRANCH   5  14
TORSDOF 4
ENDMDL
MODEL 6
REMARK VINA RESULT:    -6.682      3.806      8.208
REMARK INTER + INTRA:          -8.798
REMARK INTER:                  -8.166
REMARK INTRA:                  -0.632
REMARK UNBOUND:                -0.554
REMARK  Name = 
REMARK  4 active torsions:
REMARK  status: ('A' for Active; 'I' for Inactive)
REMARK    1  A    between atoms: C_2  and  C_4
REMARK    2  A    between atoms: N_8  and  C_9
REMARK    3  A    between atoms: C_9  and  C_10
REMARK    4  A    between atoms: C_14  and  N_15
REMARK                            x       y       z     vdW  Elec       q    Type
REMARK                         _______ _______ _______ _____ _____    ______ ____
ROOT
ATOM      1  C   UNL     1      51.811   2.524  17.765  0.00  0.00    +0.000 A 
ATOM      2  C   UNL     1      51.205   3.762  17.941  0.00  0.00    +0.000 A 
ATOM      3  C   UNL     1      49.926   3.972  17.429  0.00  0.00    +0.000 A 
ATOM      4  C   UNL     1      49.275   2.950  16.747  0.00  0.00    +0.000 A 
ATOM      5  N   UNL     1      47.990   3.033  16.292  0.00  0.00    +0.000 N 
ATOM      6  N   UNL     1      49.873   1.760  16.536  0.00  0.00    +0.000 NA
ATOM      7  C   UNL     1      51.121   1.569  17.038  0.00  0.00    +0.000 A 
ATOM      8  H   UNL     1      47.727   2.242  15.719  0.00  0.00    +0.000 HD
ENDROOT
BRANCH   1  10
ATOM      9  N   UNL     1      53.398   2.611  19.598  0.00  0.00    +0.000 N 
ATOM     10  C   UNL     1      53.139   2.195  18.320  0.00  0.00    +0.000 C 
ATOM     11  O   UNL     1      53.957   1.542  17.689  0.00  0.00    +0.000 OA
ATOM     12  H   UNL     1      54.263   2.281  20.008  0.00  0.00    +0.000 HD
ATOM     13  H   UNL     1      52.670   2.913  20.229  0.00  0.00    +0.000 HD
ENDBRANCH   1  10
BRANCH   5  14
ATOM     14  C   UNL     1      47.139   4.195  16.314  0.00  0.00    +0.000 C 
BRANCH  14  15
ATOM     15  C   UNL     1      47.145   4.926  14.996  0.00  0.00    +0.000 A 
ATOM     16  C   UNL     1      48.095   5.921  14.740  0.00  0.00    +0.000 A 
ATOM     17  C   UNL     1      48.115   6.562  13.508  0.00  0.00    +0.000 A 
ATOM     18  C   UNL     1      47.188   6.212  12.523  0.00  0.00    +0.000 A 
ATOM     19  C   UNL     1      46.220   5.218  12.731  0.00  0.00    +0.000 A 
ATOM     20  C   UNL     1      46.223   4.591  13.986  0.00  0.00    +0.000 A 
BRANCH  19  21
ATOM     21  N   UNL     1      45.351   4.851  11.726  0.00  0.00    +0.000 N 
ATOM     22  C   UNL     1      44.222   3.934  11.934  0.00  0.00    +0.000 C 
ATOM     23  C   UNL     1      44.148   2.958  10.744  0.00  0.00    +0.000 C 
ATOM     24  O   UNL     1      44.074   3.647   9.483  0.00  0.00    +0.000 OA
ATOM     25  C   UNL     1      45.223   4.497   9.310  0.00  0.00    +0.000 C 
ATOM     26  C   UNL     1      45.315   5.544  10.429  0.00  0.00    +0.000 C 
ENDBRANCH  19  21
ENDBRANCH  14  15
ENDBRANCH   5  14
TORSDOF 4
ENDMDL
MODEL 7
REMARK VINA RESULT:    -6.607      2.671      7.040
REMARK INTER + INTRA:          -8.706
REMARK INTER:                  -8.169
REMARK INTRA:                  -0.537
REMARK UNBOUND:                -0.554
REMARK  Name = 
REMARK  4 active torsions:
REMARK  status: ('A' for Active; 'I' for Inactive)
REMARK    1  A    between atoms: C_2  and  C_4
REMARK    2  A    between atoms: N_8  and  C_9
REMARK    3  A    between atoms: C_9  and  C_10
REMARK    4  A    between atoms: C_14  and  N_15
REMARK                            x       y       z     vdW  Elec       q    Type
REMARK                         _______ _______ _______ _____ _____    ______ ____
ROOT
ATOM      1  C   UNL     1      46.559   9.438  12.094  0.00  0.00    +0.000 A 
ATOM      2  C   UNL     1      45.499   8.694  12.597  0.00  0.00    +0.000 A 
ATOM      3  C   UNL     1      45.715   7.368  12.968  0.00  0.00    +0.000 A 
ATOM      4  C   UNL     1      46.978   6.804  12.828  0.00  0.00    +0.000 A 
ATOM      5  N   UNL     1      47.304   5.547  13.249  0.00  0.00    +0.000 N 
ATOM      6  N   UNL     1      48.002   7.508  12.303  0.00  0.00    +0.000 NA
ATOM      7  C   UNL     1      47.777   8.798  11.943  0.00  0.00    +0.000 A 
ATOM      8  H   UNL     1      48.231   5.266  12.958  0.00  0.00    +0.000 HD
ENDROOT
BRANCH   1  10
ATOM      9  N   UNL     1      45.307  11.516  12.144  0.00  0.00    +0.000 N 
ATOM     10  C   UNL     1      46.437  10.863  11.728  0.00  0.00    +0.000 C 
ATOM     11  O   UNL     1      47.321  11.450  11.121  0.00  0.00    +0.000 OA
ATOM     12  H   UNL     1      45.287  12.516  11.988  0.00  0.00    +0.000 HD
ATOM     13  H   UNL     1      44.696  11.144  12.856  0.00  0.00    +0.000 HD
ENDBRANCH   1  10
BRANCH   5  14
ATOM     14  C   UNL     1      46.405   4.553  13.779  0.00  0.00    +0.000 C 
BRANCH  14  15
ATOM     15  C   UNL     1      45.372   4.128  12.767  0.00  0.00    +0.000 A 
ATOM     16  C   UNL     1      44.010   4.189  13.075  0.00  0.00    +0.000 A 
ATOM     17  C   UNL     1      43.065   3.829  12.122  0.00  0.00    +0.000 A 
ATOM     18  C   UNL     1      43.476   3.408  10.855  0.00  0.00    +0.000 A 
ATOM     19  C   UNL     1      44.830   3.335  10.498  0.00  0.00    +0.000 A 
ATOM     20  C   UNL     1      45.761   3.701  11.482  0.00  0.00    +0.000 A 
BRANCH  19  21
ATOM     21  N   UNL     1      45.211   2.969   9.224  0.00  0.00    +0.000 N 
ATOM     22  C   UNL     1      45.213   1.578   8.753  0.00  0.00    +0.000 C 
ATOM     23  C   UNL     1      46.496   1.331   7.937  0.00  0.00    +0.000 C 
ATOM     24  O   UNL     1      46.645   2.277   6.863  0.00  0.00    +0.000 OA
ATOM     25  C   UNL     1      46.681   3.619   7.381  0.00  0.00    +0.000 C 
ATOM     26  C   UNL     1      45.393   3.955   8.148  0.00  0.00    +0.000 C 
ENDBRANCH  19  21
ENDBRANCH  14  15
ENDBRANCH   5  14
TORSDOF 4
ENDMDL
MODEL 8
REMARK VINA RESULT:    -6.144      3.063      8.353
REMARK INTER + INTRA:          -8.134
REMARK INTER:                  -7.606
REMARK INTRA:                  -0.529
REMARK UNBOUND:                -0.554
REMARK  Name = 
REMARK  4 active torsions:
REMARK  status: ('A' for Active; 'I' for Inactive)
REMARK    1  A    between atoms: C_2  and  C_4
REMARK    2  A    between atoms: N_8  and  C_9
REMARK    3  A    between atoms: C_9  and  C_10
REMARK    4  A    between atoms: C_14  and  N_15
REMARK                            x       y       z     vdW  Elec       q    Type
REMARK                         _______ _______ _______ _____ _____    ______ ____
ROOT
ATOM      1  C   UNL     1      49.205   5.473  18.717  0.00  0.00    +0.000 A 
ATOM      2  C   UNL     1      48.807   6.782  18.477  0.00  0.00    +0.000 A 
ATOM      3  C   UNL     1      48.642   7.210  17.160  0.00  0.00    +0.000 A 
ATOM      4  C   UNL     1      48.882   6.333  16.109  0.00  0.00    +0.000 A 
ATOM      5  N   UNL     1      48.659   6.635  14.796  0.00  0.00    +0.000 N 
ATOM      6  N   UNL     1      49.308   5.073  16.335  0.00  0.00    +0.000 NA
ATOM      7  C   UNL     1      49.467   4.669  17.621  0.00  0.00    +0.000 A 
ATOM      8  H   UNL     1      49.000   5.920  14.168  0.00  0.00    +0.000 HD
ENDROOT
BRANCH   1  10
ATOM      9  N   UNL     1      48.528   3.876  20.414  0.00  0.00    +0.000 N 
ATOM     10  C   UNL     1      49.351   4.917  20.078  0.00  0.00    +0.000 C 
ATOM     11  O   UNL     1      50.198   5.332  20.855  0.00  0.00    +0.000 OA
ATOM     12  H   UNL     1      48.715   3.429  21.304  0.00  0.00    +0.000 HD
ATOM     13  H   UNL     1      48.013   3.346  19.727  0.00  0.00    +0.000 HD
ENDBRANCH   1  10
BRANCH   5  14
ATOM     14  C   UNL     1      48.273   7.914  14.257  0.00  0.00    +0.000 C 
BRANCH  14  15
ATOM     15  C   UNL     1      47.049   7.814  13.384  0.00  0.00    +0.000 A 
ATOM     16  C   UNL     1      46.341   8.964  13.020  0.00  0.00    +0.000 A 
ATOM     17  C   UNL     1      45.235   8.864  12.184  0.00  0.00    +0.000 A 
ATOM     18  C   UNL     1      44.832   7.614  11.705  0.00  0.00    +0.000 A 
ATOM     19  C   UNL     1      45.513   6.434  12.039  0.00  0.00    +0.000 A 
ATOM     20  C   UNL     1      46.623   6.567  12.887  0.00  0.00    +0.000 A 
BRANCH  19  21
ATOM     21  N   UNL     1      45.131   5.220  11.512  0.00  0.00    +0.000 N 
ATOM     22  C   UNL     1      45.291   4.872  10.093  0.00  0.00    +0.000 C 
ATOM     23  C   UNL     1      44.018   4.150   9.611  0.00  0.00    +0.000 C 
ATOM     24  O   UNL     1      43.702   3.007  10.427  0.00  0.00    +0.000 OA
ATOM     25  C   UNL     1      43.513   3.408  11.796  0.00  0.00    +0.000 C 
ATOM     26  C   UNL     1      44.776   4.073  12.362  0.00  0.00    +0.000 C 
ENDBRANCH  19  21
ENDBRANCH  14  15
ENDBRANCH   5  14
TORSDOF 4
ENDMDL
MODEL 9
REMARK VINA RESULT:    -6.058      2.936      4.771
REMARK INTER + INTRA:          -8.029
REMARK INTER:                  -7.331
REMARK INTRA:                  -0.697
REMARK UNBOUND:                -0.554
REMARK  Name = 
REMARK  4 active torsions:
REMARK  status: ('A' for Active; 'I' for Inactive)
REMARK    1  A    between atoms: C_2  and  C_4
REMARK    2  A    between atoms: N_8  and  C_9
REMARK    3  A    between atoms: C_9  and  C_10
REMARK    4  A    between atoms: C_14  and  N_15
REMARK                            x       y       z     vdW  Elec       q    Type
REMARK                         _______ _______ _______ _____ _____    ______ ____
ROOT
ATOM      1  C   UNL     1      44.661   4.102  11.365  0.00  0.00    +0.000 A 
ATOM      2  C   UNL     1      44.737   4.537  12.682  0.00  0.00    +0.000 A 
ATOM      3  C   UNL     1      45.405   5.728  12.966  0.00  0.00    +0.000 A 
ATOM      4  C   UNL     1      45.989   6.459  11.938  0.00  0.00    +0.000 A 
ATOM      5  N   UNL     1      46.581   7.677  12.109  0.00  0.00    +0.000 N 
ATOM      6  N   UNL     1      45.954   6.021  10.663  0.00  0.00    +0.000 NA
ATOM      7  C   UNL     1      45.302   4.859  10.400  0.00  0.00    +0.000 A 
ATOM      8  H   UNL     1      47.052   8.003  11.275  0.00  0.00    +0.000 HD
ENDROOT
BRANCH   1  10
ATOM      9  N   UNL     1      44.438   2.170   9.914  0.00  0.00    +0.000 N 
ATOM     10  C   UNL     1      43.928   2.884  10.965  0.00  0.00    +0.000 C 
ATOM     11  O   UNL     1      42.936   2.501  11.569  0.00  0.00    +0.000 OA
ATOM     12  H   UNL     1      43.996   1.280   9.723  0.00  0.00    +0.000 HD
ATOM     13  H   UNL     1      45.377   2.306   9.570  0.00  0.00    +0.000 HD
ENDBRANCH   1  10
BRANCH   5  14
ATOM     14  C   UNL     1      46.823   8.353  13.358  0.00  0.00    +0.000 C 
BRANCH  14  15
ATOM     15  C   UNL     1      48.178   8.018  13.929  0.00  0.00    +0.000 A 
ATOM     16  C   UNL     1      49.336   8.581  13.385  0.00  0.00    +0.000 A 
ATOM     17  C   UNL     1      50.576   8.293  13.943  0.00  0.00    +0.000 A 
ATOM     18  C   UNL     1      50.665   7.444  15.048  0.00  0.00    +0.000 A 
ATOM     19  C   UNL     1      49.531   6.859  15.631  0.00  0.00    +0.000 A 
ATOM     20  C   UNL     1      48.294   7.165  15.044  0.00  0.00    +0.000 A 
BRANCH  19  21
ATOM     21  N   UNL     1      49.637   6.067  16.754  0.00  0.00    +0.000 N 
ATOM     22  C   UNL     1      50.896   5.440  17.181  0.00  0.00    +0.000 C 
ATOM     23  C   UNL     1      50.605   3.996  17.631  0.00  0.00    +0.000 C 
ATOM     24  O   UNL     1      49.588   3.940  18.647  0.00  0.00    +0.000 OA
ATOM     25  C   UNL     1      48.366   4.526  18.164  0.00  0.00    +0.000 C 
ATOM     26  C   UNL     1      48.571   5.994  17.765  0.00  0.00    +0.000 C 
ENDBRANCH  19  21
ENDBRANCH  14  15
ENDBRANCH   5  14
TORSDOF 4
ENDMDL
