MODEL 1
REMARK VINA RESULT:    -7.657      0.000      0.000
REMARK INTER + INTRA:          -9.787
REMARK INTER:                  -9.448
REMARK INTRA:                  -0.339
REMARK UNBOUND:                -0.339
REMARK  Name = 
REMARK  4 active torsions:
REMARK  status: ('A' for Active; 'I' for Inactive)
REMARK    1  A    between atoms: C_2  and  C_4
REMARK    2  A    between atoms: C_7  and  N_8
REMARK    3  A    between atoms: N_8  and  C_9
REMARK    4  A    between atoms: C_9  and  C_10
REMARK                            x       y       z     vdW  Elec       q    Type
REMARK                         _______ _______ _______ _____ _____    ______ ____
ROOT
ATOM      1  C   UNL     1      46.385   2.310   7.793  0.00  0.00    +0.000 A 
ATOM      2  C   UNL     1      46.351   3.659   7.487  0.00  0.00    +0.000 A 
ATOM      3  N   UNL     1      45.498   4.520   8.103  0.00  0.00    +0.000 NA
ATOM      4  C   UNL     1      44.709   4.012   9.074  0.00  0.00    +0.000 A 
ATOM      5  C   UNL     1      44.745   2.637   9.346  0.00  0.00    +0.000 A 
ATOM      6  N   UNL     1      45.569   1.754   8.728  0.00  0.00    +0.000 NA
ENDROOT
BRANCH   1   8
ATOM      7  N   UNL     1      48.446   1.993   6.576  0.00  0.00    +0.000 N 
ATOM      8  C   UNL     1      47.320   1.400   7.078  0.00  0.00    +0.000 C 
ATOM      9  O   UNL     1      47.105   0.203   6.952  0.00  0.00    +0.000 OA
ATOM     10  H   UNL     1      49.136   1.434   6.091  0.00  0.00    +0.000 HD
ATOM     11  H   UNL     1      48.591   2.989   6.707  0.00  0.00    +0.000 HD
ENDBRANCH   1   8
BRANCH   4  12
ATOM     12  N   UNL     1      43.857   4.912   9.693  0.00  0.00    +0.000 N 
ATOM     13  H   UNL     1      42.970   4.928   9.197  0.00  0.00    +0.000 HD
BRANCH  12  14
ATOM     14  C   UNL     1      43.685   4.822  11.134  0.00  0.00    +0.000 C 
BRANCH  14  15
ATOM     15  C   UNL     1      44.921   5.287  11.869  0.00  0.00    +0.000 A 
ATOM     16  C   UNL     1      45.397   4.544  12.961  0.00  0.00    +0.000 A 
ATOM     17  C   UNL     1      46.590   4.896  13.596  0.00  0.00    +0.000 A 
ATOM     18  C   UNL     1      47.325   5.990  13.145  0.00  0.00    +0.000 A 
ATOM     19  C   UNL     1      46.870   6.732  12.059  0.00  0.00    +0.000 A 
ATOM     20  C   UNL     1      45.681   6.379  11.420  0.00  0.00    +0.000 A 
ENDBRANCH  14  15
ENDBRANCH  12  14
ENDBRANCH   4  12
TORSDOF 4
ENDMDL
MODEL 2
REMARK VINA RESULT:    -7.630      3.158      5.826
REMARK INTER + INTRA:          -9.753
REMARK INTER:                  -9.433
REMARK INTRA:                  -0.320
REMARK UNBOUND:                -0.339
REMARK  Name = 
REMARK  4 active torsions:
REMARK  status: ('A' for Active; 'I' for Inactive)
REMARK    1  A    between atoms: C_2  and  C_4
REMARK    2  A    between atoms: C_7  and  N_8
REMARK    3  A    between atoms: N_8  and  C_9
REMARK    4  A    between atoms: C_9  and  C_10
REMARK                            x       y       z     vdW  Elec       q    Type
REMARK                         _______ _______ _______ _____ _____    ______ ____
ROOT
ATOM      1  C   UNL     1      46.525   4.525  13.637  0.00  0.00    +0.000 A 
ATOM      2  C   UNL     1      46.724   5.670  12.886  0.00  0.00    +0.000 A 
ATOM      3  N   UNL     1      46.130   5.856  11.677  0.00  0.00    +0.000 NA
ATOM      4  C   UNL     1      45.287   4.891  11.253  0.00  0.00    +0.000 A 
ATOM      5  C   UNL     1      45.123   3.730  12.021  0.00  0.00    +0.000 A 
ATOM      6  N   UNL     1      45.722   3.509  13.218  0.00  0.00    +0.000 NA
ENDROOT
BRANCH   1   8
ATOM      7  N   UNL     1      47.514   5.513  15.605  0.00  0.00    +0.000 N 
ATOM      8  C   UNL     1      47.213   4.354  14.945  0.00  0.00    +0.000 C 
ATOM      9  O   UNL     1      47.484   3.254  15.406  0.00  0.00    +0.000 OA
ATOM     10  H   UNL     1      47.968   5.475  16.508  0.00  0.00    +0.000 HD
ATOM     11  H   UNL     1      47.266   6.406  15.191  0.00  0.00    +0.000 HD
ENDBRANCH   1   8
BRANCH   4  12
ATOM     12  N   UNL     1      44.687   5.110  10.024  0.00  0.00    +0.000 N 
ATOM     13  H   UNL     1      45.291   5.701   9.457  0.00  0.00    +0.000 HD
BRANCH  12  14
ATOM     14  C   UNL     1      44.182   3.963   9.286  0.00  0.00    +0.000 C 
BRANCH  14  15
ATOM     15  C   UNL     1      45.293   3.245   8.554  0.00  0.00    +0.000 A 
ATOM     16  C   UNL     1      45.462   1.864   8.736  0.00  0.00    +0.000 A 
ATOM     17  C   UNL     1      46.416   1.159   7.999  0.00  0.00    +0.000 A 
ATOM     18  C   UNL     1      47.209   1.824   7.067  0.00  0.00    +0.000 A 
ATOM     19  C   UNL     1      47.048   3.193   6.868  0.00  0.00    +0.000 A 
ATOM     20  C   UNL     1      46.092   3.898   7.601  0.00  0.00    +0.000 A 
ENDBRANCH  14  15
ENDBRANCH  12  14
ENDBRANCH   4  12
TORSDOF 4
ENDMDL
MODEL 3
REMARK VINA RESULT:    -6.526      3.483      6.518
REMARK INTER + INTRA:          -8.392
REMARK INTER:                  -8.037
REMARK INTRA:                  -0.355
REMARK UNBOUND:                -0.339
REMARK  Name = 
REMARK  4 active torsions:
REMARK  status: ('A' for Active; 'I' for Inactive)
REMARK    1  A    between atoms: C_2  and  C_4
REMARK    2  A    between atoms: C_7  and  N_8
REMARK    3  A    between atoms: N_8  and  C_9
REMARK    4  A    between atoms: C_9  and  C_10
REMARK                            x       y       z     vdW  Elec       q    Type
REMARK                         _______ _______ _______ _____ _____    ______ ____
ROOT
ATOM      1  C   UNL     1      45.243   7.955  11.863  0.00  0.00    +0.000 A 
ATOM      2  C   UNL     1      44.067   7.365  11.435  0.00  0.00    +0.000 A 
ATOM      3  N   UNL     1      43.980   6.035  11.168  0.00  0.00    +0.000 NA
ATOM      4  C   UNL     1      45.085   5.291  11.387  0.00  0.00    +0.000 A 
ATOM      5  C   UNL     1      46.271   5.918  11.796  0.00  0.00    +0.000 A 
ATOM      6  N   UNL     1      46.391   7.247  12.045  0.00  0.00    +0.000 NA
ENDROOT
BRANCH   1   8
ATOM      7  N   UNL     1      44.092  10.022  12.345  0.00  0.00    +0.000 N 
ATOM      8  C   UNL     1      45.299   9.419  12.122  0.00  0.00    +0.000 C 
ATOM      9  O   UNL     1      46.351  10.043  12.144  0.00  0.00    +0.000 OA
ATOM     10  H   UNL     1      44.053  11.012  12.544  0.00  0.00    +0.000 HD
ATOM     11  H   UNL     1      43.242   9.467  12.325  0.00  0.00    +0.000 HD
ENDBRANCH   1   8
BRANCH   4  12
ATOM     12  N   UNL     1      44.967   3.937  11.118  0.00  0.00    +0.000 N 
ATOM     13  H   UNL     1      44.641   3.458  11.954  0.00  0.00    +0.000 HD
BRANCH  12  14
ATOM     14  C   UNL     1      44.241   3.530   9.926  0.00  0.00    +0.000 C 
BRANCH  14  15
ATOM     15  C   UNL     1      45.182   3.058   8.841  0.00  0.00    +0.000 A 
ATOM     16  C   UNL     1      45.759   3.996   7.970  0.00  0.00    +0.000 A 
ATOM     17  C   UNL     1      46.705   3.599   7.022  0.00  0.00    +0.000 A 
ATOM     18  C   UNL     1      47.089   2.263   6.934  0.00  0.00    +0.000 A 
ATOM     19  C   UNL     1      46.531   1.322   7.796  0.00  0.00    +0.000 A 
ATOM     20  C   UNL     1      45.590   1.717   8.748  0.00  0.00    +0.000 A 
ENDBRANCH  14  15
ENDBRANCH  12  14
ENDBRANCH   4  12
TORSDOF 4
ENDMDL
MODEL 4
REMARK VINA RESULT:    -6.081      1.468      2.231
REMARK INTER + INTRA:          -7.842
REMARK INTER:                  -7.733
REMARK INTRA:                  -0.109
REMARK UNBOUND:                -0.339
REMARK  Name = 
REMARK  4 active torsions:
REMARK  status: ('A' for Active; 'I' for Inactive)
REMARK    1  A    between atoms: C_2  and  C_4
REMARK    2  A    between atoms: C_7  and  N_8
REMARK    3  A    between atoms: N_8  and  C_9
REMARK    4  A    between atoms: C_9  and  C_10
REMARK                            x       y       z     vdW  Elec       q    Type
REMARK                         _______ _______ _______ _____ _____    ______ ____
ROOT
ATOM      1  C   UNL     1      45.512   3.198   8.278  0.00  0.00    +0.000 A 
ATOM      2  C   UNL     1      45.241   2.178   9.173  0.00  0.00    +0.000 A 
ATOM      3  N   UNL     1      44.431   2.355  10.250  0.00  0.00    +0.000 NA
ATOM      4  C   UNL     1      43.852   3.566  10.390  0.00  0.00    +0.000 A 
ATOM      5  C   UNL     1      44.163   4.590   9.484  0.00  0.00    +0.000 A 
ATOM      6  N   UNL     1      44.987   4.446   8.415  0.00  0.00    +0.000 NA
ENDROOT
BRANCH   1   8
ATOM      7  N   UNL     1      47.167   1.821   7.187  0.00  0.00    +0.000 N 
ATOM      8  C   UNL     1      46.422   2.966   7.125  0.00  0.00    +0.000 C 
ATOM      9  O   UNL     1      46.495   3.738   6.179  0.00  0.00    +0.000 OA
ATOM     10  H   UNL     1      47.798   1.589   6.431  0.00  0.00    +0.000 HD
ATOM     11  H   UNL     1      47.073   1.203   7.987  0.00  0.00    +0.000 HD
ENDBRANCH   1   8
BRANCH   4  12
ATOM     12  N   UNL     1      43.023   3.717  11.489  0.00  0.00    +0.000 N 
ATOM     13  H   UNL     1      43.087   2.887  12.073  0.00  0.00    +0.000 HD
BRANCH  12  14
ATOM     14  C   UNL     1      43.114   4.946  12.261  0.00  0.00    +0.000 C 
BRANCH  14  15
ATOM     15  C   UNL     1      44.536   5.225  12.691  0.00  0.00    +0.000 A 
ATOM     16  C   UNL     1      45.079   6.504  12.496  0.00  0.00    +0.000 A 
ATOM     17  C   UNL     1      46.355   6.816  12.971  0.00  0.00    +0.000 A 
ATOM     18  C   UNL     1      47.101   5.856  13.651  0.00  0.00    +0.000 A 
ATOM     19  C   UNL     1      46.573   4.585  13.859  0.00  0.00    +0.000 A 
ATOM     20  C   UNL     1      45.296   4.273  13.389  0.00  0.00    +0.000 A 
ENDBRANCH  14  15
ENDBRANCH  12  14
ENDBRANCH   4  12
TORSDOF 4
ENDMDL
MODEL 5
REMARK VINA RESULT:    -6.055      4.185      5.864
REMARK INTER + INTRA:          -7.810
REMARK INTER:                  -7.486
REMARK INTRA:                  -0.324
REMARK UNBOUND:                -0.339
REMARK  Name = 
REMARK  4 active torsions:
REMARK  status: ('A' for Active; 'I' for Inactive)
REMARK    1  A    between atoms: C_2  and  C_4
REMARK    2  A    between atoms: C_7  and  N_8
REMARK    3  A    between atoms: N_8  and  C_9
REMARK    4  A    between atoms: C_9  and  C_10
REMARK                            x       y       z     vdW  Elec       q    Type
REMARK                         _______ _______ _______ _____ _____    ______ ____
ROOT
ATOM      1  C   UNL     1      45.188   4.110  11.779  0.00  0.00    +0.000 A 
ATOM      2  C   UNL     1      45.668   3.147  12.650  0.00  0.00    +0.000 A 
ATOM      3  N   UNL     1      46.372   3.467  13.768  0.00  0.00    +0.000 NA
ATOM      4  C   UNL     1      46.545   4.780  14.028  0.00  0.00    +0.000 A 
ATOM      5  C   UNL     1      46.072   5.734  13.117  0.00  0.00    +0.000 A 
ATOM      6  N   UNL     1      45.388   5.440  11.982  0.00  0.00    +0.000 NA
ENDROOT
BRANCH   1   8
ATOM      7  N   UNL     1      44.600   2.411  10.168  0.00  0.00    +0.000 N 
ATOM      8  C   UNL     1      44.441   3.713  10.556  0.00  0.00    +0.000 C 
ATOM      9  O   UNL     1      43.726   4.491   9.940  0.00  0.00    +0.000 OA
ATOM     10  H   UNL     1      44.111   2.064   9.354  0.00  0.00    +0.000 HD
ATOM     11  H   UNL     1      45.197   1.794  10.710  0.00  0.00    +0.000 HD
ENDBRANCH   1   8
BRANCH   4  12
ATOM     12  N   UNL     1      47.256   5.080  15.179  0.00  0.00    +0.000 N 
ATOM     13  H   UNL     1      47.095   6.053  15.427  0.00  0.00    +0.000 HD
BRANCH  12  14
ATOM     14  C   UNL     1      47.133   4.188  16.320  0.00  0.00    +0.000 C 
BRANCH  14  15
ATOM     15  C   UNL     1      48.488   3.758  16.834  0.00  0.00    +0.000 A 
ATOM     16  C   UNL     1      48.886   2.418  16.698  0.00  0.00    +0.000 A 
ATOM     17  C   UNL     1      50.169   2.014  17.076  0.00  0.00    +0.000 A 
ATOM     18  C   UNL     1      51.071   2.944  17.588  0.00  0.00    +0.000 A 
ATOM     19  C   UNL     1      50.694   4.277  17.721  0.00  0.00    +0.000 A 
ATOM     20  C   UNL     1      49.415   4.684  17.340  0.00  0.00    +0.000 A 
ENDBRANCH  14  15
ENDBRANCH  12  14
ENDBRANCH   4  12
TORSDOF 4
ENDMDL
MODEL 6
REMARK VINA RESULT:    -5.988      3.714      6.339
REMARK INTER + INTRA:          -7.728
REMARK INTER:                  -7.589
REMARK INTRA:                  -0.139
REMARK UNBOUND:                -0.339
REMARK  Name = 
REMARK  4 active torsions:
REMARK  status: ('A' for Active; 'I' for Inactive)
REMARK    1  A    between atoms: C_2  and  C_4
REMARK    2  A    between atoms: C_7  and  N_8
REMARK    3  A    between atoms: N_8  and  C_9
REMARK    4  A    between atoms: C_9  and  C_10
REMARK                            x       y       z     vdW  Elec       q    Type
REMARK                         _______ _______ _______ _____ _____    ______ ____
ROOT
ATOM      1  C   UNL     1      46.375   7.874  12.834  0.00  0.00    +0.000 A 
ATOM      2  C   UNL     1      45.368   8.422  12.060  0.00  0.00    +0.000 A 
ATOM      3  N   UNL     1      44.542   7.658  11.298  0.00  0.00    +0.000 NA
ATOM      4  C   UNL     1      44.711   6.320  11.363  0.00  0.00    +0.000 A 
ATOM      5  C   UNL     1      45.756   5.792  12.133  0.00  0.00    +0.000 A 
ATOM      6  N   UNL     1      46.609   6.534  12.884  0.00  0.00    +0.000 NA
ENDROOT
BRANCH   1   8
ATOM      7  N   UNL     1      47.508   8.332  14.916  0.00  0.00    +0.000 N 
ATOM      8  C   UNL     1      47.270   8.751  13.636  0.00  0.00    +0.000 C 
ATOM      9  O   UNL     1      47.768   9.772  13.184  0.00  0.00    +0.000 OA
ATOM     10  H   UNL     1      48.119   8.869  15.517  0.00  0.00    +0.000 HD
ATOM     11  H   UNL     1      47.080   7.475  15.252  0.00  0.00    +0.000 HD
ENDBRANCH   1   8
BRANCH   4  12
ATOM     12  N   UNL     1      43.850   5.563  10.584  0.00  0.00    +0.000 N 
ATOM     13  H   UNL     1      43.863   5.916   9.631  0.00  0.00    +0.000 HD
BRANCH  12  14
ATOM     14  C   UNL     1      43.959   4.115  10.641  0.00  0.00    +0.000 C 
BRANCH  14  15
ATOM     15  C   UNL     1      44.873   3.587   9.559  0.00  0.00    +0.000 A 
ATOM     16  C   UNL     1      45.028   2.201   9.400  0.00  0.00    +0.000 A 
ATOM     17  C   UNL     1      45.789   1.685   8.348  0.00  0.00    +0.000 A 
ATOM     18  C   UNL     1      46.400   2.546   7.440  0.00  0.00    +0.000 A 
ATOM     19  C   UNL     1      46.249   3.923   7.579  0.00  0.00    +0.000 A 
ATOM     20  C   UNL     1      45.485   4.440   8.627  0.00  0.00    +0.000 A 
ENDBRANCH  14  15
ENDBRANCH  12  14
ENDBRANCH   4  12
TORSDOF 4
ENDMDL
MODEL 7
REMARK VINA RESULT:    -5.784      4.651      6.964
REMARK INTER + INTRA:          -7.476
REMARK INTER:                  -7.166
REMARK INTRA:                  -0.309
REMARK UNBOUND:                -0.339
REMARK  Name = 
REMARK  4 active torsions:
REMARK  status: ('A' for Active; 'I' for Inactive)
REMARK    1  A    between atoms: C_2  and  C_4
REMARK    2  A    between atoms: C_7  and  N_8
REMARK    3  A    between atoms: N_8  and  C_9
REMARK    4  A    between atoms: C_9  and  C_10
REMARK                            x       y       z     vdW  Elec       q    Type
REMARK                         _______ _______ _______ _____ _____    ______ ____
ROOT
ATOM      1  C   UNL     1      47.642   4.594  16.035  0.00  0.00    +0.000 A 
ATOM      2  C   UNL     1      48.221   5.757  15.558  0.00  0.00    +0.000 A 
ATOM      3  N   UNL     1      48.019   6.199  14.288  0.00  0.00    +0.000 NA
ATOM      4  C   UNL     1      47.179   5.478  13.515  0.00  0.00    +0.000 A 
ATOM      5  C   UNL     1      46.626   4.291  14.014  0.00  0.00    +0.000 A 
ATOM      6  N   UNL     1      46.832   3.815  15.268  0.00  0.00    +0.000 NA
ENDROOT
BRANCH   1   8
ATOM      7  N   UNL     1      47.180   3.055  17.837  0.00  0.00    +0.000 N 
ATOM      8  C   UNL     1      47.909   4.136  17.425  0.00  0.00    +0.000 C 
ATOM      9  O   UNL     1      48.729   4.681  18.151  0.00  0.00    +0.000 OA
ATOM     10  H   UNL     1      47.319   2.678  18.764  0.00  0.00    +0.000 HD
ATOM     11  H   UNL     1      46.513   2.627  17.201  0.00  0.00    +0.000 HD
ENDBRANCH   1   8
BRANCH   4  12
ATOM     12  N   UNL     1      46.981   5.956  12.229  0.00  0.00    +0.000 N 
ATOM     13  H   UNL     1      47.553   5.419  11.582  0.00  0.00    +0.000 HD
BRANCH  12  14
ATOM     14  C   UNL     1      45.617   6.125  11.756  0.00  0.00    +0.000 C 
BRANCH  14  15
ATOM     15  C   UNL     1      45.266   5.098  10.704  0.00  0.00    +0.000 A 
ATOM     16  C   UNL     1      45.766   5.244   9.400  0.00  0.00    +0.000 A 
ATOM     17  C   UNL     1      45.537   4.261   8.435  0.00  0.00    +0.000 A 
ATOM     18  C   UNL     1      44.811   3.117   8.761  0.00  0.00    +0.000 A 
ATOM     19  C   UNL     1      44.316   2.954  10.052  0.00  0.00    +0.000 A 
ATOM     20  C   UNL     1      44.547   3.933  11.019  0.00  0.00    +0.000 A 
ENDBRANCH  14  15
ENDBRANCH  12  14
ENDBRANCH   4  12
TORSDOF 4
ENDMDL
MODEL 8
REMARK VINA RESULT:    -5.667      3.248      4.964
REMARK INTER + INTRA:          -7.331
REMARK INTER:                  -7.080
REMARK INTRA:                  -0.251
REMARK UNBOUND:                -0.339
REMARK  Name = 
REMARK  4 active torsions:
REMARK  status: ('A' for Active; 'I' for Inactive)
REMARK    1  A    between atoms: C_2  and  C_4
REMARK    2  A    between atoms: C_7  and  N_8
REMARK    3  A    between atoms: N_8  and  C_9
REMARK    4  A    between atoms: C_9  and  C_10
REMARK                            x       y       z     vdW  Elec       q    Type
REMARK                         _______ _______ _______ _____ _____    ______ ____
ROOT
ATOM      1  C   UNL     1      44.606   3.910  11.793  0.00  0.00    +0.000 A 
ATOM      2  C   UNL     1      44.649   5.140  11.160  0.00  0.00    +0.000 A 
ATOM      3  N   UNL     1      45.251   6.222  11.721  0.00  0.00    +0.000 NA
ATOM      4  C   UNL     1      45.857   6.038  12.912  0.00  0.00    +0.000 A 
ATOM      5  C   UNL     1      45.776   4.789  13.544  0.00  0.00    +0.000 A 
ATOM      6  N   UNL     1      45.161   3.700  13.017  0.00  0.00    +0.000 NA
ENDROOT
BRANCH   1   8
ATOM      7  N   UNL     1      44.468   2.325   9.977  0.00  0.00    +0.000 N 
ATOM      8  C   UNL     1      43.918   2.758  11.151  0.00  0.00    +0.000 C 
ATOM      9  O   UNL     1      42.932   2.225  11.642  0.00  0.00    +0.000 OA
ATOM     10  H   UNL     1      44.064   1.536   9.491  0.00  0.00    +0.000 HD
ATOM     11  H   UNL     1      45.291   2.790   9.606  0.00  0.00    +0.000 HD
ENDBRANCH   1   8
BRANCH   4  12
ATOM     12  N   UNL     1      46.472   7.154  13.457  0.00  0.00    +0.000 N 
ATOM     13  H   UNL     1      47.360   6.878  13.870  0.00  0.00    +0.000 HD
BRANCH  12  14
ATOM     14  C   UNL     1      46.588   8.349  12.638  0.00  0.00    +0.000 C 
BRANCH  14  15
ATOM     15  C   UNL     1      47.991   8.516  12.100  0.00  0.00    +0.000 A 
ATOM     16  C   UNL     1      48.454   9.797  11.761  0.00  0.00    +0.000 A 
ATOM     17  C   UNL     1      49.776   9.993  11.354  0.00  0.00    +0.000 A 
ATOM     18  C   UNL     1      50.653   8.913  11.286  0.00  0.00    +0.000 A 
ATOM     19  C   UNL     1      50.211   7.637  11.626  0.00  0.00    +0.000 A 
ATOM     20  C   UNL     1      48.892   7.440  12.037  0.00  0.00    +0.000 A 
ENDBRANCH  14  15
ENDBRANCH  12  14
ENDBRANCH   4  12
TORSDOF 4
ENDMDL
MODEL 9
REMARK VINA RESULT:    -5.594      4.790      7.114
REMARK INTER + INTRA:          -7.241
REMARK INTER:                  -6.930
REMARK INTRA:                  -0.311
REMARK UNBOUND:                -0.339
REMARK  Name = 
REMARK  4 active torsions:
REMARK  status: ('A' for Active; 'I' for Inactive)
REMARK    1  A    between atoms: C_2  and  C_4
REMARK    2  A    between atoms: C_7  and  N_8
REMARK    3  A    between atoms: N_8  and  C_9
REMARK    4  A    between atoms: C_9  and  C_10
REMARK                            x       y       z     vdW  Elec       q    Type
REMARK                         _______ _______ _______ _____ _____    ______ ____
ROOT
ATOM      1  C   UNL     1      48.260   5.867  15.586  0.00  0.00    +0.000 A 
ATOM      2  C   UNL     1      47.694   4.679  16.014  0.00  0.00    +0.000 A 
ATOM      3  N   UNL     1      46.860   3.949  15.227  0.00  0.00    +0.000 NA
ATOM      4  C   UNL     1      46.640   4.406  13.976  0.00  0.00    +0.000 A 
ATOM      5  C   UNL     1      47.205   5.626  13.577  0.00  0.00    +0.000 A 
ATOM      6  N   UNL     1      48.021   6.385  14.350  0.00  0.00    +0.000 NA
ENDROOT
BRANCH   1   8
ATOM      7  N   UNL     1      50.482   6.600  16.180  0.00  0.00    +0.000 N 
ATOM      8  C   UNL     1      49.151   6.644  16.489  0.00  0.00    +0.000 C 
ATOM      9  O   UNL     1      48.725   7.288  17.438  0.00  0.00    +0.000 OA
ATOM     10  H   UNL     1      51.147   7.117  16.740  0.00  0.00    +0.000 HD
ATOM     11  H   UNL     1      50.795   6.059  15.379  0.00  0.00    +0.000 HD
ENDBRANCH   1   8
BRANCH   4  12
ATOM     12  N   UNL     1      45.795   3.639  13.191  0.00  0.00    +0.000 N 
ATOM     13  H   UNL     1      45.472   2.840  13.731  0.00  0.00    +0.000 HD
BRANCH  12  14
ATOM     14  C   UNL     1      44.713   4.304  12.484  0.00  0.00    +0.000 C 
BRANCH  14  15
ATOM     15  C   UNL     1      44.804   4.074  10.993  0.00  0.00    +0.000 A 
ATOM     16  C   UNL     1      45.467   5.014  10.187  0.00  0.00    +0.000 A 
ATOM     17  C   UNL     1      45.650   4.779   8.822  0.00  0.00    +0.000 A 
ATOM     18  C   UNL     1      45.178   3.602   8.247  0.00  0.00    +0.000 A 
ATOM     19  C   UNL     1      44.525   2.657   9.034  0.00  0.00    +0.000 A 
ATOM     20  C   UNL     1      44.346   2.887  10.399  0.00  0.00    +0.000 A 
ENDBRANCH  14  15
ENDBRANCH  12  14
ENDBRANCH   4  12
TORSDOF 4
ENDMDL
