MODEL 1
REMARK VINA RESULT:    -8.770      0.000      0.000
REMARK INTER + INTRA:         -12.670
REMARK INTER:                 -11.847
REMARK INTRA:                  -0.823
REMARK UNBOUND:                -0.823
REMARK  Name = 
REMARK  6 active torsions:
REMARK  status: ('A' for Active; 'I' for Inactive)
REMARK    1  A    between atoms: C_2  and  C_3
REMARK    2  A    between atoms: C_6  and  N_7
REMARK    3  A    between atoms: N_7  and  C_8
REMARK    4  A    between atoms: C_8  and  C_9
REMARK    5  A    between atoms: C_13  and  C_14
REMARK    6  A    between atoms: C_18  and  C_19
REMARK                            x       y       z     vdW  Elec       q    Type
REMARK                         _______ _______ _______ _____ _____    ______ ____
ROOT
ATOM      1  C   UNL     1      44.989   5.908  11.767  0.00  0.00    +0.000 A 
ATOM      2  C   UNL     1      45.146   7.206  11.256  0.00  0.00    +0.000 A 
ATOM      3  C   UNL     1      46.013   8.114  11.855  0.00  0.00    +0.000 A 
ATOM      4  C   UNL     1      46.781   7.719  12.951  0.00  0.00    +0.000 A 
ATOM      5  C   UNL     1      46.728   6.403  13.442  0.00  0.00    +0.000 A 
ATOM      6  C   UNL     1      45.820   5.520  12.829  0.00  0.00    +0.000 A 
ENDROOT
BRANCH   5   7
ATOM      7  C   UNL     1      47.578   5.956  14.562  0.00  0.00    +0.000 A 
ATOM      8  C   UNL     1      48.788   6.589  14.868  0.00  0.00    +0.000 A 
ATOM      9  N   UNL     1      49.605   6.250  15.893  0.00  0.00    +0.000 NA
ATOM     10  C   UNL     1      49.194   5.229  16.680  0.00  0.00    +0.000 A 
ATOM     11  C   UNL     1      48.017   4.520  16.481  0.00  0.00    +0.000 A 
ATOM     12  C   UNL     1      47.214   4.885  15.395  0.00  0.00    +0.000 A 
BRANCH  11  13
ATOM     13  C   UNL     1      47.675   3.442  17.437  0.00  0.00    +0.000 C 
ATOM     14  N   UNL     1      48.630   3.007  18.311  0.00  0.00    +0.000 N 
ATOM     15  O   UNL     1      46.559   2.933  17.446  0.00  0.00    +0.000 OA
ATOM     16  H   UNL     1      49.568   3.366  18.390  0.00  0.00    +0.000 HD
ATOM     17  H   UNL     1      48.360   2.260  18.939  0.00  0.00    +0.000 HD
ENDBRANCH  11  13
ENDBRANCH   5   7
BRANCH   1  18
ATOM     18  C   UNL     1      43.863   5.008  11.273  0.00  0.00    +0.000 C 
ATOM     19  C   UNL     1      43.144   4.117  12.269  0.00  0.00    +0.000 C 
ATOM     20  C   UNL     1      42.492   5.387  11.837  0.00  0.00    +0.000 C 
BRANCH  18  21
ATOM     21  N   UNL     1      43.890   4.704   9.847  0.00  0.00    +0.000 N 
ATOM     22  H   UNL     1      43.373   5.292   9.204  0.00  0.00    +0.000 HD
BRANCH  21  26
ATOM     23  C   UNL     1      46.613   2.660   7.561  0.00  0.00    +0.000 A 
ATOM     24  C   UNL     1      46.492   4.035   7.543  0.00  0.00    +0.000 A 
ATOM     25  N   UNL     1      45.605   4.701   8.325  0.00  0.00    +0.000 NA
ATOM     26  C   UNL     1      44.814   3.959   9.136  0.00  0.00    +0.000 A 
ATOM     27  C   UNL     1      44.947   2.575   9.145  0.00  0.00    +0.000 A 
ATOM     28  N   UNL     1      45.841   1.891   8.374  0.00  0.00    +0.000 NA
BRANCH  23  30
ATOM     29  N   UNL     1      48.370   1.489   6.052  0.00  0.00    +0.000 NA
ATOM     30  C   UNL     1      47.554   2.003   6.703  0.00  0.00    +0.000 C 
ENDBRANCH  23  30
ENDBRANCH  21  26
ENDBRANCH  18  21
ENDBRANCH   1  18
TORSDOF 6
ENDMDL
MODEL 2
REMARK VINA RESULT:    -8.314      3.315      4.376
REMARK INTER + INTRA:         -12.053
REMARK INTER:                 -11.134
REMARK INTRA:                  -0.919
REMARK UNBOUND:                -0.823
REMARK  Name = 
REMARK  6 active torsions:
REMARK  status: ('A' for Active; 'I' for Inactive)
REMARK    1  A    between atoms: C_2  and  C_3
REMARK    2  A    between atoms: C_6  and  N_7
REMARK    3  A    between atoms: N_7  and  C_8
REMARK    4  A    between atoms: C_8  and  C_9
REMARK    5  A    between atoms: C_13  and  C_14
REMARK    6  A    between atoms: C_18  and  C_19
REMARK                            x       y       z     vdW  Elec       q    Type
REMARK                         _______ _______ _______ _____ _____    ______ ____
ROOT
ATOM      1  C   UNL     1      45.095   5.384  12.065  0.00  0.00    +0.000 A 
ATOM      2  C   UNL     1      45.476   4.558  13.135  0.00  0.00    +0.000 A 
ATOM      3  C   UNL     1      46.693   4.740  13.785  0.00  0.00    +0.000 A 
ATOM      4  C   UNL     1      47.530   5.790  13.407  0.00  0.00    +0.000 A 
ATOM      5  C   UNL     1      47.152   6.700  12.404  0.00  0.00    +0.000 A 
ATOM      6  C   UNL     1      45.928   6.469  11.750  0.00  0.00    +0.000 A 
ENDROOT
BRANCH   5   7
ATOM      7  C   UNL     1      48.001   7.849  12.037  0.00  0.00    +0.000 A 
ATOM      8  C   UNL     1      47.520   9.162  12.066  0.00  0.00    +0.000 A 
ATOM      9  N   UNL     1      48.246  10.263  11.767  0.00  0.00    +0.000 NA
ATOM     10  C   UNL     1      49.541  10.060  11.431  0.00  0.00    +0.000 A 
ATOM     11  C   UNL     1      50.137   8.807  11.363  0.00  0.00    +0.000 A 
ATOM     12  C   UNL     1      49.344   7.693  11.655  0.00  0.00    +0.000 A 
BRANCH  11  13
ATOM     13  C   UNL     1      51.573   8.731  11.009  0.00  0.00    +0.000 C 
ATOM     14  N   UNL     1      52.235   7.549  11.182  0.00  0.00    +0.000 N 
ATOM     15  O   UNL     1      52.172   9.711  10.577  0.00  0.00    +0.000 OA
ATOM     16  H   UNL     1      51.833   6.689  11.519  0.00  0.00    +0.000 HD
ATOM     17  H   UNL     1      53.218   7.543  10.941  0.00  0.00    +0.000 HD
ENDBRANCH  11  13
ENDBRANCH   5   7
BRANCH   1  18
ATOM     18  C   UNL     1      43.895   5.029  11.197  0.00  0.00    +0.000 C 
ATOM     19  C   UNL     1      42.738   4.268  11.817  0.00  0.00    +0.000 C 
ATOM     20  C   UNL     1      42.608   5.740  11.620  0.00  0.00    +0.000 C 
BRANCH  18  21
ATOM     21  N   UNL     1      44.152   5.005   9.761  0.00  0.00    +0.000 N 
ATOM     22  H   UNL     1      43.913   5.814   9.200  0.00  0.00    +0.000 HD
BRANCH  21  26
ATOM     23  C   UNL     1      46.741   2.794   7.475  0.00  0.00    +0.000 A 
ATOM     24  C   UNL     1      46.707   4.175   7.458  0.00  0.00    +0.000 A 
ATOM     25  N   UNL     1      45.864   4.894   8.240  0.00  0.00    +0.000 NA
ATOM     26  C   UNL     1      45.028   4.203   9.050  0.00  0.00    +0.000 A 
ATOM     27  C   UNL     1      45.073   2.814   9.058  0.00  0.00    +0.000 A 
ATOM     28  N   UNL     1      45.923   2.074   8.287  0.00  0.00    +0.000 NA
BRANCH  23  30
ATOM     29  N   UNL     1      48.408   1.559   5.914  0.00  0.00    +0.000 NA
ATOM     30  C   UNL     1      47.640   2.080   6.617  0.00  0.00    +0.000 C 
ENDBRANCH  23  30
ENDBRANCH  21  26
ENDBRANCH  18  21
ENDBRANCH   1  18
TORSDOF 6
ENDMDL
MODEL 3
REMARK VINA RESULT:    -7.713      1.656      2.294
REMARK INTER + INTRA:         -11.242
REMARK INTER:                 -10.492
REMARK INTRA:                  -0.750
REMARK UNBOUND:                -0.823
REMARK  Name = 
REMARK  6 active torsions:
REMARK  status: ('A' for Active; 'I' for Inactive)
REMARK    1  A    between atoms: C_2  and  C_3
REMARK    2  A    between atoms: C_6  and  N_7
REMARK    3  A    between atoms: N_7  and  C_8
REMARK    4  A    between atoms: C_8  and  C_9
REMARK    5  A    between atoms: C_13  and  C_14
REMARK    6  A    between atoms: C_18  and  C_19
REMARK                            x       y       z     vdW  Elec       q    Type
REMARK                         _______ _______ _______ _____ _____    ______ ____
ROOT
ATOM      1  C   UNL     1      44.833   6.178  11.679  0.00  0.00    +0.000 A 
ATOM      2  C   UNL     1      44.805   7.508  11.231  0.00  0.00    +0.000 A 
ATOM      3  C   UNL     1      45.594   8.485  11.830  0.00  0.00    +0.000 A 
ATOM      4  C   UNL     1      46.468   8.135  12.858  0.00  0.00    +0.000 A 
ATOM      5  C   UNL     1      46.601   6.800  13.280  0.00  0.00    +0.000 A 
ATOM      6  C   UNL     1      45.768   5.843  12.672  0.00  0.00    +0.000 A 
ENDROOT
BRANCH   5   7
ATOM      7  C   UNL     1      47.565   6.407  14.326  0.00  0.00    +0.000 A 
ATOM      8  C   UNL     1      47.421   5.223  15.055  0.00  0.00    +0.000 A 
ATOM      9  N   UNL     1      48.277   4.788  16.009  0.00  0.00    +0.000 NA
ATOM     10  C   UNL     1      49.359   5.564  16.249  0.00  0.00    +0.000 A 
ATOM     11  C   UNL     1      49.614   6.763  15.595  0.00  0.00    +0.000 A 
ATOM     12  C   UNL     1      48.691   7.189  14.635  0.00  0.00    +0.000 A 
BRANCH  11  13
ATOM     13  C   UNL     1      50.853   7.499  15.937  0.00  0.00    +0.000 C 
ATOM     14  N   UNL     1      51.951   7.351  15.139  0.00  0.00    +0.000 N 
ATOM     15  O   UNL     1      50.906   8.225  16.925  0.00  0.00    +0.000 OA
ATOM     16  H   UNL     1      52.006   6.791  14.305  0.00  0.00    +0.000 HD
ATOM     17  H   UNL     1      52.781   7.861  15.415  0.00  0.00    +0.000 HD
ENDBRANCH  11  13
ENDBRANCH   5   7
BRANCH   1  18
ATOM     18  C   UNL     1      43.794   5.172  11.201  0.00  0.00    +0.000 C 
ATOM     19  C   UNL     1      43.150   4.243  12.212  0.00  0.00    +0.000 C 
ATOM     20  C   UNL     1      42.392   5.441  11.750  0.00  0.00    +0.000 C 
BRANCH  18  21
ATOM     21  N   UNL     1      43.855   4.842   9.782  0.00  0.00    +0.000 N 
ATOM     22  H   UNL     1      43.368   5.428   9.114  0.00  0.00    +0.000 HD
BRANCH  21  26
ATOM     23  C   UNL     1      46.608   2.710   7.614  0.00  0.00    +0.000 A 
ATOM     24  C   UNL     1      46.528   4.088   7.588  0.00  0.00    +0.000 A 
ATOM     25  N   UNL     1      45.630   4.783   8.331  0.00  0.00    +0.000 NA
ATOM     26  C   UNL     1      44.786   4.067   9.111  0.00  0.00    +0.000 A 
ATOM     27  C   UNL     1      44.876   2.680   9.128  0.00  0.00    +0.000 A 
ATOM     28  N   UNL     1      45.781   1.967   8.396  0.00  0.00    +0.000 NA
BRANCH  23  30
ATOM     29  N   UNL     1      48.322   1.508   6.080  0.00  0.00    +0.000 NA
ATOM     30  C   UNL     1      47.563   2.023   6.797  0.00  0.00    +0.000 C 
ENDBRANCH  23  30
ENDBRANCH  21  26
ENDBRANCH  18  21
ENDBRANCH   1  18
TORSDOF 6
ENDMDL
MODEL 4
REMARK VINA RESULT:    -7.576      2.984      3.815
REMARK INTER + INTRA:         -11.056
REMARK INTER:                 -10.399
REMARK INTRA:                  -0.657
REMARK UNBOUND:                -0.823
REMARK  Name = 
REMARK  6 active torsions:
REMARK  status: ('A' for Active; 'I' for Inactive)
REMARK    1  A    between atoms: C_2  and  C_3
REMARK    2  A    between atoms: C_6  and  N_7
REMARK    3  A    between atoms: N_7  and  C_8
REMARK    4  A    between atoms: C_8  and  C_9
REMARK    5  A    between atoms: C_13  and  C_14
REMARK    6  A    between atoms: C_18  and  C_19
REMARK                            x       y       z     vdW  Elec       q    Type
REMARK                         _______ _______ _______ _____ _____    ______ ____
ROOT
ATOM      1  C   UNL     1      44.634   6.626  11.326  0.00  0.00    +0.000 A 
ATOM      2  C   UNL     1      43.930   7.830  11.163  0.00  0.00    +0.000 A 
ATOM      3  C   UNL     1      44.504   9.050  11.508  0.00  0.00    +0.000 A 
ATOM      4  C   UNL     1      45.817   9.091  11.975  0.00  0.00    +0.000 A 
ATOM      5  C   UNL     1      46.595   7.923  12.069  0.00  0.00    +0.000 A 
ATOM      6  C   UNL     1      45.974   6.704  11.737  0.00  0.00    +0.000 A 
ENDROOT
BRANCH   5   7
ATOM      7  C   UNL     1      48.004   7.960  12.505  0.00  0.00    +0.000 A 
ATOM      8  C   UNL     1      48.361   7.894  13.855  0.00  0.00    +0.000 A 
ATOM      9  N   UNL     1      49.629   7.898  14.326  0.00  0.00    +0.000 NA
ATOM     10  C   UNL     1      50.616   7.954  13.401  0.00  0.00    +0.000 A 
ATOM     11  C   UNL     1      50.393   8.025  12.032  0.00  0.00    +0.000 A 
ATOM     12  C   UNL     1      49.066   8.045  11.589  0.00  0.00    +0.000 A 
BRANCH  11  13
ATOM     13  C   UNL     1      51.567   8.052  11.130  0.00  0.00    +0.000 C 
ATOM     14  N   UNL     1      52.520   9.014  11.315  0.00  0.00    +0.000 N 
ATOM     15  O   UNL     1      51.687   7.237  10.221  0.00  0.00    +0.000 OA
ATOM     16  H   UNL     1      52.519   9.718  12.034  0.00  0.00    +0.000 HD
ATOM     17  H   UNL     1      53.299   9.006  10.668  0.00  0.00    +0.000 HD
ENDBRANCH  11  13
ENDBRANCH   5   7
BRANCH   1  18
ATOM     18  C   UNL     1      43.925   5.285  11.192  0.00  0.00    +0.000 C 
ATOM     19  C   UNL     1      43.805   4.392  12.412  0.00  0.00    +0.000 C 
ATOM     20  C   UNL     1      42.626   5.203  11.996  0.00  0.00    +0.000 C 
BRANCH  18  21
ATOM     21  N   UNL     1      43.855   4.751   9.837  0.00  0.00    +0.000 N 
ATOM     22  H   UNL     1      43.209   5.162   9.173  0.00  0.00    +0.000 HD
BRANCH  21  26
ATOM     23  C   UNL     1      46.628   2.700   7.616  0.00  0.00    +0.000 A 
ATOM     24  C   UNL     1      46.492   4.074   7.576  0.00  0.00    +0.000 A 
ATOM     25  N   UNL     1      45.588   4.742   8.336  0.00  0.00    +0.000 NA
ATOM     26  C   UNL     1      44.796   4.005   9.149  0.00  0.00    +0.000 A 
ATOM     27  C   UNL     1      44.943   2.623   9.181  0.00  0.00    +0.000 A 
ATOM     28  N   UNL     1      45.854   1.936   8.432  0.00  0.00    +0.000 NA
BRANCH  23  30
ATOM     29  N   UNL     1      48.315   1.500   6.052  0.00  0.00    +0.000 NA
ATOM     30  C   UNL     1      47.586   2.041   6.781  0.00  0.00    +0.000 C 
ENDBRANCH  23  30
ENDBRANCH  21  26
ENDBRANCH  18  21
ENDBRANCH   1  18
TORSDOF 6
ENDMDL
MODEL 5
REMARK VINA RESULT:    -6.862      2.762      8.063
REMARK INTER + INTRA:         -10.091
REMARK INTER:                  -9.486
REMARK INTRA:                  -0.605
REMARK UNBOUND:                -0.823
REMARK  Name = 
REMARK  6 active torsions:
REMARK  status: ('A' for Active; 'I' for Inactive)
REMARK    1  A    between atoms: C_2  and  C_3
REMARK    2  A    between atoms: C_6  and  N_7
REMARK    3  A    between atoms: N_7  and  C_8
REMARK    4  A    between atoms: C_8  and  C_9
REMARK    5  A    between atoms: C_13  and  C_14
REMARK    6  A    between atoms: C_18  and  C_19
REMARK                            x       y       z     vdW  Elec       q    Type
REMARK                         _______ _______ _______ _____ _____    ______ ____
ROOT
ATOM      1  C   UNL     1      47.933   7.636  12.772  0.00  0.00    +0.000 A 
ATOM      2  C   UNL     1      47.181   8.796  13.013  0.00  0.00    +0.000 A 
ATOM      3  C   UNL     1      45.798   8.800  12.864  0.00  0.00    +0.000 A 
ATOM      4  C   UNL     1      45.135   7.622  12.519  0.00  0.00    +0.000 A 
ATOM      5  C   UNL     1      45.833   6.413  12.358  0.00  0.00    +0.000 A 
ATOM      6  C   UNL     1      47.233   6.452  12.489  0.00  0.00    +0.000 A 
ENDROOT
BRANCH   5   7
ATOM      7  C   UNL     1      45.137   5.148  12.052  0.00  0.00    +0.000 A 
ATOM      8  C   UNL     1      44.377   4.473  13.013  0.00  0.00    +0.000 A 
ATOM      9  N   UNL     1      43.694   3.325  12.798  0.00  0.00    +0.000 NA
ATOM     10  C   UNL     1      43.748   2.815  11.546  0.00  0.00    +0.000 A 
ATOM     11  C   UNL     1      44.468   3.389  10.506  0.00  0.00    +0.000 A 
ATOM     12  C   UNL     1      45.182   4.561  10.777  0.00  0.00    +0.000 A 
BRANCH  11  13
ATOM     13  C   UNL     1      44.418   2.740   9.175  0.00  0.00    +0.000 C 
ATOM     14  N   UNL     1      44.217   3.516   8.069  0.00  0.00    +0.000 N 
ATOM     15  O   UNL     1      44.542   1.525   9.058  0.00  0.00    +0.000 OA
ATOM     16  H   UNL     1      44.114   4.517   8.059  0.00  0.00    +0.000 HD
ATOM     17  H   UNL     1      44.175   3.032   7.180  0.00  0.00    +0.000 HD
ENDBRANCH  11  13
ENDBRANCH   5   7
BRANCH   1  18
ATOM     18  C   UNL     1      49.453   7.696  12.686  0.00  0.00    +0.000 C 
ATOM     19  C   UNL     1      50.115   7.618  11.324  0.00  0.00    +0.000 C 
ATOM     20  C   UNL     1      49.971   8.950  11.979  0.00  0.00    +0.000 C 
BRANCH  18  21
ATOM     21  N   UNL     1      50.159   7.332  13.909  0.00  0.00    +0.000 N 
ATOM     22  H   UNL     1      51.169   7.408  13.941  0.00  0.00    +0.000 HD
BRANCH  21  26
ATOM     23  C   UNL     1      48.581   6.886  17.668  0.00  0.00    +0.000 A 
ATOM     24  C   UNL     1      48.858   5.822  16.833  0.00  0.00    +0.000 A 
ATOM     25  N   UNL     1      49.405   5.982  15.602  0.00  0.00    +0.000 NA
ATOM     26  C   UNL     1      49.669   7.248  15.201  0.00  0.00    +0.000 A 
ATOM     27  C   UNL     1      49.386   8.310  16.051  0.00  0.00    +0.000 A 
ATOM     28  N   UNL     1      48.846   8.166  17.297  0.00  0.00    +0.000 NA
BRANCH  23  30
ATOM     29  N   UNL     1      47.441   6.501  19.968  0.00  0.00    +0.000 NA
ATOM     30  C   UNL     1      47.987   6.665  18.953  0.00  0.00    +0.000 C 
ENDBRANCH  23  30
ENDBRANCH  21  26
ENDBRANCH  18  21
ENDBRANCH   1  18
TORSDOF 6
ENDMDL
MODEL 6
REMARK VINA RESULT:    -6.836      2.992      3.893
REMARK INTER + INTRA:         -10.057
REMARK INTER:                  -9.396
REMARK INTRA:                  -0.661
REMARK UNBOUND:                -0.823
REMARK  Name = 
REMARK  6 active torsions:
REMARK  status: ('A' for Active; 'I' for Inactive)
REMARK    1  A    between atoms: C_2  and  C_3
REMARK    2  A    between atoms: C_6  and  N_7
REMARK    3  A    between atoms: N_7  and  C_8
REMARK    4  A    between atoms: C_8  and  C_9
REMARK    5  A    between atoms: C_13  and  C_14
REMARK    6  A    between atoms: C_18  and  C_19
REMARK                            x       y       z     vdW  Elec       q    Type
REMARK                         _______ _______ _______ _____ _____    ______ ____
ROOT
ATOM      1  C   UNL     1      45.155   5.491  12.154  0.00  0.00    +0.000 A 
ATOM      2  C   UNL     1      45.523   4.370  12.915  0.00  0.00    +0.000 A 
ATOM      3  C   UNL     1      46.696   4.364  13.663  0.00  0.00    +0.000 A 
ATOM      4  C   UNL     1      47.497   5.504  13.705  0.00  0.00    +0.000 A 
ATOM      5  C   UNL     1      47.125   6.682  13.036  0.00  0.00    +0.000 A 
ATOM      6  C   UNL     1      45.947   6.645  12.266  0.00  0.00    +0.000 A 
ENDROOT
BRANCH   5   7
ATOM      7  C   UNL     1      47.933   7.914  13.120  0.00  0.00    +0.000 A 
ATOM      8  C   UNL     1      48.510   8.497  11.987  0.00  0.00    +0.000 A 
ATOM      9  N   UNL     1      49.241   9.636  11.986  0.00  0.00    +0.000 NA
ATOM     10  C   UNL     1      49.401  10.252  13.180  0.00  0.00    +0.000 A 
ATOM     11  C   UNL     1      48.882   9.774  14.376  0.00  0.00    +0.000 A 
ATOM     12  C   UNL     1      48.154   8.580  14.337  0.00  0.00    +0.000 A 
BRANCH  11  13
ATOM     13  C   UNL     1      49.109  10.565  15.607  0.00  0.00    +0.000 C 
ATOM     14  N   UNL     1      48.153  10.558  16.583  0.00  0.00    +0.000 N 
ATOM     15  O   UNL     1      50.131  11.228  15.754  0.00  0.00    +0.000 OA
ATOM     16  H   UNL     1      47.290  10.041  16.562  0.00  0.00    +0.000 HD
ATOM     17  H   UNL     1      48.342  11.123  17.402  0.00  0.00    +0.000 HD
ENDBRANCH  11  13
ENDBRANCH   5   7
BRANCH   1  18
ATOM     18  C   UNL     1      44.018   5.407  11.143  0.00  0.00    +0.000 C 
ATOM     19  C   UNL     1      42.630   5.036  11.628  0.00  0.00    +0.000 C 
ATOM     20  C   UNL     1      42.938   6.470  11.356  0.00  0.00    +0.000 C 
BRANCH  18  21
ATOM     21  N   UNL     1      44.431   5.205   9.759  0.00  0.00    +0.000 N 
ATOM     22  H   UNL     1      44.638   6.010   9.180  0.00  0.00    +0.000 HD
BRANCH  21  26
ATOM     23  C   UNL     1      45.993   1.735   8.230  0.00  0.00    +0.000 A 
ATOM     24  C   UNL     1      45.009   1.759   9.199  0.00  0.00    +0.000 A 
ATOM     25  N   UNL     1      44.482   2.914   9.677  0.00  0.00    +0.000 NA
ATOM     26  C   UNL     1      44.967   4.073   9.171  0.00  0.00    +0.000 A 
ATOM     27  C   UNL     1      45.957   4.034   8.196  0.00  0.00    +0.000 A 
ATOM     28  N   UNL     1      46.491   2.882   7.696  0.00  0.00    +0.000 NA
BRANCH  23  30
ATOM     29  N   UNL     1      46.903  -0.536   7.363  0.00  0.00    +0.000 NA
ATOM     30  C   UNL     1      46.529   0.488   7.771  0.00  0.00    +0.000 C 
ENDBRANCH  23  30
ENDBRANCH  21  26
ENDBRANCH  18  21
ENDBRANCH   1  18
TORSDOF 6
ENDMDL
MODEL 7
REMARK VINA RESULT:    -6.061      4.276      7.313
REMARK INTER + INTRA:          -9.010
REMARK INTER:                  -8.146
REMARK INTRA:                  -0.865
REMARK UNBOUND:                -0.823
REMARK  Name = 
REMARK  6 active torsions:
REMARK  status: ('A' for Active; 'I' for Inactive)
REMARK    1  A    between atoms: C_2  and  C_3
REMARK    2  A    between atoms: C_6  and  N_7
REMARK    3  A    between atoms: N_7  and  C_8
REMARK    4  A    between atoms: C_8  and  C_9
REMARK    5  A    between atoms: C_13  and  C_14
REMARK    6  A    between atoms: C_18  and  C_19
REMARK                            x       y       z     vdW  Elec       q    Type
REMARK                         _______ _______ _______ _____ _____    ______ ____
ROOT
ATOM      1  C   UNL     1      47.240   7.587  12.136  0.00  0.00    +0.000 A 
ATOM      2  C   UNL     1      46.662   8.862  12.239  0.00  0.00    +0.000 A 
ATOM      3  C   UNL     1      47.433  10.013  12.112  0.00  0.00    +0.000 A 
ATOM      4  C   UNL     1      48.794   9.907  11.828  0.00  0.00    +0.000 A 
ATOM      5  C   UNL     1      49.402   8.656  11.624  0.00  0.00    +0.000 A 
ATOM      6  C   UNL     1      48.598   7.512  11.787  0.00  0.00    +0.000 A 
ENDROOT
BRANCH   5   7
ATOM      7  C   UNL     1      50.827   8.533  11.264  0.00  0.00    +0.000 A 
ATOM      8  C   UNL     1      51.753   9.538  11.561  0.00  0.00    +0.000 A 
ATOM      9  N   UNL     1      53.076   9.483  11.284  0.00  0.00    +0.000 NA
ATOM     10  C   UNL     1      53.522   8.353  10.688  0.00  0.00    +0.000 A 
ATOM     11  C   UNL     1      52.705   7.285  10.340  0.00  0.00    +0.000 A 
ATOM     12  C   UNL     1      51.339   7.393  10.621  0.00  0.00    +0.000 A 
BRANCH  11  13
ATOM     13  C   UNL     1      53.330   6.096   9.717  0.00  0.00    +0.000 C 
ATOM     14  N   UNL     1      53.847   5.122  10.524  0.00  0.00    +0.000 N 
ATOM     15  O   UNL     1      53.398   5.981   8.498  0.00  0.00    +0.000 OA
ATOM     16  H   UNL     1      53.832   5.118  11.531  0.00  0.00    +0.000 HD
ATOM     17  H   UNL     1      54.277   4.332  10.059  0.00  0.00    +0.000 HD
ENDBRANCH  11  13
ENDBRANCH   5   7
BRANCH   1  18
ATOM     18  C   UNL     1      46.454   6.341  12.525  0.00  0.00    +0.000 C 
ATOM     19  C   UNL     1      44.950   6.446  12.698  0.00  0.00    +0.000 C 
ATOM     20  C   UNL     1      45.491   5.867  11.435  0.00  0.00    +0.000 C 
BRANCH  18  21
ATOM     21  N   UNL     1      47.232   5.291  13.171  0.00  0.00    +0.000 N 
ATOM     22  H   UNL     1      47.964   4.823  12.649  0.00  0.00    +0.000 HD
BRANCH  21  26
ATOM     23  C   UNL     1      48.009   4.665  17.149  0.00  0.00    +0.000 A 
ATOM     24  C   UNL     1      48.598   5.675  16.413  0.00  0.00    +0.000 A 
ATOM     25  N   UNL     1      48.311   5.887  15.104  0.00  0.00    +0.000 NA
ATOM     26  C   UNL     1      47.417   5.054  14.522  0.00  0.00    +0.000 A 
ATOM     27  C   UNL     1      46.831   4.043  15.274  0.00  0.00    +0.000 A 
ATOM     28  N   UNL     1      47.099   3.822  16.594  0.00  0.00    +0.000 NA
BRANCH  23  30
ATOM     29  N   UNL     1      48.675   4.255  19.624  0.00  0.00    +0.000 NA
ATOM     30  C   UNL     1      48.358   4.472  18.525  0.00  0.00    +0.000 C 
ENDBRANCH  23  30
ENDBRANCH  21  26
ENDBRANCH  18  21
ENDBRANCH   1  18
TORSDOF 6
ENDMDL
MODEL 8
REMARK VINA RESULT:    -6.001      2.600      7.883
REMARK INTER + INTRA:          -8.928
REMARK INTER:                  -8.279
REMARK INTRA:                  -0.649
REMARK UNBOUND:                -0.823
REMARK  Name = 
REMARK  6 active torsions:
REMARK  status: ('A' for Active; 'I' for Inactive)
REMARK    1  A    between atoms: C_2  and  C_3
REMARK    2  A    between atoms: C_6  and  N_7
REMARK    3  A    between atoms: N_7  and  C_8
REMARK    4  A    between atoms: C_8  and  C_9
REMARK    5  A    between atoms: C_13  and  C_14
REMARK    6  A    between atoms: C_18  and  C_19
REMARK                            x       y       z     vdW  Elec       q    Type
REMARK                         _______ _______ _______ _____ _____    ______ ____
ROOT
ATOM      1  C   UNL     1      48.804   8.232  12.391  0.00  0.00    +0.000 A 
ATOM      2  C   UNL     1      48.119   9.414  12.715  0.00  0.00    +0.000 A 
ATOM      3  C   UNL     1      46.755   9.542  12.477  0.00  0.00    +0.000 A 
ATOM      4  C   UNL     1      46.039   8.465  11.955  0.00  0.00    +0.000 A 
ATOM      5  C   UNL     1      46.660   7.230  11.700  0.00  0.00    +0.000 A 
ATOM      6  C   UNL     1      48.046   7.145  11.927  0.00  0.00    +0.000 A 
ENDROOT
BRANCH   5   7
ATOM      7  C   UNL     1      45.903   6.065  11.204  0.00  0.00    +0.000 A 
ATOM      8  C   UNL     1      45.915   5.696   9.855  0.00  0.00    +0.000 A 
ATOM      9  N   UNL     1      45.266   4.629   9.335  0.00  0.00    +0.000 NA
ATOM     10  C   UNL     1      44.570   3.862  10.206  0.00  0.00    +0.000 A 
ATOM     11  C   UNL     1      44.478   4.123  11.567  0.00  0.00    +0.000 A 
ATOM     12  C   UNL     1      45.142   5.251  12.060  0.00  0.00    +0.000 A 
BRANCH  11  13
ATOM     13  C   UNL     1      43.704   3.183  12.411  0.00  0.00    +0.000 C 
ATOM     14  N   UNL     1      43.362   1.964  11.900  0.00  0.00    +0.000 N 
ATOM     15  O   UNL     1      43.361   3.489  13.549  0.00  0.00    +0.000 OA
ATOM     16  H   UNL     1      43.604   1.616  10.986  0.00  0.00    +0.000 HD
ATOM     17  H   UNL     1      42.822   1.357  12.504  0.00  0.00    +0.000 HD
ENDBRANCH  11  13
ENDBRANCH   5   7
BRANCH   1  18
ATOM     18  C   UNL     1      50.327   8.183  12.413  0.00  0.00    +0.000 C 
ATOM     19  C   UNL     1      51.067   7.764  11.157  0.00  0.00    +0.000 C 
ATOM     20  C   UNL     1      50.980   9.215  11.492  0.00  0.00    +0.000 C 
BRANCH  18  21
ATOM     21  N   UNL     1      50.925   8.061  13.737  0.00  0.00    +0.000 N 
ATOM     22  H   UNL     1      51.849   8.443  13.903  0.00  0.00    +0.000 HD
BRANCH  21  26
ATOM     23  C   UNL     1      48.933   7.245  17.229  0.00  0.00    +0.000 A 
ATOM     24  C   UNL     1      49.141   6.304  16.238  0.00  0.00    +0.000 A 
ATOM     25  N   UNL     1      49.825   6.581  15.100  0.00  0.00    +0.000 NA
ATOM     26  C   UNL     1      50.302   7.840  14.954  0.00  0.00    +0.000 A 
ATOM     27  C   UNL     1      50.087   8.776  15.958  0.00  0.00    +0.000 A 
ATOM     28  N   UNL     1      49.411   8.512  17.114  0.00  0.00    +0.000 NA
BRANCH  23  30
ATOM     29  N   UNL     1      47.644   6.607  19.389  0.00  0.00    +0.000 NA
ATOM     30  C   UNL     1      48.189   6.907  18.405  0.00  0.00    +0.000 C 
ENDBRANCH  23  30
ENDBRANCH  21  26
ENDBRANCH  18  21
ENDBRANCH   1  18
TORSDOF 6
ENDMDL
MODEL 9
REMARK VINA RESULT:    -5.798      5.137      7.046
REMARK INTER + INTRA:          -8.654
REMARK INTER:                  -8.325
REMARK INTRA:                  -0.330
REMARK UNBOUND:                -0.823
REMARK  Name = 
REMARK  6 active torsions:
REMARK  status: ('A' for Active; 'I' for Inactive)
REMARK    1  A    between atoms: C_2  and  C_3
REMARK    2  A    between atoms: C_6  and  N_7
REMARK    3  A    between atoms: N_7  and  C_8
REMARK    4  A    between atoms: C_8  and  C_9
REMARK    5  A    between atoms: C_13  and  C_14
REMARK    6  A    between atoms: C_18  and  C_19
REMARK                            x       y       z     vdW  Elec       q    Type
REMARK                         _______ _______ _______ _____ _____    ______ ____
ROOT
ATOM      1  C   UNL     1      49.109   8.475  12.096  0.00  0.00    +0.000 A 
ATOM      2  C   UNL     1      48.979   9.839  11.790  0.00  0.00    +0.000 A 
ATOM      3  C   UNL     1      49.990  10.525  11.126  0.00  0.00    +0.000 A 
ATOM      4  C   UNL     1      51.132   9.843  10.709  0.00  0.00    +0.000 A 
ATOM      5  C   UNL     1      51.269   8.459  10.909  0.00  0.00    +0.000 A 
ATOM      6  C   UNL     1      50.240   7.801  11.608  0.00  0.00    +0.000 A 
ENDROOT
BRANCH   5   7
ATOM      7  C   UNL     1      52.446   7.714  10.420  0.00  0.00    +0.000 A 
ATOM      8  C   UNL     1      53.678   7.764  11.079  0.00  0.00    +0.000 A 
ATOM      9  N   UNL     1      54.789   7.091  10.703  0.00  0.00    +0.000 NA
ATOM     10  C   UNL     1      54.675   6.299   9.611  0.00  0.00    +0.000 A 
ATOM     11  C   UNL     1      53.509   6.165   8.869  0.00  0.00    +0.000 A 
ATOM     12  C   UNL     1      52.391   6.899   9.277  0.00  0.00    +0.000 A 
BRANCH  11  13
ATOM     13  C   UNL     1      53.516   5.242   7.711  0.00  0.00    +0.000 C 
ATOM     14  N   UNL     1      54.341   4.153   7.740  0.00  0.00    +0.000 N 
ATOM     15  O   UNL     1      52.806   5.447   6.733  0.00  0.00    +0.000 OA
ATOM     16  H   UNL     1      54.951   3.892   8.497  0.00  0.00    +0.000 HD
ATOM     17  H   UNL     1      54.325   3.554   6.923  0.00  0.00    +0.000 HD
ENDBRANCH  11  13
ENDBRANCH   5   7
BRANCH   1  18
ATOM     18  C   UNL     1      48.126   7.791  13.038  0.00  0.00    +0.000 C 
ATOM     19  C   UNL     1      48.666   6.957  14.185  0.00  0.00    +0.000 C 
ATOM     20  C   UNL     1      48.175   8.336  14.466  0.00  0.00    +0.000 C 
BRANCH  18  21
ATOM     21  N   UNL     1      46.789   7.581  12.496  0.00  0.00    +0.000 N 
ATOM     22  H   UNL     1      46.392   8.271  11.870  0.00  0.00    +0.000 HD
BRANCH  21  26
ATOM     23  C   UNL     1      44.546   4.187  11.969  0.00  0.00    +0.000 A 
ATOM     24  C   UNL     1      44.847   5.062  10.943  0.00  0.00    +0.000 A 
ATOM     25  N   UNL     1      45.613   6.167  11.126  0.00  0.00    +0.000 NA
ATOM     26  C   UNL     1      46.077   6.399  12.376  0.00  0.00    +0.000 A 
ATOM     27  C   UNL     1      45.767   5.511  13.399  0.00  0.00    +0.000 A 
ATOM     28  N   UNL     1      45.007   4.389  13.231  0.00  0.00    +0.000 NA
BRANCH  23  30
ATOM     29  N   UNL     1      42.989   2.155  11.539  0.00  0.00    +0.000 NA
ATOM     30  C   UNL     1      43.718   3.043  11.727  0.00  0.00    +0.000 C 
ENDBRANCH  23  30
ENDBRANCH  21  26
ENDBRANCH  18  21
ENDBRANCH   1  18
TORSDOF 6
ENDMDL
