MODEL 1
REMARK VINA RESULT:    -7.083      0.000      0.000
REMARK INTER + INTRA:          -9.365
REMARK INTER:                  -8.739
REMARK INTRA:                  -0.626
REMARK UNBOUND:                -0.626
REMARK  Name = 
REMARK  4 active torsions:
REMARK  status: ('A' for Active; 'I' for Inactive)
REMARK    1  A    between atoms: C_3  and  O_4
REMARK    2  A    between atoms: O_4  and  C_5
REMARK    3  A    between atoms: C_5  and  C_6
REMARK    4  A    between atoms: C_13  and  C_14
REMARK                            x       y       z     vdW  Elec       q    Type
REMARK                         _______ _______ _______ _____ _____    ______ ____
ROOT
ATOM      1  C   UNL     1      43.308   2.857  11.678  0.00  0.00    +0.000 A 
ATOM      2  C   UNL     1      43.290   4.220  11.961  0.00  0.00    +0.000 A 
ATOM      3  C   UNL     1      44.027   5.075  11.159  0.00  0.00    +0.000 A 
ATOM      4  N   UNL     1      44.766   4.634  10.116  0.00  0.00    +0.000 NA
ATOM      5  C   UNL     1      44.771   3.307   9.829  0.00  0.00    +0.000 A 
ATOM      6  C   UNL     1      44.060   2.393  10.603  0.00  0.00    +0.000 A 
ENDROOT
BRANCH   5   7
ATOM      7  C   UNL     1      45.567   2.910   8.649  0.00  0.00    +0.000 A 
ATOM      8  C   UNL     1      46.003   1.587   8.483  0.00  0.00    +0.000 A 
ATOM      9  C   UNL     1      46.752   1.248   7.368  0.00  0.00    +0.000 A 
ATOM     10  N   UNL     1      47.106   2.127   6.405  0.00  0.00    +0.000 NA
ATOM     11  C   UNL     1      46.697   3.397   6.578  0.00  0.00    +0.000 A 
ATOM     12  C   UNL     1      45.943   3.829   7.656  0.00  0.00    +0.000 A 
ENDBRANCH   5   7
BRANCH   3  13
ATOM     13  O   UNL     1      44.110   6.428  11.321  0.00  0.00    +0.000 OA
BRANCH  13  14
ATOM     14  C   UNL     1      44.853   6.916  12.440  0.00  0.00    +0.000 C 
BRANCH  14  15
ATOM     15  C   UNL     1      46.144   7.582  11.924  0.00  0.00    +0.000 C 
ATOM     16  C   UNL     1      47.390   6.689  12.057  0.00  0.00    +0.000 C 
ATOM     17  C   UNL     1      47.945   6.644  13.482  0.00  0.00    +0.000 C 
ATOM     18  C   UNL     1      48.018   8.025  14.132  0.00  0.00    +0.000 C 
ATOM     19  N   UNL     1      46.747   8.745  14.025  0.00  0.00    +0.000 NA
ATOM     20  C   UNL     1      46.387   8.927  12.618  0.00  0.00    +0.000 C 
ATOM     21  H   UNL     1      46.849   9.659  14.468  0.00  0.00    +0.000 HD
ENDBRANCH  14  15
ENDBRANCH  13  14
ENDBRANCH   3  13
TORSDOF 4
ENDMDL
MODEL 2
REMARK VINA RESULT:    -6.899      1.019      1.701
REMARK INTER + INTRA:          -9.138
REMARK INTER:                  -8.499
REMARK INTRA:                  -0.639
REMARK UNBOUND:                -0.626
REMARK  Name = 
REMARK  4 active torsions:
REMARK  status: ('A' for Active; 'I' for Inactive)
REMARK    1  A    between atoms: C_3  and  O_4
REMARK    2  A    between atoms: O_4  and  C_5
REMARK    3  A    between atoms: C_5  and  C_6
REMARK    4  A    between atoms: C_13  and  C_14
REMARK                            x       y       z     vdW  Elec       q    Type
REMARK                         _______ _______ _______ _____ _____    ______ ____
ROOT
ATOM      1  C   UNL     1      43.353   2.980  11.536  0.00  0.00    +0.000 A 
ATOM      2  C   UNL     1      43.464   4.334  11.837  0.00  0.00    +0.000 A 
ATOM      3  C   UNL     1      44.292   5.123  11.055  0.00  0.00    +0.000 A 
ATOM      4  N   UNL     1      44.999   4.622  10.015  0.00  0.00    +0.000 NA
ATOM      5  C   UNL     1      44.877   3.305   9.712  0.00  0.00    +0.000 A 
ATOM      6  C   UNL     1      44.070   2.456  10.465  0.00  0.00    +0.000 A 
ENDROOT
BRANCH   5   7
ATOM      7  C   UNL     1      45.647   2.845   8.537  0.00  0.00    +0.000 A 
ATOM      8  C   UNL     1      45.960   3.722   7.489  0.00  0.00    +0.000 A 
ATOM      9  C   UNL     1      46.679   3.257   6.399  0.00  0.00    +0.000 A 
ATOM     10  N   UNL     1      47.108   1.983   6.271  0.00  0.00    +0.000 NA
ATOM     11  C   UNL     1      46.792   1.143   7.273  0.00  0.00    +0.000 A 
ATOM     12  C   UNL     1      46.081   1.516   8.402  0.00  0.00    +0.000 A 
ENDBRANCH   5   7
BRANCH   3  13
ATOM     13  O   UNL     1      44.505   6.459  11.235  0.00  0.00    +0.000 OA
BRANCH  13  14
ATOM     14  C   UNL     1      45.852   6.893  11.441  0.00  0.00    +0.000 C 
BRANCH  14  15
ATOM     15  C   UNL     1      46.093   7.056  12.954  0.00  0.00    +0.000 C 
ATOM     16  C   UNL     1      46.753   8.394  13.329  0.00  0.00    +0.000 C 
ATOM     17  C   UNL     1      48.258   8.417  13.055  0.00  0.00    +0.000 C 
ATOM     18  C   UNL     1      48.965   7.147  13.527  0.00  0.00    +0.000 C 
ATOM     19  N   UNL     1      48.301   5.939  13.032  0.00  0.00    +0.000 NA
ATOM     20  C   UNL     1      46.919   5.890  13.510  0.00  0.00    +0.000 C 
ATOM     21  H   UNL     1      48.806   5.122  13.378  0.00  0.00    +0.000 HD
ENDBRANCH  14  15
ENDBRANCH  13  14
ENDBRANCH   3  13
TORSDOF 4
ENDMDL
MODEL 3
REMARK VINA RESULT:    -6.595      3.044      7.168
REMARK INTER + INTRA:          -8.763
REMARK INTER:                  -8.091
REMARK INTRA:                  -0.672
REMARK UNBOUND:                -0.626
REMARK  Name = 
REMARK  4 active torsions:
REMARK  status: ('A' for Active; 'I' for Inactive)
REMARK    1  A    between atoms: C_3  and  O_4
REMARK    2  A    between atoms: O_4  and  C_5
REMARK    3  A    between atoms: C_5  and  C_6
REMARK    4  A    between atoms: C_13  and  C_14
REMARK                            x       y       z     vdW  Elec       q    Type
REMARK                         _______ _______ _______ _____ _____    ______ ____
ROOT
ATOM      1  C   UNL     1      47.390   6.851  12.786  0.00  0.00    +0.000 A 
ATOM      2  C   UNL     1      46.325   6.190  12.180  0.00  0.00    +0.000 A 
ATOM      3  C   UNL     1      45.784   5.083  12.813  0.00  0.00    +0.000 A 
ATOM      4  N   UNL     1      46.257   4.620  13.994  0.00  0.00    +0.000 NA
ATOM      5  C   UNL     1      47.284   5.275  14.592  0.00  0.00    +0.000 A 
ATOM      6  C   UNL     1      47.880   6.387  14.003  0.00  0.00    +0.000 A 
ENDROOT
BRANCH   5   7
ATOM      7  C   UNL     1      47.714   4.733  15.898  0.00  0.00    +0.000 A 
ATOM      8  C   UNL     1      47.462   3.399  16.247  0.00  0.00    +0.000 A 
ATOM      9  C   UNL     1      47.874   2.924  17.481  0.00  0.00    +0.000 A 
ATOM     10  N   UNL     1      48.516   3.677  18.400  0.00  0.00    +0.000 NA
ATOM     11  C   UNL     1      48.742   4.961  18.065  0.00  0.00    +0.000 A 
ATOM     12  C   UNL     1      48.371   5.524  16.856  0.00  0.00    +0.000 A 
ENDBRANCH   5   7
BRANCH   3  13
ATOM     13  O   UNL     1      44.747   4.334  12.337  0.00  0.00    +0.000 OA
BRANCH  13  14
ATOM     14  C   UNL     1      45.069   3.175  11.564  0.00  0.00    +0.000 C 
BRANCH  14  15
ATOM     15  C   UNL     1      44.133   3.122  10.340  0.00  0.00    +0.000 C 
ATOM     16  C   UNL     1      44.537   2.058   9.306  0.00  0.00    +0.000 C 
ATOM     17  C   UNL     1      45.712   2.491   8.427  0.00  0.00    +0.000 C 
ATOM     18  C   UNL     1      45.572   3.925   7.918  0.00  0.00    +0.000 C 
ATOM     19  N   UNL     1      45.280   4.863   9.005  0.00  0.00    +0.000 NA
ATOM     20  C   UNL     1      44.027   4.495   9.667  0.00  0.00    +0.000 C 
ATOM     21  H   UNL     1      45.192   5.801   8.614  0.00  0.00    +0.000 HD
ENDBRANCH  14  15
ENDBRANCH  13  14
ENDBRANCH   3  13
TORSDOF 4
ENDMDL
MODEL 4
REMARK VINA RESULT:    -6.562      1.886      6.480
REMARK INTER + INTRA:          -8.723
REMARK INTER:                  -7.890
REMARK INTRA:                  -0.833
REMARK UNBOUND:                -0.626
REMARK  Name = 
REMARK  4 active torsions:
REMARK  status: ('A' for Active; 'I' for Inactive)
REMARK    1  A    between atoms: C_3  and  O_4
REMARK    2  A    between atoms: O_4  and  C_5
REMARK    3  A    between atoms: C_5  and  C_6
REMARK    4  A    between atoms: C_13  and  C_14
REMARK                            x       y       z     vdW  Elec       q    Type
REMARK                         _______ _______ _______ _____ _____    ______ ____
ROOT
ATOM      1  C   UNL     1      46.846   4.720  14.036  0.00  0.00    +0.000 A 
ATOM      2  C   UNL     1      45.989   4.104  13.129  0.00  0.00    +0.000 A 
ATOM      3  C   UNL     1      45.618   4.798  11.989  0.00  0.00    +0.000 A 
ATOM      4  N   UNL     1      46.055   6.052  11.729  0.00  0.00    +0.000 NA
ATOM      5  C   UNL     1      46.904   6.646  12.606  0.00  0.00    +0.000 A 
ATOM      6  C   UNL     1      47.306   6.007  13.777  0.00  0.00    +0.000 A 
ENDROOT
BRANCH   5   7
ATOM      7  C   UNL     1      47.369   7.997  12.231  0.00  0.00    +0.000 A 
ATOM      8  C   UNL     1      48.702   8.228  11.864  0.00  0.00    +0.000 A 
ATOM      9  C   UNL     1      49.108   9.508  11.523  0.00  0.00    +0.000 A 
ATOM     10  N   UNL     1      48.287  10.580  11.522  0.00  0.00    +0.000 NA
ATOM     11  C   UNL     1      47.012  10.356  11.889  0.00  0.00    +0.000 A 
ATOM     12  C   UNL     1      46.514   9.113  12.244  0.00  0.00    +0.000 A 
ENDBRANCH   5   7
BRANCH   3  13
ATOM     13  O   UNL     1      44.783   4.326  11.018  0.00  0.00    +0.000 OA
BRANCH  13  14
ATOM     14  C   UNL     1      44.888   2.943  10.670  0.00  0.00    +0.000 C 
BRANCH  14  15
ATOM     15  C   UNL     1      44.383   2.757   9.225  0.00  0.00    +0.000 C 
ATOM     16  C   UNL     1      45.125   1.652   8.454  0.00  0.00    +0.000 C 
ATOM     17  C   UNL     1      46.501   2.093   7.951  0.00  0.00    +0.000 C 
ATOM     18  C   UNL     1      46.480   3.480   7.310  0.00  0.00    +0.000 C 
ATOM     19  N   UNL     1      45.833   4.469   8.175  0.00  0.00    +0.000 NA
ATOM     20  C   UNL     1      44.449   4.076   8.444  0.00  0.00    +0.000 C 
ATOM     21  H   UNL     1      45.840   5.373   7.702  0.00  0.00    +0.000 HD
ENDBRANCH  14  15
ENDBRANCH  13  14
ENDBRANCH   3  13
TORSDOF 4
ENDMDL
MODEL 5
REMARK VINA RESULT:    -6.391      2.060      6.676
REMARK INTER + INTRA:          -8.511
REMARK INTER:                  -7.778
REMARK INTRA:                  -0.733
REMARK UNBOUND:                -0.626
REMARK  Name = 
REMARK  4 active torsions:
REMARK  status: ('A' for Active; 'I' for Inactive)
REMARK    1  A    between atoms: C_3  and  O_4
REMARK    2  A    between atoms: O_4  and  C_5
REMARK    3  A    between atoms: C_5  and  C_6
REMARK    4  A    between atoms: C_13  and  C_14
REMARK                            x       y       z     vdW  Elec       q    Type
REMARK                         _______ _______ _______ _____ _____    ______ ____
ROOT
ATOM      1  C   UNL     1      46.777   5.746  13.398  0.00  0.00    +0.000 A 
ATOM      2  C   UNL     1      46.081   4.725  12.756  0.00  0.00    +0.000 A 
ATOM      3  C   UNL     1      45.105   5.065  11.834  0.00  0.00    +0.000 A 
ATOM      4  N   UNL     1      44.801   6.350  11.540  0.00  0.00    +0.000 NA
ATOM      5  C   UNL     1      45.491   7.345  12.153  0.00  0.00    +0.000 A 
ATOM      6  C   UNL     1      46.477   7.071  13.099  0.00  0.00    +0.000 A 
ENDROOT
BRANCH   5   7
ATOM      7  C   UNL     1      45.131   8.719  11.747  0.00  0.00    +0.000 A 
ATOM      8  C   UNL     1      45.921   9.815  12.123  0.00  0.00    +0.000 A 
ATOM      9  C   UNL     1      45.553  11.091  11.730  0.00  0.00    +0.000 A 
ATOM     10  N   UNL     1      44.454  11.363  10.993  0.00  0.00    +0.000 NA
ATOM     11  C   UNL     1      43.691  10.309  10.649  0.00  0.00    +0.000 A 
ATOM     12  C   UNL     1      43.980   8.998  10.992  0.00  0.00    +0.000 A 
ENDBRANCH   5   7
BRANCH   3  13
ATOM     13  O   UNL     1      44.340   4.176  11.135  0.00  0.00    +0.000 OA
BRANCH  13  14
ATOM     14  C   UNL     1      44.971   2.979  10.675  0.00  0.00    +0.000 C 
BRANCH  14  15
ATOM     15  C   UNL     1      44.459   2.664   9.256  0.00  0.00    +0.000 C 
ATOM     16  C   UNL     1      45.277   1.579   8.535  0.00  0.00    +0.000 C 
ATOM     17  C   UNL     1      46.602   2.100   7.975  0.00  0.00    +0.000 C 
ATOM     18  C   UNL     1      46.453   3.439   7.254  0.00  0.00    +0.000 C 
ATOM     19  N   UNL     1      45.740   4.422   8.074  0.00  0.00    +0.000 NA
ATOM     20  C   UNL     1      44.399   3.932   8.397  0.00  0.00    +0.000 C 
ATOM     21  H   UNL     1      45.663   5.293   7.548  0.00  0.00    +0.000 HD
ENDBRANCH  14  15
ENDBRANCH  13  14
ENDBRANCH   3  13
TORSDOF 4
ENDMDL
MODEL 6
REMARK VINA RESULT:    -6.387      1.191      1.900
REMARK INTER + INTRA:          -8.507
REMARK INTER:                  -7.720
REMARK INTRA:                  -0.787
REMARK UNBOUND:                -0.626
REMARK  Name = 
REMARK  4 active torsions:
REMARK  status: ('A' for Active; 'I' for Inactive)
REMARK    1  A    between atoms: C_3  and  O_4
REMARK    2  A    between atoms: O_4  and  C_5
REMARK    3  A    between atoms: C_5  and  C_6
REMARK    4  A    between atoms: C_13  and  C_14
REMARK                            x       y       z     vdW  Elec       q    Type
REMARK                         _______ _______ _______ _____ _____    ______ ____
ROOT
ATOM      1  C   UNL     1      42.961   4.536  12.315  0.00  0.00    +0.000 A 
ATOM      2  C   UNL     1      43.733   5.549  12.877  0.00  0.00    +0.000 A 
ATOM      3  C   UNL     1      44.962   5.841  12.308  0.00  0.00    +0.000 A 
ATOM      4  N   UNL     1      45.438   5.175  11.230  0.00  0.00    +0.000 NA
ATOM      5  C   UNL     1      44.678   4.200  10.672  0.00  0.00    +0.000 A 
ATOM      6  C   UNL     1      43.438   3.850  11.203  0.00  0.00    +0.000 A 
ENDROOT
BRANCH   5   7
ATOM      7  C   UNL     1      45.248   3.550   9.474  0.00  0.00    +0.000 A 
ATOM      8  C   UNL     1      45.765   4.310   8.415  0.00  0.00    +0.000 A 
ATOM      9  C   UNL     1      46.288   3.670   7.304  0.00  0.00    +0.000 A 
ATOM     10  N   UNL     1      46.334   2.328   7.162  0.00  0.00    +0.000 NA
ATOM     11  C   UNL     1      45.823   1.604   8.175  0.00  0.00    +0.000 A 
ATOM     12  C   UNL     1      45.282   2.153   9.325  0.00  0.00    +0.000 A 
ENDBRANCH   5   7
BRANCH   3  13
ATOM     13  O   UNL     1      45.827   6.798  12.753  0.00  0.00    +0.000 OA
BRANCH  13  14
ATOM     14  C   UNL     1      47.210   6.643  12.426  0.00  0.00    +0.000 C 
BRANCH  14  15
ATOM     15  C   UNL     1      47.849   8.041  12.305  0.00  0.00    +0.000 C 
ATOM     16  C   UNL     1      49.308   8.092  12.791  0.00  0.00    +0.000 C 
ATOM     17  C   UNL     1      49.430   8.134  14.316  0.00  0.00    +0.000 C 
ATOM     18  C   UNL     1      48.457   9.120  14.960  0.00  0.00    +0.000 C 
ATOM     19  N   UNL     1      47.084   8.915  14.492  0.00  0.00    +0.000 NA
ATOM     20  C   UNL     1      47.014   9.095  13.041  0.00  0.00    +0.000 C 
ATOM     21  H   UNL     1      46.477   9.598  14.946  0.00  0.00    +0.000 HD
ENDBRANCH  14  15
ENDBRANCH  13  14
ENDBRANCH   3  13
TORSDOF 4
ENDMDL
MODEL 7
REMARK VINA RESULT:    -6.248      3.516      5.581
REMARK INTER + INTRA:          -8.335
REMARK INTER:                  -7.960
REMARK INTRA:                  -0.375
REMARK UNBOUND:                -0.626
REMARK  Name = 
REMARK  4 active torsions:
REMARK  status: ('A' for Active; 'I' for Inactive)
REMARK    1  A    between atoms: C_3  and  O_4
REMARK    2  A    between atoms: O_4  and  C_5
REMARK    3  A    between atoms: C_5  and  C_6
REMARK    4  A    between atoms: C_13  and  C_14
REMARK                            x       y       z     vdW  Elec       q    Type
REMARK                         _______ _______ _______ _____ _____    ______ ____
ROOT
ATOM      1  C   UNL     1      47.997   7.494  12.599  0.00  0.00    +0.000 A 
ATOM      2  C   UNL     1      48.464   7.013  13.819  0.00  0.00    +0.000 A 
ATOM      3  C   UNL     1      47.888   5.870  14.347  0.00  0.00    +0.000 A 
ATOM      4  N   UNL     1      46.886   5.208  13.722  0.00  0.00    +0.000 NA
ATOM      5  C   UNL     1      46.442   5.668  12.525  0.00  0.00    +0.000 A 
ATOM      6  C   UNL     1      46.971   6.819  11.945  0.00  0.00    +0.000 A 
ENDROOT
BRANCH   5   7
ATOM      7  C   UNL     1      45.376   4.868  11.887  0.00  0.00    +0.000 A 
ATOM      8  C   UNL     1      44.614   3.955  12.630  0.00  0.00    +0.000 A 
ATOM      9  C   UNL     1      43.625   3.216  12.000  0.00  0.00    +0.000 A 
ATOM     10  N   UNL     1      43.338   3.313  10.684  0.00  0.00    +0.000 NA
ATOM     11  C   UNL     1      44.084   4.180   9.973  0.00  0.00    +0.000 A 
ATOM     12  C   UNL     1      45.090   4.962  10.515  0.00  0.00    +0.000 A 
ENDBRANCH   5   7
BRANCH   3  13
ATOM     13  O   UNL     1      48.236   5.288  15.532  0.00  0.00    +0.000 OA
BRANCH  13  14
ATOM     14  C   UNL     1      48.941   6.092  16.481  0.00  0.00    +0.000 C 
BRANCH  14  15
ATOM     15  C   UNL     1      49.073   5.302  17.797  0.00  0.00    +0.000 C 
ATOM     16  C   UNL     1      49.756   3.935  17.627  0.00  0.00    +0.000 C 
ATOM     17  C   UNL     1      48.826   2.869  17.044  0.00  0.00    +0.000 C 
ATOM     18  C   UNL     1      47.445   2.869  17.696  0.00  0.00    +0.000 C 
ATOM     19  N   UNL     1      46.853   4.208  17.718  0.00  0.00    +0.000 NA
ATOM     20  C   UNL     1      47.708   5.126  18.473  0.00  0.00    +0.000 C 
ATOM     21  H   UNL     1      45.938   4.155  18.166  0.00  0.00    +0.000 HD
ENDBRANCH  14  15
ENDBRANCH  13  14
ENDBRANCH   3  13
TORSDOF 4
ENDMDL
MODEL 8
REMARK VINA RESULT:    -6.235      3.907      5.901
REMARK INTER + INTRA:          -8.319
REMARK INTER:                  -7.629
REMARK INTRA:                  -0.690
REMARK UNBOUND:                -0.626
REMARK  Name = 
REMARK  4 active torsions:
REMARK  status: ('A' for Active; 'I' for Inactive)
REMARK    1  A    between atoms: C_3  and  O_4
REMARK    2  A    between atoms: O_4  and  C_5
REMARK    3  A    between atoms: C_5  and  C_6
REMARK    4  A    between atoms: C_13  and  C_14
REMARK                            x       y       z     vdW  Elec       q    Type
REMARK                         _______ _______ _______ _____ _____    ______ ____
ROOT
ATOM      1  C   UNL     1      47.653   7.454  13.150  0.00  0.00    +0.000 A 
ATOM      2  C   UNL     1      48.198   6.781  14.239  0.00  0.00    +0.000 A 
ATOM      3  C   UNL     1      47.753   5.500  14.520  0.00  0.00    +0.000 A 
ATOM      4  N   UNL     1      46.806   4.882  13.776  0.00  0.00    +0.000 NA
ATOM      5  C   UNL     1      46.286   5.532  12.704  0.00  0.00    +0.000 A 
ATOM      6  C   UNL     1      46.682   6.826  12.374  0.00  0.00    +0.000 A 
ENDROOT
BRANCH   5   7
ATOM      7  C   UNL     1      45.290   4.775  11.918  0.00  0.00    +0.000 A 
ATOM      8  C   UNL     1      45.104   5.027  10.551  0.00  0.00    +0.000 A 
ATOM      9  C   UNL     1      44.157   4.303   9.844  0.00  0.00    +0.000 A 
ATOM     10  N   UNL     1      43.376   3.349  10.395  0.00  0.00    +0.000 NA
ATOM     11  C   UNL     1      43.549   3.122  11.710  0.00  0.00    +0.000 A 
ATOM     12  C   UNL     1      44.471   3.792  12.497  0.00  0.00    +0.000 A 
ENDBRANCH   5   7
BRANCH   3  13
ATOM     13  O   UNL     1      48.190   4.725  15.555  0.00  0.00    +0.000 OA
BRANCH  13  14
ATOM     14  C   UNL     1      48.670   5.393  16.724  0.00  0.00    +0.000 C 
BRANCH  14  15
ATOM     15  C   UNL     1      48.714   4.383  17.888  0.00  0.00    +0.000 C 
ATOM     16  C   UNL     1      50.099   4.268  18.548  0.00  0.00    +0.000 C 
ATOM     17  C   UNL     1      51.081   3.422  17.735  0.00  0.00    +0.000 C 
ATOM     18  C   UNL     1      50.459   2.127  17.216  0.00  0.00    +0.000 C 
ATOM     19  N   UNL     1      49.191   2.371  16.525  0.00  0.00    +0.000 NA
ATOM     20  C   UNL     1      48.232   2.999  17.436  0.00  0.00    +0.000 C 
ATOM     21  H   UNL     1      48.815   1.478  16.204  0.00  0.00    +0.000 HD
ENDBRANCH  14  15
ENDBRANCH  13  14
ENDBRANCH   3  13
TORSDOF 4
ENDMDL
MODEL 9
REMARK VINA RESULT:    -6.110      3.904      6.385
REMARK INTER + INTRA:          -8.165
REMARK INTER:                  -7.400
REMARK INTRA:                  -0.765
REMARK UNBOUND:                -0.626
REMARK  Name = 
REMARK  4 active torsions:
REMARK  status: ('A' for Active; 'I' for Inactive)
REMARK    1  A    between atoms: C_3  and  O_4
REMARK    2  A    between atoms: O_4  and  C_5
REMARK    3  A    between atoms: C_5  and  C_6
REMARK    4  A    between atoms: C_13  and  C_14
REMARK                            x       y       z     vdW  Elec       q    Type
REMARK                         _______ _______ _______ _____ _____    ______ ____
ROOT
ATOM      1  C   UNL     1      45.092   3.854  11.809  0.00  0.00    +0.000 A 
ATOM      2  C   UNL     1      45.774   3.193  12.826  0.00  0.00    +0.000 A 
ATOM      3  C   UNL     1      46.652   3.916  13.617  0.00  0.00    +0.000 A 
ATOM      4  N   UNL     1      46.874   5.238  13.432  0.00  0.00    +0.000 NA
ATOM      5  C   UNL     1      46.196   5.887  12.452  0.00  0.00    +0.000 A 
ATOM      6  C   UNL     1      45.307   5.215  11.614  0.00  0.00    +0.000 A 
ENDROOT
BRANCH   5   7
ATOM      7  C   UNL     1      46.460   7.336  12.341  0.00  0.00    +0.000 A 
ATOM      8  C   UNL     1      45.407   8.259  12.265  0.00  0.00    +0.000 A 
ATOM      9  C   UNL     1      45.689   9.612  12.157  0.00  0.00    +0.000 A 
ATOM     10  N   UNL     1      46.941  10.117  12.115  0.00  0.00    +0.000 NA
ATOM     11  C   UNL     1      47.947   9.225  12.173  0.00  0.00    +0.000 A 
ATOM     12  C   UNL     1      47.764   7.857  12.285  0.00  0.00    +0.000 A 
ENDBRANCH   5   7
BRANCH   3  13
ATOM     13  O   UNL     1      47.393   3.402  14.643  0.00  0.00    +0.000 OA
BRANCH  13  14
ATOM     14  C   UNL     1      47.575   4.220  15.801  0.00  0.00    +0.000 C 
BRANCH  14  15
ATOM     15  C   UNL     1      47.772   3.305  17.026  0.00  0.00    +0.000 C 
ATOM     16  C   UNL     1      48.703   3.903  18.094  0.00  0.00    +0.000 C 
ATOM     17  C   UNL     1      50.184   3.789  17.731  0.00  0.00    +0.000 C 
ATOM     18  C   UNL     1      50.556   2.408  17.192  0.00  0.00    +0.000 C 
ATOM     19  N   UNL     1      49.658   1.984  16.116  0.00  0.00    +0.000 NA
ATOM     20  C   UNL     1      48.280   1.921  16.604  0.00  0.00    +0.000 C 
ATOM     21  H   UNL     1      49.944   1.058  15.796  0.00  0.00    +0.000 HD
ENDBRANCH  14  15
ENDBRANCH  13  14
ENDBRANCH   3  13
TORSDOF 4
ENDMDL
