MODEL 1
REMARK VINA RESULT:    -7.599      0.000      0.000
REMARK INTER + INTRA:         -11.867
REMARK INTER:                 -10.709
REMARK INTRA:                  -1.158
REMARK UNBOUND:                -1.158
REMARK  Name = 
REMARK  7 active torsions:
REMARK  status: ('A' for Active; 'I' for Inactive)
REMARK    1  A    between atoms: C_2  and  C_3
REMARK    2  A    between atoms: C_6  and  C_7
REMARK    3  A    between atoms: N_9  and  C_10
REMARK    4  A    between atoms: C_10  and  C_11
REMARK    5  A    between atoms: C_14  and  C_15
REMARK    6  A    between atoms: C_15  and  N_16
REMARK    7  A    between atoms: C_17  and  C_19
REMARK                            x       y       z     vdW  Elec       q    Type
REMARK                         _______ _______ _______ _____ _____    ______ ____
ROOT
ATOM      1  C   UNL     1      45.356   6.891  11.321  0.00  0.00    +0.000 A 
ATOM      2  C   UNL     1      46.566   6.265  11.651  0.00  0.00    +0.000 A 
ATOM      3  C   UNL     1      47.424   6.823  12.607  0.00  0.00    +0.000 A 
ATOM      4  C   UNL     1      47.081   8.011  13.266  0.00  0.00    +0.000 A 
ATOM      5  C   UNL     1      45.888   8.654  12.912  0.00  0.00    +0.000 A 
ATOM      6  C   UNL     1      45.029   8.095  11.959  0.00  0.00    +0.000 A 
ENDROOT
BRANCH   1   7
ATOM      7  C   UNL     1      44.433   6.288  10.297  0.00  0.00    +0.000 C 
BRANCH   7  10
ATOM      8  C   UNL     1      44.516   3.955   9.582  0.00  0.00    +0.000 C 
ATOM      9  O   UNL     1      43.511   3.658  10.221  0.00  0.00    +0.000 OA
ATOM     10  N   UNL     1      45.046   5.223   9.540  0.00  0.00    +0.000 N 
ATOM     11  H   UNL     1      45.895   5.381   9.007  0.00  0.00    +0.000 HD
BRANCH   8  15
ATOM     12  C   UNL     1      46.648   2.071   7.415  0.00  0.00    +0.000 C 
ATOM     13  C   UNL     1      46.013   0.958   8.131  0.00  0.00    +0.000 C 
ATOM     14  C   UNL     1      45.113   1.622   9.020  0.00  0.00    +0.000 C 
ATOM     15  C   UNL     1      45.274   2.937   8.790  0.00  0.00    +0.000 C 
ATOM     16  N   UNL     1      46.213   3.246   7.803  0.00  0.00    +0.000 NA
BRANCH  12  18
ATOM     17  N   UNL     1      48.457   2.018   5.553  0.00  0.00    +0.000 NA
ATOM     18  C   UNL     1      47.663   2.020   6.402  0.00  0.00    +0.000 C 
ENDBRANCH  12  18
ENDBRANCH   8  15
ENDBRANCH   7  10
ENDBRANCH   1   7
BRANCH   4  19
ATOM     19  C   UNL     1      47.985   8.600  14.320  0.00  0.00    +0.000 C 
BRANCH  19  20
ATOM     20  N   UNL     1      48.208   7.677  15.404  0.00  0.00    +0.000 N 
ATOM     21  C   UNL     1      49.415   7.050  15.571  0.00  0.00    +0.000 C 
ATOM     22  O   UNL     1      50.377   7.281  14.841  0.00  0.00    +0.000 OA
ATOM     23  H   UNL     1      47.383   7.301  15.863  0.00  0.00    +0.000 HD
BRANCH  21  24
ATOM     24  C   UNL     1      49.525   6.127  16.709  0.00  0.00    +0.000 A 
ATOM     25  C   UNL     1      50.513   6.324  17.665  0.00  0.00    +0.000 A 
ATOM     26  S   UNL     1      50.465   5.194  18.942  0.00  0.00    +0.000 S 
ATOM     27  C   UNL     1      49.154   4.370  18.236  0.00  0.00    +0.000 A 
ATOM     28  N   UNL     1      48.625   3.264  18.826  0.00  0.00    +0.000 NA
ATOM     29  C   UNL     1      47.653   2.723  18.170  0.00  0.00    +0.000 A 
ATOM     30  N   UNL     1      47.159   3.191  16.980  0.00  0.00    +0.000 N 
ATOM     31  C   UNL     1      47.645   4.318  16.361  0.00  0.00    +0.000 A 
ATOM     32  O   UNL     1      47.155   4.730  15.314  0.00  0.00    +0.000 OA
ATOM     33  C   UNL     1      48.746   4.960  17.053  0.00  0.00    +0.000 A 
ATOM     34  H   UNL     1      46.390   2.728  16.520  0.00  0.00    +0.000 HD
ENDBRANCH  21  24
ENDBRANCH  19  20
ENDBRANCH   4  19
TORSDOF 7
ENDMDL
MODEL 2
REMARK VINA RESULT:    -7.171      1.521      1.823
REMARK INTER + INTRA:         -11.264
REMARK INTER:                 -10.303
REMARK INTRA:                  -0.961
REMARK UNBOUND:                -1.158
REMARK  Name = 
REMARK  7 active torsions:
REMARK  status: ('A' for Active; 'I' for Inactive)
REMARK    1  A    between atoms: C_2  and  C_3
REMARK    2  A    between atoms: C_6  and  C_7
REMARK    3  A    between atoms: N_9  and  C_10
REMARK    4  A    between atoms: C_10  and  C_11
REMARK    5  A    between atoms: C_14  and  C_15
REMARK    6  A    between atoms: C_15  and  N_16
REMARK    7  A    between atoms: C_17  and  C_19
REMARK                            x       y       z     vdW  Elec       q    Type
REMARK                         _______ _______ _______ _____ _____    ______ ____
ROOT
ATOM      1  C   UNL     1      46.013   7.013  12.079  0.00  0.00    +0.000 A 
ATOM      2  C   UNL     1      45.959   8.318  12.589  0.00  0.00    +0.000 A 
ATOM      3  C   UNL     1      46.879   8.749  13.552  0.00  0.00    +0.000 A 
ATOM      4  C   UNL     1      47.885   7.890  14.013  0.00  0.00    +0.000 A 
ATOM      5  C   UNL     1      47.918   6.575  13.528  0.00  0.00    +0.000 A 
ATOM      6  C   UNL     1      47.001   6.146  12.563  0.00  0.00    +0.000 A 
ENDROOT
BRANCH   1   7
ATOM      7  C   UNL     1      45.026   6.553  11.040  0.00  0.00    +0.000 C 
BRANCH   7  10
ATOM      8  C   UNL     1      44.606   4.551   9.707  0.00  0.00    +0.000 C 
ATOM      9  O   UNL     1      43.387   4.662   9.809  0.00  0.00    +0.000 OA
ATOM     10  N   UNL     1      45.501   5.434  10.263  0.00  0.00    +0.000 N 
ATOM     11  H   UNL     1      46.495   5.257  10.155  0.00  0.00    +0.000 HD
BRANCH   8  15
ATOM     12  C   UNL     1      46.489   2.320   7.642  0.00  0.00    +0.000 C 
ATOM     13  C   UNL     1      45.722   1.328   8.404  0.00  0.00    +0.000 C 
ATOM     14  C   UNL     1      44.910   2.138   9.257  0.00  0.00    +0.000 C 
ATOM     15  C   UNL     1      45.233   3.412   8.968  0.00  0.00    +0.000 C 
ATOM     16  N   UNL     1      46.202   3.556   7.973  0.00  0.00    +0.000 NA
BRANCH  12  18
ATOM     17  N   UNL     1      48.320   1.873   5.855  0.00  0.00    +0.000 NA
ATOM     18  C   UNL     1      47.490   2.097   6.637  0.00  0.00    +0.000 C 
ENDBRANCH  12  18
ENDBRANCH   8  15
ENDBRANCH   7  10
ENDBRANCH   1   7
BRANCH   4  19
ATOM     19  C   UNL     1      48.899   8.358  15.026  0.00  0.00    +0.000 C 
BRANCH  19  20
ATOM     20  N   UNL     1      49.714   7.269  15.502  0.00  0.00    +0.000 N 
ATOM     21  C   UNL     1      49.926   7.069  16.842  0.00  0.00    +0.000 C 
ATOM     22  O   UNL     1      49.393   7.772  17.699  0.00  0.00    +0.000 OA
ATOM     23  H   UNL     1      50.337   6.834  14.828  0.00  0.00    +0.000 HD
BRANCH  21  24
ATOM     24  C   UNL     1      50.777   5.929  17.211  0.00  0.00    +0.000 A 
ATOM     25  C   UNL     1      52.078   6.151  17.642  0.00  0.00    +0.000 A 
ATOM     26  S   UNL     1      52.907   4.726  18.078  0.00  0.00    +0.000 S 
ATOM     27  C   UNL     1      51.573   3.757  17.656  0.00  0.00    +0.000 A 
ATOM     28  N   UNL     1      51.630   2.402  17.771  0.00  0.00    +0.000 NA
ATOM     29  C   UNL     1      50.558   1.789  17.392  0.00  0.00    +0.000 A 
ATOM     30  N   UNL     1      49.434   2.409  16.913  0.00  0.00    +0.000 N 
ATOM     31  C   UNL     1      49.322   3.774  16.803  0.00  0.00    +0.000 A 
ATOM     32  O   UNL     1      48.287   4.298  16.403  0.00  0.00    +0.000 OA
ATOM     33  C   UNL     1      50.504   4.511  17.208  0.00  0.00    +0.000 A 
ATOM     34  H   UNL     1      48.623   1.873  16.641  0.00  0.00    +0.000 HD
ENDBRANCH  21  24
ENDBRANCH  19  20
ENDBRANCH   4  19
TORSDOF 7
ENDMDL
MODEL 3
REMARK VINA RESULT:    -7.033      1.643      2.019
REMARK INTER + INTRA:         -11.069
REMARK INTER:                  -9.970
REMARK INTRA:                  -1.099
REMARK UNBOUND:                -1.158
REMARK  Name = 
REMARK  7 active torsions:
REMARK  status: ('A' for Active; 'I' for Inactive)
REMARK    1  A    between atoms: C_2  and  C_3
REMARK    2  A    between atoms: C_6  and  C_7
REMARK    3  A    between atoms: N_9  and  C_10
REMARK    4  A    between atoms: C_10  and  C_11
REMARK    5  A    between atoms: C_14  and  C_15
REMARK    6  A    between atoms: C_15  and  N_16
REMARK    7  A    between atoms: C_17  and  C_19
REMARK                            x       y       z     vdW  Elec       q    Type
REMARK                         _______ _______ _______ _____ _____    ______ ____
ROOT
ATOM      1  C   UNL     1      45.901   7.190  11.836  0.00  0.00    +0.000 A 
ATOM      2  C   UNL     1      45.610   8.226  12.735  0.00  0.00    +0.000 A 
ATOM      3  C   UNL     1      46.605   8.753  13.567  0.00  0.00    +0.000 A 
ATOM      4  C   UNL     1      47.918   8.267  13.505  0.00  0.00    +0.000 A 
ATOM      5  C   UNL     1      48.201   7.209  12.630  0.00  0.00    +0.000 A 
ATOM      6  C   UNL     1      47.207   6.685  11.797  0.00  0.00    +0.000 A 
ENDROOT
BRANCH   1   7
ATOM      7  C   UNL     1      44.831   6.629  10.940  0.00  0.00    +0.000 C 
BRANCH   7  10
ATOM      8  C   UNL     1      44.841   4.414   9.911  0.00  0.00    +0.000 C 
ATOM      9  O   UNL     1      43.944   4.002  10.642  0.00  0.00    +0.000 OA
ATOM     10  N   UNL     1      45.340   5.694   9.966  0.00  0.00    +0.000 N 
ATOM     11  H   UNL     1      46.100   5.949   9.343  0.00  0.00    +0.000 HD
BRANCH   8  15
ATOM     12  C   UNL     1      46.228   1.801   7.903  0.00  0.00    +0.000 C 
ATOM     13  C   UNL     1      46.429   2.924   6.981  0.00  0.00    +0.000 C 
ATOM     14  C   UNL     1      45.915   4.037   7.716  0.00  0.00    +0.000 C 
ATOM     15  C   UNL     1      45.489   3.535   8.889  0.00  0.00    +0.000 C 
ATOM     16  N   UNL     1      45.672   2.159   9.036  0.00  0.00    +0.000 NA
BRANCH  12  18
ATOM     17  N   UNL     1      46.820  -0.708   7.588  0.00  0.00    +0.000 NA
ATOM     18  C   UNL     1      46.537   0.413   7.704  0.00  0.00    +0.000 C 
ENDBRANCH  12  18
ENDBRANCH   8  15
ENDBRANCH   7  10
ENDBRANCH   1   7
BRANCH   4  19
ATOM     19  C   UNL     1      49.002   8.852  14.375  0.00  0.00    +0.000 C 
BRANCH  19  20
ATOM     20  N   UNL     1      49.165   8.103  15.595  0.00  0.00    +0.000 N 
ATOM     21  C   UNL     1      48.554   8.494  16.758  0.00  0.00    +0.000 C 
ATOM     22  O   UNL     1      47.801   9.465  16.807  0.00  0.00    +0.000 OA
ATOM     23  H   UNL     1      49.946   7.455  15.635  0.00  0.00    +0.000 HD
BRANCH  21  24
ATOM     24  C   UNL     1      48.795   7.655  17.941  0.00  0.00    +0.000 A 
ATOM     25  C   UNL     1      49.130   8.248  19.151  0.00  0.00    +0.000 A 
ATOM     26  S   UNL     1      49.323   7.134  20.428  0.00  0.00    +0.000 S 
ATOM     27  C   UNL     1      49.017   5.816  19.398  0.00  0.00    +0.000 A 
ATOM     28  N   UNL     1      49.051   4.539  19.868  0.00  0.00    +0.000 NA
ATOM     29  C   UNL     1      48.825   3.635  18.973  0.00  0.00    +0.000 A 
ATOM     30  N   UNL     1      48.566   3.893  17.652  0.00  0.00    +0.000 N 
ATOM     31  C   UNL     1      48.497   5.166  17.139  0.00  0.00    +0.000 A 
ATOM     32  O   UNL     1      48.226   5.361  15.958  0.00  0.00    +0.000 OA
ATOM     33  C   UNL     1      48.751   6.220  18.102  0.00  0.00    +0.000 A 
ATOM     34  H   UNL     1      48.389   3.141  17.003  0.00  0.00    +0.000 HD
ENDBRANCH  21  24
ENDBRANCH  19  20
ENDBRANCH   4  19
TORSDOF 7
ENDMDL
MODEL 4
REMARK VINA RESULT:    -6.988      4.995     10.110
REMARK INTER + INTRA:         -11.006
REMARK INTER:                 -10.176
REMARK INTRA:                  -0.830
REMARK UNBOUND:                -1.158
REMARK  Name = 
REMARK  7 active torsions:
REMARK  status: ('A' for Active; 'I' for Inactive)
REMARK    1  A    between atoms: C_2  and  C_3
REMARK    2  A    between atoms: C_6  and  C_7
REMARK    3  A    between atoms: N_9  and  C_10
REMARK    4  A    between atoms: C_10  and  C_11
REMARK    5  A    between atoms: C_14  and  C_15
REMARK    6  A    between atoms: C_15  and  N_16
REMARK    7  A    between atoms: C_17  and  C_19
REMARK                            x       y       z     vdW  Elec       q    Type
REMARK                         _______ _______ _______ _____ _____    ______ ____
ROOT
ATOM      1  C   UNL     1      51.611   2.886  17.761  0.00  0.00    +0.000 A 
ATOM      2  C   UNL     1      50.820   1.904  17.149  0.00  0.00    +0.000 A 
ATOM      3  C   UNL     1      49.448   2.108  16.955  0.00  0.00    +0.000 A 
ATOM      4  C   UNL     1      48.842   3.306  17.352  0.00  0.00    +0.000 A 
ATOM      5  C   UNL     1      49.626   4.274  17.994  0.00  0.00    +0.000 A 
ATOM      6  C   UNL     1      50.997   4.071  18.185  0.00  0.00    +0.000 A 
ENDROOT
BRANCH   1   7
ATOM      7  C   UNL     1      53.086   2.667  17.965  0.00  0.00    +0.000 C 
BRANCH   7  10
ATOM      8  C   UNL     1      54.080   0.439  17.881  0.00  0.00    +0.000 C 
ATOM      9  O   UNL     1      54.491   0.597  16.734  0.00  0.00    +0.000 OA
ATOM     10  N   UNL     1      53.390   1.398  18.582  0.00  0.00    +0.000 N 
ATOM     11  H   UNL     1      53.063   1.180  19.517  0.00  0.00    +0.000 HD
BRANCH   8  15
ATOM     12  C   UNL     1      53.889  -2.616  19.731  0.00  0.00    +0.000 C 
ATOM     13  C   UNL     1      55.320  -2.636  19.410  0.00  0.00    +0.000 C 
ATOM     14  C   UNL     1      55.501  -1.423  18.677  0.00  0.00    +0.000 C 
ATOM     15  C   UNL     1      54.287  -0.845  18.620  0.00  0.00    +0.000 C 
ATOM     16  N   UNL     1      53.272  -1.556  19.264  0.00  0.00    +0.000 NA
BRANCH  12  18
ATOM     17  N   UNL     1      52.447  -4.357  21.009  0.00  0.00    +0.000 NA
ATOM     18  C   UNL     1      53.118  -3.594  20.444  0.00  0.00    +0.000 C 
ENDBRANCH  12  18
ENDBRANCH   8  15
ENDBRANCH   7  10
ENDBRANCH   1   7
BRANCH   4  19
ATOM     19  C   UNL     1      47.371   3.546  17.116  0.00  0.00    +0.000 C 
BRANCH  19  20
ATOM     20  N   UNL     1      47.153   4.554  16.110  0.00  0.00    +0.000 N 
ATOM     21  C   UNL     1      47.168   4.244  14.775  0.00  0.00    +0.000 C 
ATOM     22  O   UNL     1      47.315   3.092  14.373  0.00  0.00    +0.000 OA
ATOM     23  H   UNL     1      47.263   5.522  16.399  0.00  0.00    +0.000 HD
BRANCH  21  24
ATOM     24  C   UNL     1      46.937   5.355  13.840  0.00  0.00    +0.000 A 
ATOM     25  C   UNL     1      47.924   6.311  13.646  0.00  0.00    +0.000 A 
ATOM     26  S   UNL     1      47.512   7.496  12.491  0.00  0.00    +0.000 S 
ATOM     27  C   UNL     1      45.978   6.803  12.247  0.00  0.00    +0.000 A 
ATOM     28  N   UNL     1      45.091   7.358  11.376  0.00  0.00    +0.000 NA
ATOM     29  C   UNL     1      43.957   6.745  11.308  0.00  0.00    +0.000 A 
ATOM     30  N   UNL     1      43.630   5.625  12.028  0.00  0.00    +0.000 N 
ATOM     31  C   UNL     1      44.502   5.017  12.899  0.00  0.00    +0.000 A 
ATOM     32  O   UNL     1      44.189   3.994  13.501  0.00  0.00    +0.000 OA
ATOM     33  C   UNL     1      45.790   5.672  13.020  0.00  0.00    +0.000 A 
ATOM     34  H   UNL     1      42.727   5.187  11.922  0.00  0.00    +0.000 HD
ENDBRANCH  21  24
ENDBRANCH  19  20
ENDBRANCH   4  19
TORSDOF 7
ENDMDL
MODEL 5
REMARK VINA RESULT:    -6.611      4.310      8.690
REMARK INTER + INTRA:         -10.475
REMARK INTER:                  -9.378
REMARK INTRA:                  -1.097
REMARK UNBOUND:                -1.158
REMARK  Name = 
REMARK  7 active torsions:
REMARK  status: ('A' for Active; 'I' for Inactive)
REMARK    1  A    between atoms: C_2  and  C_3
REMARK    2  A    between atoms: C_6  and  C_7
REMARK    3  A    between atoms: N_9  and  C_10
REMARK    4  A    between atoms: C_10  and  C_11
REMARK    5  A    between atoms: C_14  and  C_15
REMARK    6  A    between atoms: C_15  and  N_16
REMARK    7  A    between atoms: C_17  and  C_19
REMARK                            x       y       z     vdW  Elec       q    Type
REMARK                         _______ _______ _______ _____ _____    ______ ____
ROOT
ATOM      1  C   UNL     1      49.766   4.831  17.607  0.00  0.00    +0.000 A 
ATOM      2  C   UNL     1      50.543   5.886  17.110  0.00  0.00    +0.000 A 
ATOM      3  C   UNL     1      50.076   6.685  16.060  0.00  0.00    +0.000 A 
ATOM      4  C   UNL     1      48.814   6.458  15.496  0.00  0.00    +0.000 A 
ATOM      5  C   UNL     1      48.052   5.382  15.970  0.00  0.00    +0.000 A 
ATOM      6  C   UNL     1      48.517   4.585  17.022  0.00  0.00    +0.000 A 
ENDROOT
BRANCH   1   7
ATOM      7  C   UNL     1      50.267   3.975  18.739  0.00  0.00    +0.000 C 
BRANCH   7  10
ATOM      8  C   UNL     1      51.539   2.169  17.699  0.00  0.00    +0.000 C 
ATOM      9  O   UNL     1      50.532   1.647  17.228  0.00  0.00    +0.000 OA
ATOM     10  N   UNL     1      51.520   3.323  18.445  0.00  0.00    +0.000 N 
ATOM     11  H   UNL     1      52.394   3.677  18.820  0.00  0.00    +0.000 HD
BRANCH   8  15
ATOM     12  C   UNL     1      54.442   0.223  16.942  0.00  0.00    +0.000 C 
ATOM     13  C   UNL     1      55.105   1.414  17.485  0.00  0.00    +0.000 C 
ATOM     14  C   UNL     1      54.006   2.257  17.841  0.00  0.00    +0.000 C 
ATOM     15  C   UNL     1      52.897   1.572  17.508  0.00  0.00    +0.000 C 
ATOM     16  N   UNL     1      53.133   0.313  16.954  0.00  0.00    +0.000 NA
BRANCH  12  18
ATOM     17  N   UNL     1      55.568  -1.917  15.997  0.00  0.00    +0.000 NA
ATOM     18  C   UNL     1      55.039  -0.965  16.401  0.00  0.00    +0.000 C 
ENDBRANCH  12  18
ENDBRANCH   8  15
ENDBRANCH   7  10
ENDBRANCH   1   7
BRANCH   4  19
ATOM     19  C   UNL     1      48.292   7.336  14.386  0.00  0.00    +0.000 C 
BRANCH  19  20
ATOM     20  N   UNL     1      47.054   6.831  13.849  0.00  0.00    +0.000 N 
ATOM     21  C   UNL     1      46.815   6.818  12.499  0.00  0.00    +0.000 C 
ATOM     22  O   UNL     1      47.658   7.185  11.683  0.00  0.00    +0.000 OA
ATOM     23  H   UNL     1      46.274   6.747  14.495  0.00  0.00    +0.000 HD
BRANCH  21  24
ATOM     24  C   UNL     1      45.515   6.284  12.067  0.00  0.00    +0.000 A 
ATOM     25  C   UNL     1      44.572   7.134  11.506  0.00  0.00    +0.000 A 
ATOM     26  S   UNL     1      43.144   6.342  11.013  0.00  0.00    +0.000 S 
ATOM     27  C   UNL     1      43.716   4.843  11.580  0.00  0.00    +0.000 A 
ATOM     28  N   UNL     1      42.951   3.721  11.482  0.00  0.00    +0.000 NA
ATOM     29  C   UNL     1      43.497   2.659  11.974  0.00  0.00    +0.000 A 
ATOM     30  N   UNL     1      44.738   2.617  12.552  0.00  0.00    +0.000 N 
ATOM     31  C   UNL     1      45.555   3.718  12.650  0.00  0.00    +0.000 A 
ATOM     32  O   UNL     1      46.677   3.636  13.141  0.00  0.00    +0.000 OA
ATOM     33  C   UNL     1      44.986   4.941  12.119  0.00  0.00    +0.000 A 
ATOM     34  H   UNL     1      45.113   1.751  12.911  0.00  0.00    +0.000 HD
ENDBRANCH  21  24
ENDBRANCH  19  20
ENDBRANCH   4  19
TORSDOF 7
ENDMDL
MODEL 6
REMARK VINA RESULT:    -6.555      2.254      2.804
REMARK INTER + INTRA:         -10.395
REMARK INTER:                  -9.392
REMARK INTRA:                  -1.002
REMARK UNBOUND:                -1.158
REMARK  Name = 
REMARK  7 active torsions:
REMARK  status: ('A' for Active; 'I' for Inactive)
REMARK    1  A    between atoms: C_2  and  C_3
REMARK    2  A    between atoms: C_6  and  C_7
REMARK    3  A    between atoms: N_9  and  C_10
REMARK    4  A    between atoms: C_10  and  C_11
REMARK    5  A    between atoms: C_14  and  C_15
REMARK    6  A    between atoms: C_15  and  N_16
REMARK    7  A    between atoms: C_17  and  C_19
REMARK                            x       y       z     vdW  Elec       q    Type
REMARK                         _______ _______ _______ _____ _____    ______ ____
ROOT
ATOM      1  C   UNL     1      45.928   7.230  12.332  0.00  0.00    +0.000 A 
ATOM      2  C   UNL     1      46.143   8.574  12.667  0.00  0.00    +0.000 A 
ATOM      3  C   UNL     1      47.171   8.937  13.546  0.00  0.00    +0.000 A 
ATOM      4  C   UNL     1      48.017   7.965  14.095  0.00  0.00    +0.000 A 
ATOM      5  C   UNL     1      47.780   6.619  13.787  0.00  0.00    +0.000 A 
ATOM      6  C   UNL     1      46.755   6.256  12.907  0.00  0.00    +0.000 A 
ENDROOT
BRANCH   1   7
ATOM      7  C   UNL     1      44.826   6.842  11.384  0.00  0.00    +0.000 C 
BRANCH   7  10
ATOM      8  C   UNL     1      44.399   4.769  10.166  0.00  0.00    +0.000 C 
ATOM      9  O   UNL     1      43.294   4.620  10.682  0.00  0.00    +0.000 OA
ATOM     10  N   UNL     1      45.226   5.834  10.432  0.00  0.00    +0.000 N 
ATOM     11  H   UNL     1      46.136   5.871   9.983  0.00  0.00    +0.000 HD
BRANCH   8  15
ATOM     12  C   UNL     1      45.936   2.950   7.498  0.00  0.00    +0.000 C 
ATOM     13  C   UNL     1      45.570   1.820   8.360  0.00  0.00    +0.000 C 
ATOM     14  C   UNL     1      44.920   2.456   9.462  0.00  0.00    +0.000 C 
ATOM     15  C   UNL     1      44.955   3.775   9.197  0.00  0.00    +0.000 C 
ATOM     16  N   UNL     1      45.573   4.111   7.991  0.00  0.00    +0.000 NA
BRANCH  12  18
ATOM     17  N   UNL     1      47.160   2.942   5.208  0.00  0.00    +0.000 NA
ATOM     18  C   UNL     1      46.636   2.930   6.245  0.00  0.00    +0.000 C 
ENDBRANCH  12  18
ENDBRANCH   8  15
ENDBRANCH   7  10
ENDBRANCH   1   7
BRANCH   4  19
ATOM     19  C   UNL     1      49.146   8.353  15.017  0.00  0.00    +0.000 C 
BRANCH  19  20
ATOM     20  N   UNL     1      49.109   7.601  16.246  0.00  0.00    +0.000 N 
ATOM     21  C   UNL     1      48.630   8.153  17.405  0.00  0.00    +0.000 C 
ATOM     22  O   UNL     1      48.163   9.290  17.443  0.00  0.00    +0.000 OA
ATOM     23  H   UNL     1      49.691   6.769  16.292  0.00  0.00    +0.000 HD
BRANCH  21  24
ATOM     24  C   UNL     1      48.645   7.293  18.598  0.00  0.00    +0.000 A 
ATOM     25  C   UNL     1      47.473   7.081  19.310  0.00  0.00    +0.000 A 
ATOM     26  S   UNL     1      47.657   6.019  20.631  0.00  0.00    +0.000 S 
ATOM     27  C   UNL     1      49.323   5.845  20.329  0.00  0.00    +0.000 A 
ATOM     28  N   UNL     1      50.101   5.067  21.129  0.00  0.00    +0.000 NA
ATOM     29  C   UNL     1      51.350   5.045  20.800  0.00  0.00    +0.000 A 
ATOM     30  N   UNL     1      51.890   5.729  19.742  0.00  0.00    +0.000 N 
ATOM     31  C   UNL     1      51.139   6.506  18.894  0.00  0.00    +0.000 A 
ATOM     32  O   UNL     1      51.650   7.075  17.934  0.00  0.00    +0.000 OA
ATOM     33  C   UNL     1      49.728   6.572  19.224  0.00  0.00    +0.000 A 
ATOM     34  H   UNL     1      52.875   5.663  19.532  0.00  0.00    +0.000 HD
ENDBRANCH  21  24
ENDBRANCH  19  20
ENDBRANCH   4  19
TORSDOF 7
ENDMDL
MODEL 7
REMARK VINA RESULT:    -6.492      4.855      7.723
REMARK INTER + INTRA:         -10.307
REMARK INTER:                  -9.390
REMARK INTRA:                  -0.917
REMARK UNBOUND:                -1.158
REMARK  Name = 
REMARK  7 active torsions:
REMARK  status: ('A' for Active; 'I' for Inactive)
REMARK    1  A    between atoms: C_2  and  C_3
REMARK    2  A    between atoms: C_6  and  C_7
REMARK    3  A    between atoms: N_9  and  C_10
REMARK    4  A    between atoms: C_10  and  C_11
REMARK    5  A    between atoms: C_14  and  C_15
REMARK    6  A    between atoms: C_15  and  N_16
REMARK    7  A    between atoms: C_17  and  C_19
REMARK                            x       y       z     vdW  Elec       q    Type
REMARK                         _______ _______ _______ _____ _____    ______ ____
ROOT
ATOM      1  C   UNL     1      50.427   8.940  11.399  0.00  0.00    +0.000 A 
ATOM      2  C   UNL     1      49.551  10.000  11.672  0.00  0.00    +0.000 A 
ATOM      3  C   UNL     1      48.235   9.753  12.082  0.00  0.00    +0.000 A 
ATOM      4  C   UNL     1      47.772   8.441  12.245  0.00  0.00    +0.000 A 
ATOM      5  C   UNL     1      48.638   7.382  11.940  0.00  0.00    +0.000 A 
ATOM      6  C   UNL     1      49.954   7.629  11.534  0.00  0.00    +0.000 A 
ENDROOT
BRANCH   1   7
ATOM      7  C   UNL     1      51.843   9.206  10.963  0.00  0.00    +0.000 C 
BRANCH   7  10
ATOM      8  C   UNL     1      53.501   7.448  10.620  0.00  0.00    +0.000 C 
ATOM      9  O   UNL     1      54.048   7.666  11.698  0.00  0.00    +0.000 OA
ATOM     10  N   UNL     1      52.402   8.139  10.169  0.00  0.00    +0.000 N 
ATOM     11  H   UNL     1      52.024   7.915   9.254  0.00  0.00    +0.000 HD
BRANCH   8  15
ATOM     12  C   UNL     1      54.291   5.249   7.912  0.00  0.00    +0.000 C 
ATOM     13  C   UNL     1      55.242   4.735   8.905  0.00  0.00    +0.000 C 
ATOM     14  C   UNL     1      54.983   5.552  10.048  0.00  0.00    +0.000 C 
ATOM     15  C   UNL     1      54.006   6.401   9.679  0.00  0.00    +0.000 C 
ATOM     16  N   UNL     1      53.557   6.236   8.367  0.00  0.00    +0.000 NA
BRANCH  12  18
ATOM     17  N   UNL     1      53.973   4.436   5.466  0.00  0.00    +0.000 NA
ATOM     18  C   UNL     1      54.101   4.827   6.553  0.00  0.00    +0.000 C 
ENDBRANCH  12  18
ENDBRANCH   8  15
ENDBRANCH   7  10
ENDBRANCH   1   7
BRANCH   4  19
ATOM     19  C   UNL     1      46.366   8.169  12.717  0.00  0.00    +0.000 C 
BRANCH  19  20
ATOM     20  N   UNL     1      45.953   6.824  12.405  0.00  0.00    +0.000 N 
ATOM     21  C   UNL     1      44.836   6.579  11.649  0.00  0.00    +0.000 C 
ATOM     22  O   UNL     1      44.165   7.487  11.161  0.00  0.00    +0.000 OA
ATOM     23  H   UNL     1      46.341   6.081  12.977  0.00  0.00    +0.000 HD
BRANCH  21  24
ATOM     24  C   UNL     1      44.509   5.168  11.398  0.00  0.00    +0.000 A 
ATOM     25  C   UNL     1      43.776   4.452  12.335  0.00  0.00    +0.000 A 
ATOM     26  S   UNL     1      43.441   2.848  11.862  0.00  0.00    +0.000 S 
ATOM     27  C   UNL     1      44.309   3.038  10.410  0.00  0.00    +0.000 A 
ATOM     28  N   UNL     1      44.435   2.007   9.532  0.00  0.00    +0.000 NA
ATOM     29  C   UNL     1      45.140   2.281   8.485  0.00  0.00    +0.000 A 
ATOM     30  N   UNL     1      45.727   3.494   8.236  0.00  0.00    +0.000 N 
ATOM     31  C   UNL     1      45.606   4.570   9.082  0.00  0.00    +0.000 A 
ATOM     32  O   UNL     1      46.115   5.653   8.809  0.00  0.00    +0.000 OA
ATOM     33  C   UNL     1      44.829   4.313  10.279  0.00  0.00    +0.000 A 
ATOM     34  H   UNL     1      46.260   3.648   7.393  0.00  0.00    +0.000 HD
ENDBRANCH  21  24
ENDBRANCH  19  20
ENDBRANCH   4  19
TORSDOF 7
ENDMDL
MODEL 8
REMARK VINA RESULT:    -6.438      1.987      2.541
REMARK INTER + INTRA:         -10.231
REMARK INTER:                  -9.315
REMARK INTRA:                  -0.916
REMARK UNBOUND:                -1.158
REMARK  Name = 
REMARK  7 active torsions:
REMARK  status: ('A' for Active; 'I' for Inactive)
REMARK    1  A    between atoms: C_2  and  C_3
REMARK    2  A    between atoms: C_6  and  C_7
REMARK    3  A    between atoms: N_9  and  C_10
REMARK    4  A    between atoms: C_10  and  C_11
REMARK    5  A    between atoms: C_14  and  C_15
REMARK    6  A    between atoms: C_15  and  N_16
REMARK    7  A    between atoms: C_17  and  C_19
REMARK                            x       y       z     vdW  Elec       q    Type
REMARK                         _______ _______ _______ _____ _____    ______ ____
ROOT
ATOM      1  C   UNL     1      45.798   7.242  12.062  0.00  0.00    +0.000 A 
ATOM      2  C   UNL     1      45.635   8.328  12.931  0.00  0.00    +0.000 A 
ATOM      3  C   UNL     1      46.736   8.888  13.592  0.00  0.00    +0.000 A 
ATOM      4  C   UNL     1      48.025   8.383  13.384  0.00  0.00    +0.000 A 
ATOM      5  C   UNL     1      48.184   7.275  12.540  0.00  0.00    +0.000 A 
ATOM      6  C   UNL     1      47.084   6.719  11.877  0.00  0.00    +0.000 A 
ENDROOT
BRANCH   1   7
ATOM      7  C   UNL     1      44.615   6.645  11.348  0.00  0.00    +0.000 C 
BRANCH   7  10
ATOM      8  C   UNL     1      44.771   4.400  10.402  0.00  0.00    +0.000 C 
ATOM      9  O   UNL     1      44.241   3.882  11.382  0.00  0.00    +0.000 OA
ATOM     10  N   UNL     1      44.989   5.751  10.279  0.00  0.00    +0.000 N 
ATOM     11  H   UNL     1      45.457   6.097   9.448  0.00  0.00    +0.000 HD
BRANCH   8  15
ATOM     12  C   UNL     1      45.963   1.939   8.097  0.00  0.00    +0.000 C 
ATOM     13  C   UNL     1      45.714   3.033   7.150  0.00  0.00    +0.000 C 
ATOM     14  C   UNL     1      45.247   4.086   7.996  0.00  0.00    +0.000 C 
ATOM     15  C   UNL     1      45.249   3.584   9.243  0.00  0.00    +0.000 C 
ATOM     16  N   UNL     1      45.688   2.261   9.339  0.00  0.00    +0.000 NA
BRANCH  12  18
ATOM     17  N   UNL     1      46.826  -0.470   7.656  0.00  0.00    +0.000 NA
ATOM     18  C   UNL     1      46.428   0.609   7.824  0.00  0.00    +0.000 C 
ENDBRANCH  12  18
ENDBRANCH   8  15
ENDBRANCH   7  10
ENDBRANCH   1   7
BRANCH   4  19
ATOM     19  C   UNL     1      49.219   9.001  14.067  0.00  0.00    +0.000 C 
BRANCH  19  20
ATOM     20  N   UNL     1      50.043   8.003  14.701  0.00  0.00    +0.000 N 
ATOM     21  C   UNL     1      51.120   8.353  15.474  0.00  0.00    +0.000 C 
ATOM     22  O   UNL     1      51.404   9.526  15.706  0.00  0.00    +0.000 OA
ATOM     23  H   UNL     1      49.973   7.055  14.342  0.00  0.00    +0.000 HD
BRANCH  21  24
ATOM     24  C   UNL     1      51.890   7.249  16.067  0.00  0.00    +0.000 A 
ATOM     25  C   UNL     1      53.276   7.265  16.006  0.00  0.00    +0.000 A 
ATOM     26  S   UNL     1      54.010   5.938  16.787  0.00  0.00    +0.000 S 
ATOM     27  C   UNL     1      52.499   5.269  17.190  0.00  0.00    +0.000 A 
ATOM     28  N   UNL     1      52.414   4.090  17.863  0.00  0.00    +0.000 NA
ATOM     29  C   UNL     1      51.206   3.686  18.080  0.00  0.00    +0.000 A 
ATOM     30  N   UNL     1      50.077   4.356  17.688  0.00  0.00    +0.000 N 
ATOM     31  C   UNL     1      50.115   5.561  17.029  0.00  0.00    +0.000 A 
ATOM     32  O   UNL     1      49.083   6.152  16.725  0.00  0.00    +0.000 OA
ATOM     33  C   UNL     1      51.449   6.057  16.752  0.00  0.00    +0.000 A 
ATOM     34  H   UNL     1      49.160   3.991  17.897  0.00  0.00    +0.000 HD
ENDBRANCH  21  24
ENDBRANCH  19  20
ENDBRANCH   4  19
TORSDOF 7
ENDMDL
MODEL 9
REMARK VINA RESULT:    -6.403      5.887      8.350
REMARK INTER + INTRA:         -10.181
REMARK INTER:                  -9.145
REMARK INTRA:                  -1.036
REMARK UNBOUND:                -1.158
REMARK  Name = 
REMARK  7 active torsions:
REMARK  status: ('A' for Active; 'I' for Inactive)
REMARK    1  A    between atoms: C_2  and  C_3
REMARK    2  A    between atoms: C_6  and  C_7
REMARK    3  A    between atoms: N_9  and  C_10
REMARK    4  A    between atoms: C_10  and  C_11
REMARK    5  A    between atoms: C_14  and  C_15
REMARK    6  A    between atoms: C_15  and  N_16
REMARK    7  A    between atoms: C_17  and  C_19
REMARK                            x       y       z     vdW  Elec       q    Type
REMARK                         _______ _______ _______ _____ _____    ______ ____
ROOT
ATOM      1  C   UNL     1      48.894   3.384  17.189  0.00  0.00    +0.000 A 
ATOM      2  C   UNL     1      49.444   2.141  16.847  0.00  0.00    +0.000 A 
ATOM      3  C   UNL     1      50.793   1.861  17.099  0.00  0.00    +0.000 A 
ATOM      4  C   UNL     1      51.616   2.813  17.715  0.00  0.00    +0.000 A 
ATOM      5  C   UNL     1      51.074   4.068  18.025  0.00  0.00    +0.000 A 
ATOM      6  C   UNL     1      49.726   4.346  17.776  0.00  0.00    +0.000 A 
ENDROOT
BRANCH   1   7
ATOM      7  C   UNL     1      47.443   3.682  16.921  0.00  0.00    +0.000 C 
BRANCH   7  10
ATOM      8  C   UNL     1      47.128   4.357  14.596  0.00  0.00    +0.000 C 
ATOM      9  O   UNL     1      47.150   3.198  14.191  0.00  0.00    +0.000 OA
ATOM     10  N   UNL     1      47.249   4.704  15.921  0.00  0.00    +0.000 N 
ATOM     11  H   UNL     1      47.246   5.687  16.172  0.00  0.00    +0.000 HD
BRANCH   8  15
ATOM     12  C   UNL     1      46.094   7.000  12.421  0.00  0.00    +0.000 C 
ATOM     13  C   UNL     1      47.535   7.276  12.440  0.00  0.00    +0.000 C 
ATOM     14  C   UNL     1      48.047   6.240  13.282  0.00  0.00    +0.000 C 
ATOM     15  C   UNL     1      46.979   5.515  13.661  0.00  0.00    +0.000 C 
ATOM     16  N   UNL     1      45.760   5.958  13.143  0.00  0.00    +0.000 NA
BRANCH  12  18
ATOM     17  N   UNL     1      44.246   8.360  11.204  0.00  0.00    +0.000 NA
ATOM     18  C   UNL     1      45.054   7.727  11.750  0.00  0.00    +0.000 C 
ENDBRANCH  12  18
ENDBRANCH   8  15
ENDBRANCH   7  10
ENDBRANCH   1   7
BRANCH   4  19
ATOM     19  C   UNL     1      53.061   2.507  18.018  0.00  0.00    +0.000 C 
BRANCH  19  20
ATOM     20  N   UNL     1      53.367   1.116  17.795  0.00  0.00    +0.000 N 
ATOM     21  C   UNL     1      54.194   0.423  18.640  0.00  0.00    +0.000 C 
ATOM     22  O   UNL     1      54.671   0.934  19.651  0.00  0.00    +0.000 OA
ATOM     23  H   UNL     1      53.182   0.750  16.866  0.00  0.00    +0.000 HD
BRANCH  21  24
ATOM     24  C   UNL     1      54.437  -0.989  18.310  0.00  0.00    +0.000 A 
ATOM     25  C   UNL     1      54.198  -1.971  19.262  0.00  0.00    +0.000 A 
ATOM     26  S   UNL     1      54.482  -3.555  18.698  0.00  0.00    +0.000 S 
ATOM     27  C   UNL     1      54.984  -2.981  17.177  0.00  0.00    +0.000 A 
ATOM     28  N   UNL     1      55.394  -3.842  16.206  0.00  0.00    +0.000 NA
ATOM     29  C   UNL     1      55.773  -3.270  15.111  0.00  0.00    +0.000 A 
ATOM     30  N   UNL     1      55.775  -1.916  14.899  0.00  0.00    +0.000 N 
ATOM     31  C   UNL     1      55.346  -1.012  15.841  0.00  0.00    +0.000 A 
ATOM     32  O   UNL     1      55.327   0.193  15.603  0.00  0.00    +0.000 OA
ATOM     33  C   UNL     1      54.918  -1.602  17.094  0.00  0.00    +0.000 A 
ATOM     34  H   UNL     1      56.075  -1.531  14.016  0.00  0.00    +0.000 HD
ENDBRANCH  21  24
ENDBRANCH  19  20
ENDBRANCH   4  19
TORSDOF 7
ENDMDL
