MODEL 1
REMARK VINA RESULT:    -8.574      0.000      0.000
REMARK INTER + INTRA:         -12.631
REMARK INTER:                 -11.582
REMARK INTRA:                  -1.049
REMARK UNBOUND:                -1.049
REMARK  Name = 
REMARK  7 active torsions:
REMARK  status: ('A' for Active; 'I' for Inactive)
REMARK    1  A    between atoms: C_1  and  C_2
REMARK    2  A    between atoms: C_2  and  C_3
REMARK    3  A    between atoms: C_2  and  C_15
REMARK    4  A    between atoms: C_3  and  N_4
REMARK    5  A    between atoms: N_4  and  C_5
REMARK    6  A    between atoms: C_8  and  C_9
REMARK    7  A    between atoms: C_19  and  C_20
REMARK                            x       y       z     vdW  Elec       q    Type
REMARK                         _______ _______ _______ _____ _____    ______ ____
ROOT
ATOM      1  N   UNL     1      43.721   4.834  10.021  0.00  0.00    +0.000 N 
ATOM      2  H   UNL     1      43.025   5.276   9.417  0.00  0.00    +0.000 HD
ENDROOT
BRANCH   1   3
ATOM      3  C   UNL     1      44.585   4.029   9.250  0.00  0.00    +0.000 A 
ATOM      4  C   UNL     1      45.514   4.576   8.358  0.00  0.00    +0.000 A 
ATOM      5  C   UNL     1      46.390   3.768   7.632  0.00  0.00    +0.000 A 
ATOM      6  C   UNL     1      46.392   2.382   7.812  0.00  0.00    +0.000 A 
ATOM      7  C   UNL     1      45.506   1.818   8.738  0.00  0.00    +0.000 A 
ATOM      8  C   UNL     1      44.630   2.640   9.448  0.00  0.00    +0.000 A 
ATOM      9  F   UNL     1      43.788   2.070  10.328  0.00  0.00    +0.000 F 
BRANCH   6  10
ATOM     10  C   UNL     1      47.305   1.478   7.060  0.00  0.00    +0.000 C 
ATOM     11  N   UNL     1      48.368   2.024   6.393  0.00  0.00    +0.000 N 
ATOM     12  O   UNL     1      47.120   0.267   7.030  0.00  0.00    +0.000 OA
ATOM     13  H   UNL     1      48.608   3.001   6.367  0.00  0.00    +0.000 HD
ATOM     14  H   UNL     1      48.969   1.380   5.896  0.00  0.00    +0.000 HD
ENDBRANCH   6  10
ENDBRANCH   1   3
BRANCH   1  15
ATOM     15  C   UNL     1      44.353   5.779  10.933  0.00  0.00    +0.000 C 
BRANCH  15  17
ATOM     16  C   UNL     1      43.375   4.323  12.809  0.00  0.00    +0.000 C 
ATOM     17  C   UNL     1      44.522   5.110  12.257  0.00  0.00    +0.000 C 
BRANCH  17  18
ATOM     18  C   UNL     1      45.693   5.409  13.089  0.00  0.00    +0.000 A 
ATOM     19  C   UNL     1      46.442   6.564  12.847  0.00  0.00    +0.000 A 
ATOM     20  C   UNL     1      47.592   6.834  13.587  0.00  0.00    +0.000 A 
ATOM     21  C   UNL     1      47.997   5.961  14.594  0.00  0.00    +0.000 A 
ATOM     22  C   UNL     1      47.244   4.815  14.883  0.00  0.00    +0.000 A 
ATOM     23  C   UNL     1      46.097   4.546  14.118  0.00  0.00    +0.000 A 
BRANCH  22  24
ATOM     24  C   UNL     1      47.641   3.884  16.002  0.00  0.00    +0.000 C 
ATOM     25  F   UNL     1      46.677   3.727  16.952  0.00  0.00    +0.000 F 
ATOM     26  F   UNL     1      47.930   2.630  15.555  0.00  0.00    +0.000 F 
ATOM     27  F   UNL     1      48.752   4.307  16.665  0.00  0.00    +0.000 F 
ENDBRANCH  22  24
ENDBRANCH  17  18
ENDBRANCH  15  17
ENDBRANCH   1  15
TORSDOF 6
ENDMDL
MODEL 2
REMARK VINA RESULT:    -8.294      2.290      2.852
REMARK INTER + INTRA:         -12.252
REMARK INTER:                 -11.076
REMARK INTRA:                  -1.176
REMARK UNBOUND:                -1.049
REMARK  Name = 
REMARK  7 active torsions:
REMARK  status: ('A' for Active; 'I' for Inactive)
REMARK    1  A    between atoms: C_1  and  C_2
REMARK    2  A    between atoms: C_2  and  C_3
REMARK    3  A    between atoms: C_2  and  C_15
REMARK    4  A    between atoms: C_3  and  N_4
REMARK    5  A    between atoms: N_4  and  C_5
REMARK    6  A    between atoms: C_8  and  C_9
REMARK    7  A    between atoms: C_19  and  C_20
REMARK                            x       y       z     vdW  Elec       q    Type
REMARK                         _______ _______ _______ _____ _____    ______ ____
ROOT
ATOM      1  N   UNL     1      43.617   4.693  10.024  0.00  0.00    +0.000 N 
ATOM      2  H   UNL     1      42.875   5.069   9.429  0.00  0.00    +0.000 HD
ENDROOT
BRANCH   1   3
ATOM      3  C   UNL     1      44.525   3.947   9.247  0.00  0.00    +0.000 A 
ATOM      4  C   UNL     1      45.442   4.556   8.383  0.00  0.00    +0.000 A 
ATOM      5  C   UNL     1      46.363   3.806   7.651  0.00  0.00    +0.000 A 
ATOM      6  C   UNL     1      46.424   2.417   7.796  0.00  0.00    +0.000 A 
ATOM      7  C   UNL     1      45.550   1.792   8.694  0.00  0.00    +0.000 A 
ATOM      8  C   UNL     1      44.629   2.556   9.411  0.00  0.00    +0.000 A 
ATOM      9  F   UNL     1      43.800   1.927  10.264  0.00  0.00    +0.000 F 
BRANCH   6  10
ATOM     10  C   UNL     1      47.386   1.573   7.036  0.00  0.00    +0.000 C 
ATOM     11  N   UNL     1      48.507   2.161   6.516  0.00  0.00    +0.000 N 
ATOM     12  O   UNL     1      47.192   0.375   6.872  0.00  0.00    +0.000 OA
ATOM     13  H   UNL     1      48.759   3.131   6.606  0.00  0.00    +0.000 HD
ATOM     14  H   UNL     1      49.141   1.558   6.008  0.00  0.00    +0.000 HD
ENDBRANCH   6  10
ENDBRANCH   1   3
BRANCH   1  15
ATOM     15  C   UNL     1      44.189   5.699  10.909  0.00  0.00    +0.000 C 
BRANCH  15  17
ATOM     16  C   UNL     1      43.699   4.097  12.855  0.00  0.00    +0.000 C 
ATOM     17  C   UNL     1      44.648   5.019  12.157  0.00  0.00    +0.000 C 
BRANCH  17  18
ATOM     18  C   UNL     1      45.904   5.424  12.798  0.00  0.00    +0.000 A 
ATOM     19  C   UNL     1      46.294   4.829  14.002  0.00  0.00    +0.000 A 
ATOM     20  C   UNL     1      47.453   5.243  14.657  0.00  0.00    +0.000 A 
ATOM     21  C   UNL     1      48.250   6.244  14.104  0.00  0.00    +0.000 A 
ATOM     22  C   UNL     1      47.902   6.831  12.879  0.00  0.00    +0.000 A 
ATOM     23  C   UNL     1      46.721   6.417  12.239  0.00  0.00    +0.000 A 
BRANCH  22  24
ATOM     24  C   UNL     1      48.778   7.881  12.243  0.00  0.00    +0.000 C 
ATOM     25  F   UNL     1      48.083   8.831  11.555  0.00  0.00    +0.000 F 
ATOM     26  F   UNL     1      49.524   8.559  13.159  0.00  0.00    +0.000 F 
ATOM     27  F   UNL     1      49.667   7.354  11.356  0.00  0.00    +0.000 F 
ENDBRANCH  22  24
ENDBRANCH  17  18
ENDBRANCH  15  17
ENDBRANCH   1  15
TORSDOF 6
ENDMDL
MODEL 3
REMARK VINA RESULT:    -8.069      1.306      1.916
REMARK INTER + INTRA:         -11.949
REMARK INTER:                 -10.875
REMARK INTRA:                  -1.074
REMARK UNBOUND:                -1.049
REMARK  Name = 
REMARK  7 active torsions:
REMARK  status: ('A' for Active; 'I' for Inactive)
REMARK    1  A    between atoms: C_1  and  C_2
REMARK    2  A    between atoms: C_2  and  C_3
REMARK    3  A    between atoms: C_2  and  C_15
REMARK    4  A    between atoms: C_3  and  N_4
REMARK    5  A    between atoms: N_4  and  C_5
REMARK    6  A    between atoms: C_8  and  C_9
REMARK    7  A    between atoms: C_19  and  C_20
REMARK                            x       y       z     vdW  Elec       q    Type
REMARK                         _______ _______ _______ _____ _____    ______ ____
ROOT
ATOM      1  N   UNL     1      43.823   4.591  10.289  0.00  0.00    +0.000 N 
ATOM      2  H   UNL     1      42.934   4.791   9.827  0.00  0.00    +0.000 HD
ENDROOT
BRANCH   1   3
ATOM      3  C   UNL     1      44.687   3.919   9.401  0.00  0.00    +0.000 A 
ATOM      4  C   UNL     1      45.572   4.605   8.561  0.00  0.00    +0.000 A 
ATOM      5  C   UNL     1      46.450   3.926   7.716  0.00  0.00    +0.000 A 
ATOM      6  C   UNL     1      46.499   2.529   7.718  0.00  0.00    +0.000 A 
ATOM      7  C   UNL     1      45.659   1.823   8.588  0.00  0.00    +0.000 A 
ATOM      8  C   UNL     1      44.781   2.518   9.419  0.00  0.00    +0.000 A 
ATOM      9  F   UNL     1      43.983   1.813  10.242  0.00  0.00    +0.000 F 
BRANCH   6  10
ATOM     10  C   UNL     1      47.416   1.758   6.834  0.00  0.00    +0.000 C 
ATOM     11  N   UNL     1      48.479   2.406   6.265  0.00  0.00    +0.000 N 
ATOM     12  O   UNL     1      47.236   0.567   6.611  0.00  0.00    +0.000 OA
ATOM     13  H   UNL     1      48.717   3.375   6.395  0.00  0.00    +0.000 HD
ATOM     14  H   UNL     1      49.083   1.852   5.672  0.00  0.00    +0.000 HD
ENDBRANCH   6  10
ENDBRANCH   1   3
BRANCH   1  15
ATOM     15  C   UNL     1      44.372   5.752  10.977  0.00  0.00    +0.000 C 
BRANCH  15  17
ATOM     16  C   UNL     1      44.833   4.151  12.932  0.00  0.00    +0.000 C 
ATOM     17  C   UNL     1      45.291   5.270  12.051  0.00  0.00    +0.000 C 
BRANCH  17  18
ATOM     18  C   UNL     1      46.506   6.026  12.374  0.00  0.00    +0.000 A 
ATOM     19  C   UNL     1      47.134   6.789  11.385  0.00  0.00    +0.000 A 
ATOM     20  C   UNL     1      48.323   7.464  11.656  0.00  0.00    +0.000 A 
ATOM     21  C   UNL     1      48.889   7.403  12.928  0.00  0.00    +0.000 A 
ATOM     22  C   UNL     1      48.261   6.676  13.948  0.00  0.00    +0.000 A 
ATOM     23  C   UNL     1      47.072   5.984  13.657  0.00  0.00    +0.000 A 
BRANCH  22  24
ATOM     24  C   UNL     1      48.833   6.637  15.343  0.00  0.00    +0.000 C 
ATOM     25  F   UNL     1      50.195   6.640  15.377  0.00  0.00    +0.000 F 
ATOM     26  F   UNL     1      48.442   7.705  16.094  0.00  0.00    +0.000 F 
ATOM     27  F   UNL     1      48.445   5.533  16.038  0.00  0.00    +0.000 F 
ENDBRANCH  22  24
ENDBRANCH  17  18
ENDBRANCH  15  17
ENDBRANCH   1  15
TORSDOF 6
ENDMDL
MODEL 4
REMARK VINA RESULT:    -7.944      2.695      3.513
REMARK INTER + INTRA:         -11.780
REMARK INTER:                 -10.447
REMARK INTRA:                  -1.333
REMARK UNBOUND:                -1.049
REMARK  Name = 
REMARK  7 active torsions:
REMARK  status: ('A' for Active; 'I' for Inactive)
REMARK    1  A    between atoms: C_1  and  C_2
REMARK    2  A    between atoms: C_2  and  C_3
REMARK    3  A    between atoms: C_2  and  C_15
REMARK    4  A    between atoms: C_3  and  N_4
REMARK    5  A    between atoms: N_4  and  C_5
REMARK    6  A    between atoms: C_8  and  C_9
REMARK    7  A    between atoms: C_19  and  C_20
REMARK                            x       y       z     vdW  Elec       q    Type
REMARK                         _______ _______ _______ _____ _____    ______ ____
ROOT
ATOM      1  N   UNL     1      43.847   4.554  10.443  0.00  0.00    +0.000 N 
ATOM      2  H   UNL     1      43.901   5.549  10.213  0.00  0.00    +0.000 HD
ENDROOT
BRANCH   1   3
ATOM      3  C   UNL     1      44.716   3.821   9.610  0.00  0.00    +0.000 A 
ATOM      4  C   UNL     1      44.590   2.438   9.437  0.00  0.00    +0.000 A 
ATOM      5  C   UNL     1      45.432   1.731   8.577  0.00  0.00    +0.000 A 
ATOM      6  C   UNL     1      46.404   2.399   7.827  0.00  0.00    +0.000 A 
ATOM      7  C   UNL     1      46.514   3.790   7.946  0.00  0.00    +0.000 A 
ATOM      8  C   UNL     1      45.670   4.480   8.817  0.00  0.00    +0.000 A 
ATOM      9  F   UNL     1      45.800   5.815   8.913  0.00  0.00    +0.000 F 
BRANCH   6  10
ATOM     10  C   UNL     1      47.327   1.690   6.899  0.00  0.00    +0.000 C 
ATOM     11  N   UNL     1      48.397   2.374   6.387  0.00  0.00    +0.000 N 
ATOM     12  O   UNL     1      47.146   0.519   6.590  0.00  0.00    +0.000 OA
ATOM     13  H   UNL     1      48.636   3.330   6.588  0.00  0.00    +0.000 HD
ATOM     14  H   UNL     1      49.006   1.861   5.763  0.00  0.00    +0.000 HD
ENDBRANCH   6  10
ENDBRANCH   1   3
BRANCH   1  15
ATOM     15  C   UNL     1      43.950   4.302  11.874  0.00  0.00    +0.000 C 
BRANCH  15  17
ATOM     16  C   UNL     1      46.168   3.570  12.943  0.00  0.00    +0.000 C 
ATOM     17  C   UNL     1      45.337   4.643  12.312  0.00  0.00    +0.000 C 
BRANCH  17  18
ATOM     18  C   UNL     1      45.781   6.041  12.329  0.00  0.00    +0.000 A 
ATOM     19  C   UNL     1      44.856   7.061  12.568  0.00  0.00    +0.000 A 
ATOM     20  C   UNL     1      45.247   8.399  12.528  0.00  0.00    +0.000 A 
ATOM     21  C   UNL     1      46.575   8.732  12.270  0.00  0.00    +0.000 A 
ATOM     22  C   UNL     1      47.531   7.728  12.065  0.00  0.00    +0.000 A 
ATOM     23  C   UNL     1      47.119   6.384  12.089  0.00  0.00    +0.000 A 
BRANCH  22  24
ATOM     24  C   UNL     1      48.981   8.069  11.832  0.00  0.00    +0.000 C 
ATOM     25  F   UNL     1      49.561   7.346  10.832  0.00  0.00    +0.000 F 
ATOM     26  F   UNL     1      49.159   9.377  11.494  0.00  0.00    +0.000 F 
ATOM     27  F   UNL     1      49.751   7.863  12.936  0.00  0.00    +0.000 F 
ENDBRANCH  22  24
ENDBRANCH  17  18
ENDBRANCH  15  17
ENDBRANCH   1  15
TORSDOF 6
ENDMDL
MODEL 5
REMARK VINA RESULT:    -7.905      3.918      6.665
REMARK INTER + INTRA:         -11.727
REMARK INTER:                 -10.540
REMARK INTRA:                  -1.187
REMARK UNBOUND:                -1.049
REMARK  Name = 
REMARK  7 active torsions:
REMARK  status: ('A' for Active; 'I' for Inactive)
REMARK    1  A    between atoms: C_1  and  C_2
REMARK    2  A    between atoms: C_2  and  C_3
REMARK    3  A    between atoms: C_2  and  C_15
REMARK    4  A    between atoms: C_3  and  N_4
REMARK    5  A    between atoms: N_4  and  C_5
REMARK    6  A    between atoms: C_8  and  C_9
REMARK    7  A    between atoms: C_19  and  C_20
REMARK                            x       y       z     vdW  Elec       q    Type
REMARK                         _______ _______ _______ _____ _____    ______ ____
ROOT
ATOM      1  N   UNL     1      43.398   4.969  12.554  0.00  0.00    +0.000 N 
ATOM      2  H   UNL     1      43.164   4.170  13.146  0.00  0.00    +0.000 HD
ENDROOT
BRANCH   1   3
ATOM      3  C   UNL     1      44.705   5.414  12.841  0.00  0.00    +0.000 A 
ATOM      4  C   UNL     1      45.624   4.622  13.538  0.00  0.00    +0.000 A 
ATOM      5  C   UNL     1      46.927   5.060  13.779  0.00  0.00    +0.000 A 
ATOM      6  C   UNL     1      47.365   6.293  13.287  0.00  0.00    +0.000 A 
ATOM      7  C   UNL     1      46.477   7.078  12.543  0.00  0.00    +0.000 A 
ATOM      8  C   UNL     1      45.175   6.630  12.319  0.00  0.00    +0.000 A 
ATOM      9  F   UNL     1      44.343   7.408  11.603  0.00  0.00    +0.000 F 
BRANCH   6  10
ATOM     10  C   UNL     1      48.743   6.804  13.520  0.00  0.00    +0.000 C 
ATOM     11  N   UNL     1      49.591   6.917  12.451  0.00  0.00    +0.000 N 
ATOM     12  O   UNL     1      49.126   7.121  14.640  0.00  0.00    +0.000 OA
ATOM     13  H   UNL     1      49.368   6.693  11.495  0.00  0.00    +0.000 HD
ATOM     14  H   UNL     1      50.519   7.271  12.644  0.00  0.00    +0.000 HD
ENDBRANCH   6  10
ENDBRANCH   1   3
BRANCH   1  15
ATOM     15  C   UNL     1      43.082   4.740  11.151  0.00  0.00    +0.000 C 
BRANCH  15  17
ATOM     16  C   UNL     1      43.567   2.248  11.537  0.00  0.00    +0.000 C 
ATOM     17  C   UNL     1      43.761   3.484  10.715  0.00  0.00    +0.000 C 
BRANCH  17  18
ATOM     18  C   UNL     1      44.767   3.522   9.648  0.00  0.00    +0.000 A 
ATOM     19  C   UNL     1      45.225   4.752   9.167  0.00  0.00    +0.000 A 
ATOM     20  C   UNL     1      46.134   4.809   8.112  0.00  0.00    +0.000 A 
ATOM     21  C   UNL     1      46.614   3.634   7.537  0.00  0.00    +0.000 A 
ATOM     22  C   UNL     1      46.200   2.387   8.024  0.00  0.00    +0.000 A 
ATOM     23  C   UNL     1      45.269   2.344   9.076  0.00  0.00    +0.000 A 
BRANCH  22  24
ATOM     24  C   UNL     1      46.746   1.105   7.446  0.00  0.00    +0.000 C 
ATOM     25  F   UNL     1      46.226  -0.018   8.016  0.00  0.00    +0.000 F 
ATOM     26  F   UNL     1      46.499   0.992   6.111  0.00  0.00    +0.000 F 
ATOM     27  F   UNL     1      48.097   1.002   7.584  0.00  0.00    +0.000 F 
ENDBRANCH  22  24
ENDBRANCH  17  18
ENDBRANCH  15  17
ENDBRANCH   1  15
TORSDOF 6
ENDMDL
MODEL 6
REMARK VINA RESULT:    -7.793      3.301      6.599
REMARK INTER + INTRA:         -11.576
REMARK INTER:                 -10.240
REMARK INTRA:                  -1.336
REMARK UNBOUND:                -1.049
REMARK  Name = 
REMARK  7 active torsions:
REMARK  status: ('A' for Active; 'I' for Inactive)
REMARK    1  A    between atoms: C_1  and  C_2
REMARK    2  A    between atoms: C_2  and  C_3
REMARK    3  A    between atoms: C_2  and  C_15
REMARK    4  A    between atoms: C_3  and  N_4
REMARK    5  A    between atoms: N_4  and  C_5
REMARK    6  A    between atoms: C_8  and  C_9
REMARK    7  A    between atoms: C_19  and  C_20
REMARK                            x       y       z     vdW  Elec       q    Type
REMARK                         _______ _______ _______ _____ _____    ______ ____
ROOT
ATOM      1  N   UNL     1      43.754   4.753  12.732  0.00  0.00    +0.000 N 
ATOM      2  H   UNL     1      43.694   3.880  13.261  0.00  0.00    +0.000 HD
ENDROOT
BRANCH   1   3
ATOM      3  C   UNL     1      45.049   5.297  12.844  0.00  0.00    +0.000 A 
ATOM      4  C   UNL     1      45.286   6.675  12.787  0.00  0.00    +0.000 A 
ATOM      5  C   UNL     1      46.569   7.201  12.941  0.00  0.00    +0.000 A 
ATOM      6  C   UNL     1      47.655   6.360  13.202  0.00  0.00    +0.000 A 
ATOM      7  C   UNL     1      47.433   4.983  13.314  0.00  0.00    +0.000 A 
ATOM      8  C   UNL     1      46.144   4.472  13.149  0.00  0.00    +0.000 A 
ATOM      9  F   UNL     1      45.962   3.144  13.259  0.00  0.00    +0.000 F 
BRANCH   6  10
ATOM     10  C   UNL     1      49.042   6.873  13.371  0.00  0.00    +0.000 C 
ATOM     11  N   UNL     1      49.732   7.280  12.261  0.00  0.00    +0.000 N 
ATOM     12  O   UNL     1      49.569   6.934  14.475  0.00  0.00    +0.000 OA
ATOM     13  H   UNL     1      49.383   7.279  11.317  0.00  0.00    +0.000 HD
ATOM     14  H   UNL     1      50.671   7.626  12.413  0.00  0.00    +0.000 HD
ENDBRANCH   6  10
ENDBRANCH   1   3
BRANCH   1  15
ATOM     15  C   UNL     1      43.214   4.630  11.384  0.00  0.00    +0.000 C 
BRANCH  15  17
ATOM     16  C   UNL     1      43.464   2.074  11.434  0.00  0.00    +0.000 C 
ATOM     17  C   UNL     1      43.762   3.382  10.772  0.00  0.00    +0.000 C 
BRANCH  17  18
ATOM     18  C   UNL     1      44.748   3.465   9.689  0.00  0.00    +0.000 A 
ATOM     19  C   UNL     1      45.164   4.714   9.221  0.00  0.00    +0.000 A 
ATOM     20  C   UNL     1      46.054   4.813   8.152  0.00  0.00    +0.000 A 
ATOM     21  C   UNL     1      46.555   3.661   7.550  0.00  0.00    +0.000 A 
ATOM     22  C   UNL     1      46.184   2.395   8.024  0.00  0.00    +0.000 A 
ATOM     23  C   UNL     1      45.272   2.310   9.090  0.00  0.00    +0.000 A 
BRANCH  22  24
ATOM     24  C   UNL     1      46.754   1.139   7.416  0.00  0.00    +0.000 C 
ATOM     25  F   UNL     1      46.551   1.039   6.072  0.00  0.00    +0.000 F 
ATOM     26  F   UNL     1      48.101   1.041   7.595  0.00  0.00    +0.000 F 
ATOM     27  F   UNL     1      46.225   0.008   7.958  0.00  0.00    +0.000 F 
ENDBRANCH  22  24
ENDBRANCH  17  18
ENDBRANCH  15  17
ENDBRANCH   1  15
TORSDOF 6
ENDMDL
MODEL 7
REMARK VINA RESULT:    -7.192      3.641      7.205
REMARK INTER + INTRA:         -10.763
REMARK INTER:                 -10.068
REMARK INTRA:                  -0.695
REMARK UNBOUND:                -1.049
REMARK  Name = 
REMARK  7 active torsions:
REMARK  status: ('A' for Active; 'I' for Inactive)
REMARK    1  A    between atoms: C_1  and  C_2
REMARK    2  A    between atoms: C_2  and  C_3
REMARK    3  A    between atoms: C_2  and  C_15
REMARK    4  A    between atoms: C_3  and  N_4
REMARK    5  A    between atoms: N_4  and  C_5
REMARK    6  A    between atoms: C_8  and  C_9
REMARK    7  A    between atoms: C_19  and  C_20
REMARK                            x       y       z     vdW  Elec       q    Type
REMARK                         _______ _______ _______ _____ _____    ______ ____
ROOT
ATOM      1  N   UNL     1      46.340   5.844  11.381  0.00  0.00    +0.000 N 
ATOM      2  H   UNL     1      47.034   6.220  10.731  0.00  0.00    +0.000 HD
ENDROOT
BRANCH   1   3
ATOM      3  C   UNL     1      46.901   5.726  12.668  0.00  0.00    +0.000 A 
ATOM      4  C   UNL     1      47.701   6.730  13.227  0.00  0.00    +0.000 A 
ATOM      5  C   UNL     1      48.216   6.617  14.518  0.00  0.00    +0.000 A 
ATOM      6  C   UNL     1      47.908   5.508  15.312  0.00  0.00    +0.000 A 
ATOM      7  C   UNL     1      47.067   4.516  14.792  0.00  0.00    +0.000 A 
ATOM      8  C   UNL     1      46.568   4.641  13.495  0.00  0.00    +0.000 A 
ATOM      9  F   UNL     1      45.766   3.671  13.021  0.00  0.00    +0.000 F 
BRANCH   6  10
ATOM     10  C   UNL     1      48.434   5.340  16.694  0.00  0.00    +0.000 C 
ATOM     11  N   UNL     1      47.590   5.557  17.750  0.00  0.00    +0.000 N 
ATOM     12  O   UNL     1      49.597   5.015  16.899  0.00  0.00    +0.000 OA
ATOM     13  H   UNL     1      46.619   5.815  17.685  0.00  0.00    +0.000 HD
ATOM     14  H   UNL     1      47.980   5.432  18.675  0.00  0.00    +0.000 HD
ENDBRANCH   6  10
ENDBRANCH   1   3
BRANCH   1  15
ATOM     15  C   UNL     1      45.057   6.529  11.290  0.00  0.00    +0.000 C 
BRANCH  15  17
ATOM     16  C   UNL     1      42.649   5.656  11.485  0.00  0.00    +0.000 C 
ATOM     17  C   UNL     1      44.019   5.530  10.896  0.00  0.00    +0.000 C 
BRANCH  17  18
ATOM     18  C   UNL     1      44.398   4.334  10.136  0.00  0.00    +0.000 A 
ATOM     19  C   UNL     1      43.895   3.084  10.509  0.00  0.00    +0.000 A 
ATOM     20  C   UNL     1      44.292   1.928   9.837  0.00  0.00    +0.000 A 
ATOM     21  C   UNL     1      45.182   2.011   8.768  0.00  0.00    +0.000 A 
ATOM     22  C   UNL     1      45.672   3.255   8.349  0.00  0.00    +0.000 A 
ATOM     23  C   UNL     1      45.278   4.410   9.047  0.00  0.00    +0.000 A 
BRANCH  22  24
ATOM     24  C   UNL     1      46.598   3.368   7.164  0.00  0.00    +0.000 C 
ATOM     25  F   UNL     1      46.046   2.939   5.994  0.00  0.00    +0.000 F 
ATOM     26  F   UNL     1      46.995   4.651   6.937  0.00  0.00    +0.000 F 
ATOM     27  F   UNL     1      47.742   2.648   7.323  0.00  0.00    +0.000 F 
ENDBRANCH  22  24
ENDBRANCH  17  18
ENDBRANCH  15  17
ENDBRANCH   1  15
TORSDOF 6
ENDMDL
MODEL 8
REMARK VINA RESULT:    -6.850      3.580      7.136
REMARK INTER + INTRA:         -10.302
REMARK INTER:                  -9.027
REMARK INTRA:                  -1.275
REMARK UNBOUND:                -1.049
REMARK  Name = 
REMARK  7 active torsions:
REMARK  status: ('A' for Active; 'I' for Inactive)
REMARK    1  A    between atoms: C_1  and  C_2
REMARK    2  A    between atoms: C_2  and  C_3
REMARK    3  A    between atoms: C_2  and  C_15
REMARK    4  A    between atoms: C_3  and  N_4
REMARK    5  A    between atoms: N_4  and  C_5
REMARK    6  A    between atoms: C_8  and  C_9
REMARK    7  A    between atoms: C_19  and  C_20
REMARK                            x       y       z     vdW  Elec       q    Type
REMARK                         _______ _______ _______ _____ _____    ______ ____
ROOT
ATOM      1  N   UNL     1      47.152   6.080  12.757  0.00  0.00    +0.000 N 
ATOM      2  H   UNL     1      47.996   6.284  12.217  0.00  0.00    +0.000 HD
ENDROOT
BRANCH   1   3
ATOM      3  C   UNL     1      47.501   5.510  13.998  0.00  0.00    +0.000 A 
ATOM      4  C   UNL     1      48.102   6.256  15.018  0.00  0.00    +0.000 A 
ATOM      5  C   UNL     1      48.404   5.688  16.256  0.00  0.00    +0.000 A 
ATOM      6  C   UNL     1      48.072   4.357  16.526  0.00  0.00    +0.000 A 
ATOM      7  C   UNL     1      47.424   3.607  15.538  0.00  0.00    +0.000 A 
ATOM      8  C   UNL     1      47.137   4.188  14.302  0.00  0.00    +0.000 A 
ATOM      9  F   UNL     1      46.517   3.442  13.371  0.00  0.00    +0.000 F 
BRANCH   6  10
ATOM     10  C   UNL     1      48.376   3.704  17.829  0.00  0.00    +0.000 C 
ATOM     11  N   UNL     1      47.430   2.891  18.393  0.00  0.00    +0.000 N 
ATOM     12  O   UNL     1      49.446   3.883  18.398  0.00  0.00    +0.000 OA
ATOM     13  H   UNL     1      46.529   2.674  18.000  0.00  0.00    +0.000 HD
ATOM     14  H   UNL     1      47.671   2.461  19.277  0.00  0.00    +0.000 HD
ENDBRANCH   6  10
ENDBRANCH   1   3
BRANCH   1  15
ATOM     15  C   UNL     1      46.226   7.204  12.795  0.00  0.00    +0.000 C 
BRANCH  15  17
ATOM     16  C   UNL     1      44.444   8.117  11.186  0.00  0.00    +0.000 C 
ATOM     17  C   UNL     1      45.133   6.945  11.810  0.00  0.00    +0.000 C 
BRANCH  17  18
ATOM     18  C   UNL     1      44.603   5.588  11.638  0.00  0.00    +0.000 A 
ATOM     19  C   UNL     1      43.780   5.033  12.621  0.00  0.00    +0.000 A 
ATOM     20  C   UNL     1      43.316   3.723  12.505  0.00  0.00    +0.000 A 
ATOM     21  C   UNL     1      43.654   2.958  11.390  0.00  0.00    +0.000 A 
ATOM     22  C   UNL     1      44.448   3.502  10.371  0.00  0.00    +0.000 A 
ATOM     23  C   UNL     1      44.923   4.817  10.510  0.00  0.00    +0.000 A 
BRANCH  22  24
ATOM     24  C   UNL     1      44.783   2.705   9.136  0.00  0.00    +0.000 C 
ATOM     25  F   UNL     1      46.121   2.586   8.907  0.00  0.00    +0.000 F 
ATOM     26  F   UNL     1      44.302   1.432   9.194  0.00  0.00    +0.000 F 
ATOM     27  F   UNL     1      44.257   3.249   8.003  0.00  0.00    +0.000 F 
ENDBRANCH  22  24
ENDBRANCH  17  18
ENDBRANCH  15  17
ENDBRANCH   1  15
TORSDOF 6
ENDMDL
MODEL 9
REMARK VINA RESULT:    -6.831      4.253      6.924
REMARK INTER + INTRA:         -10.276
REMARK INTER:                  -9.181
REMARK INTRA:                  -1.095
REMARK UNBOUND:                -1.049
REMARK  Name = 
REMARK  7 active torsions:
REMARK  status: ('A' for Active; 'I' for Inactive)
REMARK    1  A    between atoms: C_1  and  C_2
REMARK    2  A    between atoms: C_2  and  C_3
REMARK    3  A    between atoms: C_2  and  C_15
REMARK    4  A    between atoms: C_3  and  N_4
REMARK    5  A    between atoms: N_4  and  C_5
REMARK    6  A    between atoms: C_8  and  C_9
REMARK    7  A    between atoms: C_19  and  C_20
REMARK                            x       y       z     vdW  Elec       q    Type
REMARK                         _______ _______ _______ _____ _____    ______ ____
ROOT
ATOM      1  N   UNL     1      44.956   6.649  13.223  0.00  0.00    +0.000 N 
ATOM      2  H   UNL     1      44.750   6.889  14.195  0.00  0.00    +0.000 HD
ENDROOT
BRANCH   1   3
ATOM      3  C   UNL     1      46.256   7.079  12.887  0.00  0.00    +0.000 A 
ATOM      4  C   UNL     1      47.350   6.206  12.879  0.00  0.00    +0.000 A 
ATOM      5  C   UNL     1      48.623   6.638  12.504  0.00  0.00    +0.000 A 
ATOM      6  C   UNL     1      48.832   7.954  12.083  0.00  0.00    +0.000 A 
ATOM      7  C   UNL     1      47.741   8.831  12.035  0.00  0.00    +0.000 A 
ATOM      8  C   UNL     1      46.476   8.385  12.422  0.00  0.00    +0.000 A 
ATOM      9  F   UNL     1      45.448   9.251  12.368  0.00  0.00    +0.000 F 
BRANCH   6  10
ATOM     10  C   UNL     1      50.170   8.463  11.677  0.00  0.00    +0.000 C 
ATOM     11  N   UNL     1      51.171   7.560  11.437  0.00  0.00    +0.000 N 
ATOM     12  O   UNL     1      50.387   9.663  11.556  0.00  0.00    +0.000 OA
ATOM     13  H   UNL     1      51.089   6.559  11.498  0.00  0.00    +0.000 HD
ATOM     14  H   UNL     1      52.067   7.940  11.159  0.00  0.00    +0.000 HD
ENDBRANCH   6  10
ENDBRANCH   1   3
BRANCH   1  15
ATOM     15  C   UNL     1      44.626   5.266  12.904  0.00  0.00    +0.000 C 
BRANCH  15  17
ATOM     16  C   UNL     1      42.839   6.152  11.286  0.00  0.00    +0.000 C 
ATOM     17  C   UNL     1      43.991   5.235  11.553  0.00  0.00    +0.000 C 
BRANCH  17  18
ATOM     18  C   UNL     1      44.341   4.177  10.599  0.00  0.00    +0.000 A 
ATOM     19  C   UNL     1      43.788   2.901  10.741  0.00  0.00    +0.000 A 
ATOM     20  C   UNL     1      44.155   1.867   9.881  0.00  0.00    +0.000 A 
ATOM     21  C   UNL     1      45.065   2.102   8.853  0.00  0.00    +0.000 A 
ATOM     22  C   UNL     1      45.606   3.381   8.664  0.00  0.00    +0.000 A 
ATOM     23  C   UNL     1      45.241   4.409   9.549  0.00  0.00    +0.000 A 
BRANCH  22  24
ATOM     24  C   UNL     1      46.555   3.664   7.527  0.00  0.00    +0.000 C 
ATOM     25  F   UNL     1      45.958   3.664   6.302  0.00  0.00    +0.000 F 
ATOM     26  F   UNL     1      47.157   4.880   7.645  0.00  0.00    +0.000 F 
ATOM     27  F   UNL     1      47.565   2.755   7.449  0.00  0.00    +0.000 F 
ENDBRANCH  22  24
ENDBRANCH  17  18
ENDBRANCH  15  17
ENDBRANCH   1  15
TORSDOF 6
ENDMDL
