MODEL 1
REMARK VINA RESULT:    -8.103      0.000      0.000
REMARK INTER + INTRA:         -11.396
REMARK INTER:                 -10.472
REMARK INTRA:                  -0.924
REMARK UNBOUND:                -0.924
REMARK  Name = 
REMARK  6 active torsions:
REMARK  status: ('A' for Active; 'I' for Inactive)
REMARK    1  A    between atoms: C_1  and  C_2
REMARK    2  A    between atoms: C_2  and  C_3
REMARK    3  A    between atoms: C_2  and  C_14
REMARK    4  A    between atoms: C_3  and  O_4
REMARK    5  A    between atoms: O_4  and  C_5
REMARK    6  A    between atoms: C_8  and  C_9
REMARK                            x       y       z     vdW  Elec       q    Type
REMARK                         _______ _______ _______ _____ _____    ______ ____
ROOT
ATOM      1  O   UNL     1      43.399   3.442  10.358  0.00  0.00    +0.000 OA
ENDROOT
BRANCH   1   2
ATOM      2  C   UNL     1      44.397   3.149   9.446  0.00  0.00    +0.000 A 
ATOM      3  C   UNL     1      44.928   4.200   8.718  0.00  0.00    +0.000 A 
ATOM      4  C   UNL     1      45.944   3.917   7.798  0.00  0.00    +0.000 A 
ATOM      5  C   UNL     1      46.395   2.603   7.638  0.00  0.00    +0.000 A 
ATOM      6  C   UNL     1      45.792   1.627   8.414  0.00  0.00    +0.000 A 
ATOM      7  N   UNL     1      44.808   1.869   9.310  0.00  0.00    +0.000 NA
BRANCH   5   8
ATOM      8  C   UNL     1      47.476   2.309   6.667  0.00  0.00    +0.000 C 
ATOM      9  N   UNL     1      47.537   3.025   5.502  0.00  0.00    +0.000 N 
ATOM     10  O   UNL     1      48.306   1.437   6.893  0.00  0.00    +0.000 OA
ATOM     11  H   UNL     1      46.911   3.760   5.216  0.00  0.00    +0.000 HD
ATOM     12  H   UNL     1      48.292   2.789   4.868  0.00  0.00    +0.000 HD
ENDBRANCH   5   8
ENDBRANCH   1   2
BRANCH   1  13
ATOM     13  C   UNL     1      43.806   3.140  11.702  0.00  0.00    +0.000 C 
BRANCH  13  15
ATOM     14  C   UNL     1      42.698   5.386  12.092  0.00  0.00    +0.000 C 
ATOM     15  C   UNL     1      43.764   4.400  12.585  0.00  0.00    +0.000 C 
BRANCH  15  16
ATOM     16  C   UNL     1      45.108   5.116  12.681  0.00  0.00    +0.000 A 
ATOM     17  C   UNL     1      45.427   6.102  11.732  0.00  0.00    +0.000 A 
ATOM     18  C   UNL     1      46.678   6.727  11.741  0.00  0.00    +0.000 A 
ATOM     19  C   UNL     1      47.623   6.373  12.698  0.00  0.00    +0.000 A 
ATOM     20 CL   UNL     1      49.175   7.114  12.688  0.00  0.00    +0.000 Cl
ATOM     21  C   UNL     1      47.324   5.408  13.655  0.00  0.00    +0.000 A 
ATOM     22  C   UNL     1      46.075   4.781  13.644  0.00  0.00    +0.000 A 
ENDBRANCH  15  16
ENDBRANCH  13  15
ENDBRANCH   1  13
TORSDOF 5
ENDMDL
MODEL 2
REMARK VINA RESULT:    -7.387      1.626      2.343
REMARK INTER + INTRA:         -10.470
REMARK INTER:                 -10.026
REMARK INTRA:                  -0.444
REMARK UNBOUND:                -0.924
REMARK  Name = 
REMARK  6 active torsions:
REMARK  status: ('A' for Active; 'I' for Inactive)
REMARK    1  A    between atoms: C_1  and  C_2
REMARK    2  A    between atoms: C_2  and  C_3
REMARK    3  A    between atoms: C_2  and  C_14
REMARK    4  A    between atoms: C_3  and  O_4
REMARK    5  A    between atoms: O_4  and  C_5
REMARK    6  A    between atoms: C_8  and  C_9
REMARK                            x       y       z     vdW  Elec       q    Type
REMARK                         _______ _______ _______ _____ _____    ______ ____
ROOT
ATOM      1  O   UNL     1      43.661   4.739   9.864  0.00  0.00    +0.000 OA
ENDROOT
BRANCH   1   2
ATOM      2  C   UNL     1      44.579   3.969   9.172  0.00  0.00    +0.000 A 
ATOM      3  C   UNL     1      44.570   2.604   9.401  0.00  0.00    +0.000 A 
ATOM      4  C   UNL     1      45.488   1.812   8.701  0.00  0.00    +0.000 A 
ATOM      5  C   UNL     1      46.378   2.407   7.800  0.00  0.00    +0.000 A 
ATOM      6  C   UNL     1      46.303   3.782   7.650  0.00  0.00    +0.000 A 
ATOM      7  N   UNL     1      45.428   4.573   8.313  0.00  0.00    +0.000 NA
BRANCH   5   8
ATOM      8  C   UNL     1      47.345   1.564   7.057  0.00  0.00    +0.000 C 
ATOM      9  N   UNL     1      48.478   2.141   6.549  0.00  0.00    +0.000 N 
ATOM     10  O   UNL     1      47.140   0.368   6.890  0.00  0.00    +0.000 OA
ATOM     11  H   UNL     1      48.746   3.108   6.627  0.00  0.00    +0.000 HD
ATOM     12  H   UNL     1      49.109   1.527   6.049  0.00  0.00    +0.000 HD
ENDBRANCH   5   8
ENDBRANCH   1   2
BRANCH   1  13
ATOM     13  C   UNL     1      43.874   4.668  11.283  0.00  0.00    +0.000 C 
BRANCH  13  15
ATOM     14  C   UNL     1      45.723   4.085  12.915  0.00  0.00    +0.000 C 
ATOM     15  C   UNL     1      45.367   4.828  11.622  0.00  0.00    +0.000 C 
BRANCH  15  16
ATOM     16  C   UNL     1      45.808   6.283  11.737  0.00  0.00    +0.000 A 
ATOM     17  C   UNL     1      47.177   6.575  11.856  0.00  0.00    +0.000 A 
ATOM     18  C   UNL     1      47.617   7.890  12.039  0.00  0.00    +0.000 A 
ATOM     19  C   UNL     1      46.692   8.927  12.106  0.00  0.00    +0.000 A 
ATOM     20 CL   UNL     1      47.227  10.540  12.370  0.00  0.00    +0.000 Cl
ATOM     21  C   UNL     1      45.331   8.662  11.980  0.00  0.00    +0.000 A 
ATOM     22  C   UNL     1      44.892   7.347  11.799  0.00  0.00    +0.000 A 
ENDBRANCH  15  16
ENDBRANCH  13  15
ENDBRANCH   1  13
TORSDOF 5
ENDMDL
MODEL 3
REMARK VINA RESULT:    -7.045      3.537      5.730
REMARK INTER + INTRA:         -10.028
REMARK INTER:                  -9.228
REMARK INTRA:                  -0.800
REMARK UNBOUND:                -0.924
REMARK  Name = 
REMARK  6 active torsions:
REMARK  status: ('A' for Active; 'I' for Inactive)
REMARK    1  A    between atoms: C_1  and  C_2
REMARK    2  A    between atoms: C_2  and  C_3
REMARK    3  A    between atoms: C_2  and  C_14
REMARK    4  A    between atoms: C_3  and  O_4
REMARK    5  A    between atoms: O_4  and  C_5
REMARK    6  A    between atoms: C_8  and  C_9
REMARK                            x       y       z     vdW  Elec       q    Type
REMARK                         _______ _______ _______ _____ _____    ______ ____
ROOT
ATOM      1  O   UNL     1      43.835   5.376  12.583  0.00  0.00    +0.000 OA
ENDROOT
BRANCH   1   2
ATOM      2  C   UNL     1      45.158   5.733  12.769  0.00  0.00    +0.000 A 
ATOM      3  C   UNL     1      45.648   6.788  12.019  0.00  0.00    +0.000 A 
ATOM      4  C   UNL     1      46.983   7.165  12.205  0.00  0.00    +0.000 A 
ATOM      5  C   UNL     1      47.779   6.482  13.130  0.00  0.00    +0.000 A 
ATOM      6  C   UNL     1      47.189   5.439  13.825  0.00  0.00    +0.000 A 
ATOM      7  N   UNL     1      45.903   5.051  13.666  0.00  0.00    +0.000 NA
BRANCH   5   8
ATOM      8  C   UNL     1      49.191   6.888  13.328  0.00  0.00    +0.000 C 
ATOM      9  N   UNL     1      49.957   7.190  12.234  0.00  0.00    +0.000 N 
ATOM     10  O   UNL     1      49.677   6.952  14.451  0.00  0.00    +0.000 OA
ATOM     11  H   UNL     1      49.662   7.172  11.272  0.00  0.00    +0.000 HD
ATOM     12  H   UNL     1      50.915   7.462  12.418  0.00  0.00    +0.000 HD
ENDBRANCH   5   8
ENDBRANCH   1   2
BRANCH   1  13
ATOM     13  C   UNL     1      43.500   5.300  11.188  0.00  0.00    +0.000 C 
BRANCH  13  15
ATOM     14  C   UNL     1      43.496   2.871  11.910  0.00  0.00    +0.000 C 
ATOM     15  C   UNL     1      43.419   3.836  10.721  0.00  0.00    +0.000 C 
BRANCH  15  16
ATOM     16  C   UNL     1      44.489   3.466   9.700  0.00  0.00    +0.000 A 
ATOM     17  C   UNL     1      45.105   4.485   8.954  0.00  0.00    +0.000 A 
ATOM     18  C   UNL     1      46.036   4.181   7.956  0.00  0.00    +0.000 A 
ATOM     19  C   UNL     1      46.362   2.854   7.693  0.00  0.00    +0.000 A 
ATOM     20 CL   UNL     1      47.478   2.476   6.441  0.00  0.00    +0.000 Cl
ATOM     21  C   UNL     1      45.773   1.829   8.427  0.00  0.00    +0.000 A 
ATOM     22  C   UNL     1      44.840   2.133   9.423  0.00  0.00    +0.000 A 
ENDBRANCH  15  16
ENDBRANCH  13  15
ENDBRANCH   1  13
TORSDOF 5
ENDMDL
MODEL 4
REMARK VINA RESULT:    -6.834      3.902      6.206
REMARK INTER + INTRA:          -9.756
REMARK INTER:                  -8.968
REMARK INTRA:                  -0.788
REMARK UNBOUND:                -0.924
REMARK  Name = 
REMARK  6 active torsions:
REMARK  status: ('A' for Active; 'I' for Inactive)
REMARK    1  A    between atoms: C_1  and  C_2
REMARK    2  A    between atoms: C_2  and  C_3
REMARK    3  A    between atoms: C_2  and  C_14
REMARK    4  A    between atoms: C_3  and  O_4
REMARK    5  A    between atoms: O_4  and  C_5
REMARK    6  A    between atoms: C_8  and  C_9
REMARK                            x       y       z     vdW  Elec       q    Type
REMARK                         _______ _______ _______ _____ _____    ______ ____
ROOT
ATOM      1  O   UNL     1      45.260   4.705  12.393  0.00  0.00    +0.000 OA
ENDROOT
BRANCH   1   2
ATOM      2  C   UNL     1      46.348   5.535  12.594  0.00  0.00    +0.000 A 
ATOM      3  C   UNL     1      46.693   6.399  11.569  0.00  0.00    +0.000 A 
ATOM      4  C   UNL     1      47.787   7.250  11.763  0.00  0.00    +0.000 A 
ATOM      5  C   UNL     1      48.495   7.212  12.969  0.00  0.00    +0.000 A 
ATOM      6  C   UNL     1      48.067   6.307  13.927  0.00  0.00    +0.000 A 
ATOM      7  N   UNL     1      47.015   5.472  13.768  0.00  0.00    +0.000 NA
BRANCH   5   8
ATOM      8  C   UNL     1      49.650   8.119  13.173  0.00  0.00    +0.000 C 
ATOM      9  N   UNL     1      50.689   7.707  13.963  0.00  0.00    +0.000 N 
ATOM     10  O   UNL     1      49.681   9.226  12.649  0.00  0.00    +0.000 OA
ATOM     11  H   UNL     1      50.768   6.823  14.438  0.00  0.00    +0.000 HD
ATOM     12  H   UNL     1      51.456   8.360  14.074  0.00  0.00    +0.000 HD
ENDBRANCH   5   8
ENDBRANCH   1   2
BRANCH   1  13
ATOM     13  C   UNL     1      44.411   5.194  11.343  0.00  0.00    +0.000 C 
BRANCH  13  15
ATOM     14  C   UNL     1      43.416   2.865  11.444  0.00  0.00    +0.000 C 
ATOM     15  C   UNL     1      43.817   4.029  10.530  0.00  0.00    +0.000 C 
BRANCH  15  16
ATOM     16  C   UNL     1      44.750   3.515   9.439  0.00  0.00    +0.000 A 
ATOM     17  C   UNL     1      44.982   2.133   9.331  0.00  0.00    +0.000 A 
ATOM     18  C   UNL     1      45.889   1.629   8.393  0.00  0.00    +0.000 A 
ATOM     19  C   UNL     1      46.573   2.501   7.553  0.00  0.00    +0.000 A 
ATOM     20 CL   UNL     1      47.716   1.887   6.424  0.00  0.00    +0.000 Cl
ATOM     21  C   UNL     1      46.351   3.873   7.634  0.00  0.00    +0.000 A 
ATOM     22  C   UNL     1      45.446   4.377   8.574  0.00  0.00    +0.000 A 
ENDBRANCH  15  16
ENDBRANCH  13  15
ENDBRANCH   1  13
TORSDOF 5
ENDMDL
MODEL 5
REMARK VINA RESULT:    -6.747      4.066      6.721
REMARK INTER + INTRA:          -9.643
REMARK INTER:                  -9.067
REMARK INTRA:                  -0.577
REMARK UNBOUND:                -0.924
REMARK  Name = 
REMARK  6 active torsions:
REMARK  status: ('A' for Active; 'I' for Inactive)
REMARK    1  A    between atoms: C_1  and  C_2
REMARK    2  A    between atoms: C_2  and  C_3
REMARK    3  A    between atoms: C_2  and  C_14
REMARK    4  A    between atoms: C_3  and  O_4
REMARK    5  A    between atoms: O_4  and  C_5
REMARK    6  A    between atoms: C_8  and  C_9
REMARK                            x       y       z     vdW  Elec       q    Type
REMARK                         _______ _______ _______ _____ _____    ______ ____
ROOT
ATOM      1  O   UNL     1      45.456   3.748  12.733  0.00  0.00    +0.000 OA
ENDROOT
BRANCH   1   2
ATOM      2  C   UNL     1      46.346   4.426  13.547  0.00  0.00    +0.000 A 
ATOM      3  C   UNL     1      46.937   5.569  13.036  0.00  0.00    +0.000 A 
ATOM      4  C   UNL     1      47.833   6.269  13.852  0.00  0.00    +0.000 A 
ATOM      5  C   UNL     1      48.106   5.808  15.145  0.00  0.00    +0.000 A 
ATOM      6  C   UNL     1      47.463   4.651  15.554  0.00  0.00    +0.000 A 
ATOM      7  N   UNL     1      46.593   3.953  14.787  0.00  0.00    +0.000 NA
BRANCH   5   8
ATOM      8  C   UNL     1      49.051   6.555  16.008  0.00  0.00    +0.000 C 
ATOM      9  N   UNL     1      48.580   7.589  16.772  0.00  0.00    +0.000 N 
ATOM     10  O   UNL     1      50.240   6.262  16.042  0.00  0.00    +0.000 OA
ATOM     11  H   UNL     1      47.629   7.914  16.822  0.00  0.00    +0.000 HD
ATOM     12  H   UNL     1      49.262   8.071  17.345  0.00  0.00    +0.000 HD
ENDBRANCH   5   8
ENDBRANCH   1   2
BRANCH   1  13
ATOM     13  C   UNL     1      44.788   4.638  11.825  0.00  0.00    +0.000 C 
BRANCH  13  15
ATOM     14  C   UNL     1      43.367   2.592  11.354  0.00  0.00    +0.000 C 
ATOM     15  C   UNL     1      44.010   3.849  10.756  0.00  0.00    +0.000 C 
BRANCH  15  16
ATOM     16  C   UNL     1      44.862   3.457   9.554  0.00  0.00    +0.000 A 
ATOM     17  C   UNL     1      45.109   2.097   9.304  0.00  0.00    +0.000 A 
ATOM     18  C   UNL     1      45.947   1.700   8.257  0.00  0.00    +0.000 A 
ATOM     19  C   UNL     1      46.547   2.660   7.448  0.00  0.00    +0.000 A 
ATOM     20 CL   UNL     1      47.608   2.176   6.183  0.00  0.00    +0.000 Cl
ATOM     21  C   UNL     1      46.308   4.013   7.670  0.00  0.00    +0.000 A 
ATOM     22  C   UNL     1      45.472   4.409   8.719  0.00  0.00    +0.000 A 
ENDBRANCH  15  16
ENDBRANCH  13  15
ENDBRANCH   1  13
TORSDOF 5
ENDMDL
MODEL 6
REMARK VINA RESULT:    -6.110      4.459      6.458
REMARK INTER + INTRA:          -8.820
REMARK INTER:                  -8.320
REMARK INTRA:                  -0.500
REMARK UNBOUND:                -0.924
REMARK  Name = 
REMARK  6 active torsions:
REMARK  status: ('A' for Active; 'I' for Inactive)
REMARK    1  A    between atoms: C_1  and  C_2
REMARK    2  A    between atoms: C_2  and  C_3
REMARK    3  A    between atoms: C_2  and  C_14
REMARK    4  A    between atoms: C_3  and  O_4
REMARK    5  A    between atoms: O_4  and  C_5
REMARK    6  A    between atoms: C_8  and  C_9
REMARK                            x       y       z     vdW  Elec       q    Type
REMARK                         _______ _______ _______ _____ _____    ______ ____
ROOT
ATOM      1  O   UNL     1      47.799   4.827  14.837  0.00  0.00    +0.000 OA
ENDROOT
BRANCH   1   2
ATOM      2  C   UNL     1      46.815   4.621  13.886  0.00  0.00    +0.000 A 
ATOM      3  C   UNL     1      46.179   5.738  13.372  0.00  0.00    +0.000 A 
ATOM      4  C   UNL     1      45.187   5.544  12.403  0.00  0.00    +0.000 A 
ATOM      5  C   UNL     1      44.867   4.249  11.982  0.00  0.00    +0.000 A 
ATOM      6  C   UNL     1      45.563   3.202  12.565  0.00  0.00    +0.000 A 
ATOM      7  N   UNL     1      46.525   3.359  13.503  0.00  0.00    +0.000 NA
BRANCH   5   8
ATOM      8  C   UNL     1      43.820   4.048  10.951  0.00  0.00    +0.000 C 
ATOM      9  N   UNL     1      43.836   4.826   9.825  0.00  0.00    +0.000 N 
ATOM     10  O   UNL     1      42.946   3.203  11.098  0.00  0.00    +0.000 OA
ATOM     11  H   UNL     1      44.504   5.545   9.602  0.00  0.00    +0.000 HD
ATOM     12  H   UNL     1      43.102   4.654   9.149  0.00  0.00    +0.000 HD
ENDBRANCH   5   8
ENDBRANCH   1   2
BRANCH   1  13
ATOM     13  C   UNL     1      47.383   4.370  16.134  0.00  0.00    +0.000 C 
BRANCH  13  15
ATOM     14  C   UNL     1      48.873   6.261  16.927  0.00  0.00    +0.000 C 
ATOM     15  C   UNL     1      48.362   4.846  17.223  0.00  0.00    +0.000 C 
BRANCH  15  16
ATOM     16  C   UNL     1      49.550   3.910  17.419  0.00  0.00    +0.000 A 
ATOM     17  C   UNL     1      50.772   4.440  17.868  0.00  0.00    +0.000 A 
ATOM     18  C   UNL     1      51.905   3.630  17.988  0.00  0.00    +0.000 A 
ATOM     19  C   UNL     1      51.828   2.280  17.660  0.00  0.00    +0.000 A 
ATOM     20 CL   UNL     1      53.230   1.289  17.771  0.00  0.00    +0.000 Cl
ATOM     21  C   UNL     1      50.627   1.731  17.224  0.00  0.00    +0.000 A 
ATOM     22  C   UNL     1      49.495   2.543  17.101  0.00  0.00    +0.000 A 
ENDBRANCH  15  16
ENDBRANCH  13  15
ENDBRANCH   1  13
TORSDOF 5
ENDMDL
MODEL 7
REMARK VINA RESULT:    -5.709      5.001      7.682
REMARK INTER + INTRA:          -8.302
REMARK INTER:                  -7.829
REMARK INTRA:                  -0.473
REMARK UNBOUND:                -0.924
REMARK  Name = 
REMARK  6 active torsions:
REMARK  status: ('A' for Active; 'I' for Inactive)
REMARK    1  A    between atoms: C_1  and  C_2
REMARK    2  A    between atoms: C_2  and  C_3
REMARK    3  A    between atoms: C_2  and  C_14
REMARK    4  A    between atoms: C_3  and  O_4
REMARK    5  A    between atoms: O_4  and  C_5
REMARK    6  A    between atoms: C_8  and  C_9
REMARK                            x       y       z     vdW  Elec       q    Type
REMARK                         _______ _______ _______ _____ _____    ______ ____
ROOT
ATOM      1  O   UNL     1      46.201   4.098  14.391  0.00  0.00    +0.000 OA
ENDROOT
BRANCH   1   2
ATOM      2  C   UNL     1      47.117   4.389  15.385  0.00  0.00    +0.000 A 
ATOM      3  C   UNL     1      47.167   3.540  16.478  0.00  0.00    +0.000 A 
ATOM      4  C   UNL     1      48.096   3.818  17.488  0.00  0.00    +0.000 A 
ATOM      5  C   UNL     1      48.941   4.927  17.372  0.00  0.00    +0.000 A 
ATOM      6  C   UNL     1      48.804   5.712  16.239  0.00  0.00    +0.000 A 
ATOM      7  N   UNL     1      47.916   5.469  15.248  0.00  0.00    +0.000 NA
BRANCH   5   8
ATOM      8  C   UNL     1      49.927   5.215  18.441  0.00  0.00    +0.000 C 
ATOM      9  N   UNL     1      50.372   4.189  19.231  0.00  0.00    +0.000 N 
ATOM     10  O   UNL     1      50.342   6.353  18.625  0.00  0.00    +0.000 OA
ATOM     11  H   UNL     1      50.100   3.222  19.167  0.00  0.00    +0.000 HD
ATOM     12  H   UNL     1      51.044   4.433  19.948  0.00  0.00    +0.000 HD
ENDBRANCH   5   8
ENDBRANCH   1   2
BRANCH   1  13
ATOM     13  C   UNL     1      46.168   5.125  13.387  0.00  0.00    +0.000 C 
BRANCH  13  15
ATOM     14  C   UNL     1      43.846   4.119  13.244  0.00  0.00    +0.000 C 
ATOM     15  C   UNL     1      44.855   5.068  12.586  0.00  0.00    +0.000 C 
BRANCH  15  16
ATOM     16  C   UNL     1      45.052   4.664  11.129  0.00  0.00    +0.000 A 
ATOM     17  C   UNL     1      44.691   3.368  10.723  0.00  0.00    +0.000 A 
ATOM     18  C   UNL     1      44.925   2.935   9.415  0.00  0.00    +0.000 A 
ATOM     19  C   UNL     1      45.523   3.793   8.497  0.00  0.00    +0.000 A 
ATOM     20 CL   UNL     1      45.847   3.249   6.897  0.00  0.00    +0.000 Cl
ATOM     21  C   UNL     1      45.878   5.085   8.874  0.00  0.00    +0.000 A 
ATOM     22  C   UNL     1      45.646   5.516  10.183  0.00  0.00    +0.000 A 
ENDBRANCH  15  16
ENDBRANCH  13  15
ENDBRANCH   1  13
TORSDOF 5
ENDMDL
MODEL 8
REMARK VINA RESULT:    -5.586      4.825      7.445
REMARK INTER + INTRA:          -8.144
REMARK INTER:                  -7.401
REMARK INTRA:                  -0.743
REMARK UNBOUND:                -0.924
REMARK  Name = 
REMARK  6 active torsions:
REMARK  status: ('A' for Active; 'I' for Inactive)
REMARK    1  A    between atoms: C_1  and  C_2
REMARK    2  A    between atoms: C_2  and  C_3
REMARK    3  A    between atoms: C_2  and  C_14
REMARK    4  A    between atoms: C_3  and  O_4
REMARK    5  A    between atoms: O_4  and  C_5
REMARK    6  A    between atoms: C_8  and  C_9
REMARK                            x       y       z     vdW  Elec       q    Type
REMARK                         _______ _______ _______ _____ _____    ______ ____
ROOT
ATOM      1  O   UNL     1      47.505   6.931  14.003  0.00  0.00    +0.000 OA
ENDROOT
BRANCH   1   2
ATOM      2  C   UNL     1      47.872   6.003  14.962  0.00  0.00    +0.000 A 
ATOM      3  C   UNL     1      47.150   4.824  15.022  0.00  0.00    +0.000 A 
ATOM      4  C   UNL     1      47.517   3.874  15.982  0.00  0.00    +0.000 A 
ATOM      5  C   UNL     1      48.589   4.130  16.843  0.00  0.00    +0.000 A 
ATOM      6  C   UNL     1      49.242   5.344  16.699  0.00  0.00    +0.000 A 
ATOM      7  N   UNL     1      48.909   6.282  15.782  0.00  0.00    +0.000 NA
BRANCH   5   8
ATOM      8  C   UNL     1      48.979   3.119  17.854  0.00  0.00    +0.000 C 
ATOM      9  N   UNL     1      48.489   3.227  19.128  0.00  0.00    +0.000 N 
ATOM     10  O   UNL     1      49.731   2.196  17.565  0.00  0.00    +0.000 OA
ATOM     11  H   UNL     1      47.868   3.940  19.473  0.00  0.00    +0.000 HD
ATOM     12  H   UNL     1      48.783   2.514  19.785  0.00  0.00    +0.000 HD
ENDBRANCH   5   8
ENDBRANCH   1   2
BRANCH   1  13
ATOM     13  C   UNL     1      47.644   6.401  12.675  0.00  0.00    +0.000 C 
BRANCH  13  15
ATOM     14  C   UNL     1      45.316   7.401  12.661  0.00  0.00    +0.000 C 
ATOM     15  C   UNL     1      46.410   6.735  11.819  0.00  0.00    +0.000 C 
BRANCH  15  16
ATOM     16  C   UNL     1      45.826   5.522  11.101  0.00  0.00    +0.000 A 
ATOM     17  C   UNL     1      45.429   4.405  11.856  0.00  0.00    +0.000 A 
ATOM     18  C   UNL     1      44.960   3.246  11.230  0.00  0.00    +0.000 A 
ATOM     19  C   UNL     1      44.883   3.191   9.842  0.00  0.00    +0.000 A 
ATOM     20 CL   UNL     1      44.342   1.753   9.069  0.00  0.00    +0.000 Cl
ATOM     21  C   UNL     1      45.260   4.289   9.075  0.00  0.00    +0.000 A 
ATOM     22  C   UNL     1      45.731   5.447   9.701  0.00  0.00    +0.000 A 
ENDBRANCH  15  16
ENDBRANCH  13  15
ENDBRANCH   1  13
TORSDOF 5
ENDMDL
