MODEL 1
REMARK VINA RESULT:    -8.988      0.000      0.000
REMARK INTER + INTRA:         -12.266
REMARK INTER:                 -11.615
REMARK INTRA:                  -0.651
REMARK UNBOUND:                -0.651
REMARK  Name = 
REMARK  8 active torsions:
REMARK  status: ('A' for Active; 'I' for Inactive)
REMARK    1  A    between atoms: C_1  and  C_2
REMARK    2  A    between atoms: C_2  and  C_3
REMARK    3  A    between atoms: C_2  and  C_4
REMARK    4  A    between atoms: C_2  and  C_5
REMARK    5  A    between atoms: N_7  and  C_8
REMARK    6  A    between atoms: C_8  and  C_9
REMARK    7  A    between atoms: C_12  and  C_13
REMARK    8  A    between atoms: C_22  and  C_23
REMARK                            x       y       z     vdW  Elec       q    Type
REMARK                         _______ _______ _______ _____ _____    ______ ____
ROOT
ATOM      1  C   UNL     1      46.464   7.321  12.251  0.00  0.00    +0.000 A 
ATOM      2  C   UNL     1      45.712   6.938  11.150  0.00  0.00    +0.000 A 
ATOM      3  N   UNL     1      45.355   5.619  11.276  0.00  0.00    +0.000 N 
ATOM      4  C   UNL     1      45.896   5.108  12.428  0.00  0.00    +0.000 A 
ATOM      5  N   UNL     1      45.746   3.839  12.864  0.00  0.00    +0.000 NA
ATOM      6  C   UNL     1      46.371   3.600  14.047  0.00  0.00    +0.000 A 
ATOM      7  C   UNL     1      47.112   4.522  14.783  0.00  0.00    +0.000 A 
ATOM      8  C   UNL     1      47.239   5.817  14.276  0.00  0.00    +0.000 A 
ATOM      9  C   UNL     1      46.602   6.134  13.057  0.00  0.00    +0.000 A 
ENDROOT
BRANCH   7  10
ATOM     10  C   UNL     1      47.714   4.075  16.064  0.00  0.00    +0.000 C 
ATOM     11  N   UNL     1      46.963   3.310  16.913  0.00  0.00    +0.000 N 
ATOM     12  O   UNL     1      48.863   4.374  16.364  0.00  0.00    +0.000 OA
ATOM     13  H   UNL     1      46.022   2.996  16.744  0.00  0.00    +0.000 HD
ATOM     14  H   UNL     1      47.411   3.005  17.769  0.00  0.00    +0.000 HD
ENDBRANCH   7  10
BRANCH   1  16
ATOM     15  C   UNL     1      47.231   8.944  14.046  0.00  0.00    +0.000 C 
ATOM     16  C   UNL     1      47.004   8.723  12.532  0.00  0.00    +0.000 C 
ATOM     17  C   UNL     1      46.010   9.794  12.045  0.00  0.00    +0.000 C 
ATOM     18  C   UNL     1      48.366   8.938  11.838  0.00  0.00    +0.000 C 
ENDBRANCH   1  16
BRANCH   3  19
ATOM     19  C   UNL     1      44.399   4.943  10.410  0.00  0.00    +0.000 C 
BRANCH  19  20
ATOM     20  C   UNL     1      45.039   4.077   9.356  0.00  0.00    +0.000 A 
ATOM     21  C   UNL     1      45.852   4.626   8.357  0.00  0.00    +0.000 A 
ATOM     22  C   UNL     1      46.566   3.798   7.481  0.00  0.00    +0.000 A 
ATOM     23  C   UNL     1      46.482   2.404   7.593  0.00  0.00    +0.000 A 
ATOM     24  C   UNL     1      45.635   1.853   8.561  0.00  0.00    +0.000 A 
ATOM     25  C   UNL     1      44.927   2.686   9.423  0.00  0.00    +0.000 A 
ATOM     26  F   UNL     1      44.151   2.124  10.362  0.00  0.00    +0.000 F 
BRANCH  23  27
ATOM     27  C   UNL     1      47.283   1.465   6.755  0.00  0.00    +0.000 C 
ATOM     28  N   UNL     1      48.352   1.956   6.057  0.00  0.00    +0.000 N 
ATOM     29  O   UNL     1      47.015   0.271   6.700  0.00  0.00    +0.000 OA
ATOM     30  H   UNL     1      48.677   2.909   6.073  0.00  0.00    +0.000 HD
ATOM     31  H   UNL     1      48.897   1.284   5.531  0.00  0.00    +0.000 HD
ENDBRANCH  23  27
ENDBRANCH  19  20
ENDBRANCH   3  19
TORSDOF 5
ENDMDL
MODEL 2
REMARK VINA RESULT:    -7.526      2.545      4.267
REMARK INTER + INTRA:         -10.377
REMARK INTER:                  -9.771
REMARK INTRA:                  -0.606
REMARK UNBOUND:                -0.651
REMARK  Name = 
REMARK  8 active torsions:
REMARK  status: ('A' for Active; 'I' for Inactive)
REMARK    1  A    between atoms: C_1  and  C_2
REMARK    2  A    between atoms: C_2  and  C_3
REMARK    3  A    between atoms: C_2  and  C_4
REMARK    4  A    between atoms: C_2  and  C_5
REMARK    5  A    between atoms: N_7  and  C_8
REMARK    6  A    between atoms: C_8  and  C_9
REMARK    7  A    between atoms: C_12  and  C_13
REMARK    8  A    between atoms: C_22  and  C_23
REMARK                            x       y       z     vdW  Elec       q    Type
REMARK                         _______ _______ _______ _____ _____    ______ ____
ROOT
ATOM      1  C   UNL     1      46.307   6.334  12.704  0.00  0.00    +0.000 A 
ATOM      2  C   UNL     1      45.785   5.109  12.314  0.00  0.00    +0.000 A 
ATOM      3  N   UNL     1      44.692   5.313  11.510  0.00  0.00    +0.000 N 
ATOM      4  C   UNL     1      44.455   6.658  11.394  0.00  0.00    +0.000 A 
ATOM      5  N   UNL     1      43.456   7.215  10.676  0.00  0.00    +0.000 NA
ATOM      6  C   UNL     1      43.460   8.574  10.714  0.00  0.00    +0.000 A 
ATOM      7  C   UNL     1      44.367   9.371  11.408  0.00  0.00    +0.000 A 
ATOM      8  C   UNL     1      45.373   8.737  12.140  0.00  0.00    +0.000 A 
ATOM      9  C   UNL     1      45.433   7.327  12.131  0.00  0.00    +0.000 A 
ENDROOT
BRANCH   7  10
ATOM     10  C   UNL     1      44.215  10.845  11.320  0.00  0.00    +0.000 C 
ATOM     11  N   UNL     1      44.867  11.516  10.323  0.00  0.00    +0.000 N 
ATOM     12  O   UNL     1      43.517  11.460  12.116  0.00  0.00    +0.000 OA
ATOM     13  H   UNL     1      45.443  11.097   9.611  0.00  0.00    +0.000 HD
ATOM     14  H   UNL     1      44.725  12.518  10.279  0.00  0.00    +0.000 HD
ENDBRANCH   7  10
BRANCH   1  16
ATOM     15  C   UNL     1      48.835   6.566  12.670  0.00  0.00    +0.000 C 
ATOM     16  C   UNL     1      47.562   6.554  13.549  0.00  0.00    +0.000 C 
ATOM     17  C   UNL     1      47.719   5.428  14.588  0.00  0.00    +0.000 C 
ATOM     18  C   UNL     1      47.505   7.914  14.276  0.00  0.00    +0.000 C 
ENDBRANCH   1  16
BRANCH   3  19
ATOM     19  C   UNL     1      44.021   4.260  10.760  0.00  0.00    +0.000 C 
BRANCH  19  20
ATOM     20  C   UNL     1      44.806   3.763   9.574  0.00  0.00    +0.000 A 
ATOM     21  C   UNL     1      45.539   4.641   8.765  0.00  0.00    +0.000 A 
ATOM     22  C   UNL     1      46.389   4.151   7.765  0.00  0.00    +0.000 A 
ATOM     23  C   UNL     1      46.524   2.771   7.560  0.00  0.00    +0.000 A 
ATOM     24  C   UNL     1      45.759   1.894   8.336  0.00  0.00    +0.000 A 
ATOM     25  C   UNL     1      44.914   2.393   9.325  0.00  0.00    +0.000 A 
ATOM     26  F   UNL     1      44.222   1.522  10.073  0.00  0.00    +0.000 F 
BRANCH  23  27
ATOM     27  C   UNL     1      47.476   2.179   6.576  0.00  0.00    +0.000 C 
ATOM     28  N   UNL     1      47.727   2.857   5.415  0.00  0.00    +0.000 N 
ATOM     29  O   UNL     1      48.048   1.120   6.800  0.00  0.00    +0.000 OA
ATOM     30  H   UNL     1      47.343   3.753   5.163  0.00  0.00    +0.000 HD
ATOM     31  H   UNL     1      48.410   2.447   4.789  0.00  0.00    +0.000 HD
ENDBRANCH  23  27
ENDBRANCH  19  20
ENDBRANCH   3  19
TORSDOF 5
ENDMDL
MODEL 3
REMARK VINA RESULT:    -7.463      1.651      2.351
REMARK INTER + INTRA:         -10.296
REMARK INTER:                  -9.771
REMARK INTRA:                  -0.525
REMARK UNBOUND:                -0.651
REMARK  Name = 
REMARK  8 active torsions:
REMARK  status: ('A' for Active; 'I' for Inactive)
REMARK    1  A    between atoms: C_1  and  C_2
REMARK    2  A    between atoms: C_2  and  C_3
REMARK    3  A    between atoms: C_2  and  C_4
REMARK    4  A    between atoms: C_2  and  C_5
REMARK    5  A    between atoms: N_7  and  C_8
REMARK    6  A    between atoms: C_8  and  C_9
REMARK    7  A    between atoms: C_12  and  C_13
REMARK    8  A    between atoms: C_22  and  C_23
REMARK                            x       y       z     vdW  Elec       q    Type
REMARK                         _______ _______ _______ _____ _____    ______ ____
ROOT
ATOM      1  C   UNL     1      44.813   8.339  11.357  0.00  0.00    +0.000 A 
ATOM      2  C   UNL     1      44.127   7.360  10.652  0.00  0.00    +0.000 A 
ATOM      3  N   UNL     1      44.583   6.122  11.028  0.00  0.00    +0.000 N 
ATOM      4  C   UNL     1      45.592   6.266  11.945  0.00  0.00    +0.000 A 
ATOM      5  N   UNL     1      46.268   5.253  12.528  0.00  0.00    +0.000 NA
ATOM      6  C   UNL     1      47.206   5.672  13.416  0.00  0.00    +0.000 A 
ATOM      7  C   UNL     1      47.497   6.997  13.735  0.00  0.00    +0.000 A 
ATOM      8  C   UNL     1      46.771   8.002  13.093  0.00  0.00    +0.000 A 
ATOM      9  C   UNL     1      45.771   7.632  12.168  0.00  0.00    +0.000 A 
ENDROOT
BRANCH   7  10
ATOM     10  C   UNL     1      48.554   7.259  14.743  0.00  0.00    +0.000 C 
ATOM     11  N   UNL     1      48.255   8.041  15.824  0.00  0.00    +0.000 N 
ATOM     12  O   UNL     1      49.677   6.784  14.624  0.00  0.00    +0.000 OA
ATOM     13  H   UNL     1      47.359   8.456  16.019  0.00  0.00    +0.000 HD
ATOM     14  H   UNL     1      48.993   8.183  16.503  0.00  0.00    +0.000 HD
ENDBRANCH   7  10
BRANCH   1  16
ATOM     15  C   UNL     1      44.149  10.275   9.855  0.00  0.00    +0.000 C 
ATOM     16  C   UNL     1      44.566   9.846  11.282  0.00  0.00    +0.000 C 
ATOM     17  C   UNL     1      45.842  10.624  11.652  0.00  0.00    +0.000 C 
ATOM     18  C   UNL     1      43.421  10.264  12.228  0.00  0.00    +0.000 C 
ENDBRANCH   1  16
BRANCH   3  19
ATOM     19  C   UNL     1      43.953   4.866  10.643  0.00  0.00    +0.000 C 
BRANCH  19  20
ATOM     20  C   UNL     1      44.718   4.097   9.597  0.00  0.00    +0.000 A 
ATOM     21  C   UNL     1      45.564   4.745   8.689  0.00  0.00    +0.000 A 
ATOM     22  C   UNL     1      46.388   4.009   7.828  0.00  0.00    +0.000 A 
ATOM     23  C   UNL     1      46.382   2.608   7.864  0.00  0.00    +0.000 A 
ATOM     24  C   UNL     1      45.504   1.957   8.739  0.00  0.00    +0.000 A 
ATOM     25  C   UNL     1      44.688   2.700   9.587  0.00  0.00    +0.000 A 
ATOM     26  F   UNL     1      43.883   2.044  10.437  0.00  0.00    +0.000 F 
BRANCH  23  27
ATOM     27  C   UNL     1      47.296   1.764   7.041  0.00  0.00    +0.000 C 
ATOM     28  N   UNL     1      48.348   2.363   6.404  0.00  0.00    +0.000 N 
ATOM     29  O   UNL     1      47.135   0.554   6.947  0.00  0.00    +0.000 OA
ATOM     30  H   UNL     1      48.589   3.339   6.458  0.00  0.00    +0.000 HD
ATOM     31  H   UNL     1      48.972   1.754   5.889  0.00  0.00    +0.000 HD
ENDBRANCH  23  27
ENDBRANCH  19  20
ENDBRANCH   3  19
TORSDOF 5
ENDMDL
MODEL 4
REMARK VINA RESULT:    -7.061      3.256      7.261
REMARK INTER + INTRA:          -9.776
REMARK INTER:                  -8.816
REMARK INTRA:                  -0.960
REMARK UNBOUND:                -0.651
REMARK  Name = 
REMARK  8 active torsions:
REMARK  status: ('A' for Active; 'I' for Inactive)
REMARK    1  A    between atoms: C_1  and  C_2
REMARK    2  A    between atoms: C_2  and  C_3
REMARK    3  A    between atoms: C_2  and  C_4
REMARK    4  A    between atoms: C_2  and  C_5
REMARK    5  A    between atoms: N_7  and  C_8
REMARK    6  A    between atoms: C_8  and  C_9
REMARK    7  A    between atoms: C_12  and  C_13
REMARK    8  A    between atoms: C_22  and  C_23
REMARK                            x       y       z     vdW  Elec       q    Type
REMARK                         _______ _______ _______ _____ _____    ______ ____
ROOT
ATOM      1  C   UNL     1      48.503   7.074  13.730  0.00  0.00    +0.000 A 
ATOM      2  C   UNL     1      48.696   6.793  15.075  0.00  0.00    +0.000 A 
ATOM      3  N   UNL     1      47.853   5.779  15.455  0.00  0.00    +0.000 N 
ATOM      4  C   UNL     1      47.072   5.410  14.391  0.00  0.00    +0.000 A 
ATOM      5  N   UNL     1      46.132   4.442  14.411  0.00  0.00    +0.000 NA
ATOM      6  C   UNL     1      45.516   4.265  13.212  0.00  0.00    +0.000 A 
ATOM      7  C   UNL     1      45.775   4.980  12.045  0.00  0.00    +0.000 A 
ATOM      8  C   UNL     1      46.753   5.976  12.088  0.00  0.00    +0.000 A 
ATOM      9  C   UNL     1      47.440   6.201  13.301  0.00  0.00    +0.000 A 
ENDROOT
BRANCH   7  10
ATOM     10  C   UNL     1      45.004   4.634  10.826  0.00  0.00    +0.000 C 
ATOM     11  N   UNL     1      45.310   5.264   9.651  0.00  0.00    +0.000 N 
ATOM     12  O   UNL     1      44.111   3.797  10.856  0.00  0.00    +0.000 OA
ATOM     13  H   UNL     1      46.039   5.946   9.523  0.00  0.00    +0.000 HD
ATOM     14  H   UNL     1      44.778   4.990   8.834  0.00  0.00    +0.000 HD
ENDBRANCH   7  10
BRANCH   1  16
ATOM     15  C   UNL     1      48.352   9.184  12.327  0.00  0.00    +0.000 C 
ATOM     16  C   UNL     1      49.285   8.091  12.899  0.00  0.00    +0.000 C 
ATOM     17  C   UNL     1      49.982   7.400  11.712  0.00  0.00    +0.000 C 
ATOM     18  C   UNL     1      50.342   8.811  13.762  0.00  0.00    +0.000 C 
ENDBRANCH   1  16
BRANCH   3  19
ATOM     19  C   UNL     1      47.925   5.093  16.738  0.00  0.00    +0.000 C 
BRANCH  19  20
ATOM     20  C   UNL     1      49.128   4.198  16.883  0.00  0.00    +0.000 A 
ATOM     21  C   UNL     1      50.346   4.687  17.371  0.00  0.00    +0.000 A 
ATOM     22  C   UNL     1      51.408   3.815  17.648  0.00  0.00    +0.000 A 
ATOM     23  C   UNL     1      51.265   2.435  17.447  0.00  0.00    +0.000 A 
ATOM     24  C   UNL     1      50.065   1.949  16.917  0.00  0.00    +0.000 A 
ATOM     25  C   UNL     1      49.019   2.826  16.641  0.00  0.00    +0.000 A 
ATOM     26  F   UNL     1      47.870   2.322  16.166  0.00  0.00    +0.000 F 
BRANCH  23  27
ATOM     27  C   UNL     1      52.319   1.443  17.806  0.00  0.00    +0.000 C 
ATOM     28  N   UNL     1      51.936   0.192  18.205  0.00  0.00    +0.000 N 
ATOM     29  O   UNL     1      53.510   1.720  17.726  0.00  0.00    +0.000 OA
ATOM     30  H   UNL     1      50.988  -0.143  18.258  0.00  0.00    +0.000 HD
ATOM     31  H   UNL     1      52.679  -0.469  18.400  0.00  0.00    +0.000 HD
ENDBRANCH  23  27
ENDBRANCH  19  20
ENDBRANCH   3  19
TORSDOF 5
ENDMDL
MODEL 5
REMARK VINA RESULT:    -6.864      1.635      2.250
REMARK INTER + INTRA:          -9.522
REMARK INTER:                  -8.557
REMARK INTRA:                  -0.965
REMARK UNBOUND:                -0.651
REMARK  Name = 
REMARK  8 active torsions:
REMARK  status: ('A' for Active; 'I' for Inactive)
REMARK    1  A    between atoms: C_1  and  C_2
REMARK    2  A    between atoms: C_2  and  C_3
REMARK    3  A    between atoms: C_2  and  C_4
REMARK    4  A    between atoms: C_2  and  C_5
REMARK    5  A    between atoms: N_7  and  C_8
REMARK    6  A    between atoms: C_8  and  C_9
REMARK    7  A    between atoms: C_12  and  C_13
REMARK    8  A    between atoms: C_22  and  C_23
REMARK                            x       y       z     vdW  Elec       q    Type
REMARK                         _______ _______ _______ _____ _____    ______ ____
ROOT
ATOM      1  C   UNL     1      47.892   7.494  13.849  0.00  0.00    +0.000 A 
ATOM      2  C   UNL     1      46.840   7.379  12.952  0.00  0.00    +0.000 A 
ATOM      3  N   UNL     1      46.160   6.211  13.193  0.00  0.00    +0.000 N 
ATOM      4  C   UNL     1      46.772   5.529  14.212  0.00  0.00    +0.000 A 
ATOM      5  N   UNL     1      46.367   4.340  14.709  0.00  0.00    +0.000 NA
ATOM      6  C   UNL     1      47.141   3.893  15.733  0.00  0.00    +0.000 A 
ATOM      7  C   UNL     1      48.255   4.541  16.259  0.00  0.00    +0.000 A 
ATOM      8  C   UNL     1      48.632   5.764  15.699  0.00  0.00    +0.000 A 
ATOM      9  C   UNL     1      47.860   6.290  14.640  0.00  0.00    +0.000 A 
ENDROOT
BRANCH   7  10
ATOM     10  C   UNL     1      48.970   3.898  17.390  0.00  0.00    +0.000 C 
ATOM     11  N   UNL     1      48.268   3.582  18.519  0.00  0.00    +0.000 N 
ATOM     12  O   UNL     1      50.167   3.645  17.323  0.00  0.00    +0.000 OA
ATOM     13  H   UNL     1      47.282   3.729  18.659  0.00  0.00    +0.000 HD
ATOM     14  H   UNL     1      48.781   3.125  19.264  0.00  0.00    +0.000 HD
ENDBRANCH   7  10
BRANCH   1  16
ATOM     15  C   UNL     1      50.327   8.214  13.828  0.00  0.00    +0.000 C 
ATOM     16  C   UNL     1      48.856   8.675  13.962  0.00  0.00    +0.000 C 
ATOM     17  C   UNL     1      48.705   9.369  15.329  0.00  0.00    +0.000 C 
ATOM     18  C   UNL     1      48.604   9.702  12.838  0.00  0.00    +0.000 C 
ENDBRANCH   1  16
BRANCH   3  19
ATOM     19  C   UNL     1      44.886   5.865  12.578  0.00  0.00    +0.000 C 
BRANCH  19  20
ATOM     20  C   UNL     1      45.018   5.016  11.340  0.00  0.00    +0.000 A 
ATOM     21  C   UNL     1      45.507   5.547  10.141  0.00  0.00    +0.000 A 
ATOM     22  C   UNL     1      45.773   4.715   9.046  0.00  0.00    +0.000 A 
ATOM     23  C   UNL     1      45.559   3.332   9.135  0.00  0.00    +0.000 A 
ATOM     24  C   UNL     1      45.028   2.805  10.317  0.00  0.00    +0.000 A 
ATOM     25  C   UNL     1      44.764   3.643  11.397  0.00  0.00    +0.000 A 
ATOM     26  F   UNL     1      44.287   3.099  12.527  0.00  0.00    +0.000 F 
BRANCH  23  27
ATOM     27  C   UNL     1      45.905   2.379   8.042  0.00  0.00    +0.000 C 
ATOM     28  N   UNL     1      45.969   2.846   6.758  0.00  0.00    +0.000 N 
ATOM     29  O   UNL     1      46.154   1.202   8.276  0.00  0.00    +0.000 OA
ATOM     30  H   UNL     1      45.828   3.800   6.472  0.00  0.00    +0.000 HD
ATOM     31  H   UNL     1      46.248   2.180   6.047  0.00  0.00    +0.000 HD
ENDBRANCH  23  27
ENDBRANCH  19  20
ENDBRANCH   3  19
TORSDOF 5
ENDMDL
MODEL 6
REMARK VINA RESULT:    -6.752      4.178      5.566
REMARK INTER + INTRA:          -9.376
REMARK INTER:                  -8.413
REMARK INTRA:                  -0.963
REMARK UNBOUND:                -0.651
REMARK  Name = 
REMARK  8 active torsions:
REMARK  status: ('A' for Active; 'I' for Inactive)
REMARK    1  A    between atoms: C_1  and  C_2
REMARK    2  A    between atoms: C_2  and  C_3
REMARK    3  A    between atoms: C_2  and  C_4
REMARK    4  A    between atoms: C_2  and  C_5
REMARK    5  A    between atoms: N_7  and  C_8
REMARK    6  A    between atoms: C_8  and  C_9
REMARK    7  A    between atoms: C_12  and  C_13
REMARK    8  A    between atoms: C_22  and  C_23
REMARK                            x       y       z     vdW  Elec       q    Type
REMARK                         _______ _______ _______ _____ _____    ______ ____
ROOT
ATOM      1  C   UNL     1      48.786   8.503  16.752  0.00  0.00    +0.000 A 
ATOM      2  C   UNL     1      48.768   8.376  15.371  0.00  0.00    +0.000 A 
ATOM      3  N   UNL     1      48.737   7.045  15.035  0.00  0.00    +0.000 N 
ATOM      4  C   UNL     1      48.776   6.286  16.175  0.00  0.00    +0.000 A 
ATOM      5  N   UNL     1      48.760   4.936  16.215  0.00  0.00    +0.000 NA
ATOM      6  C   UNL     1      48.788   4.435  17.478  0.00  0.00    +0.000 A 
ATOM      7  C   UNL     1      48.835   5.180  18.653  0.00  0.00    +0.000 A 
ATOM      8  C   UNL     1      48.859   6.572  18.549  0.00  0.00    +0.000 A 
ATOM      9  C   UNL     1      48.818   7.157  17.265  0.00  0.00    +0.000 A 
ENDROOT
BRANCH   7  10
ATOM     10  C   UNL     1      48.849   4.450  19.946  0.00  0.00    +0.000 C 
ATOM     11  N   UNL     1      48.385   3.164  19.981  0.00  0.00    +0.000 N 
ATOM     12  O   UNL     1      49.271   4.976  20.968  0.00  0.00    +0.000 OA
ATOM     13  H   UNL     1      48.041   2.641  19.192  0.00  0.00    +0.000 HD
ATOM     14  H   UNL     1      48.427   2.688  20.874  0.00  0.00    +0.000 HD
ENDBRANCH   7  10
BRANCH   1  16
ATOM     15  C   UNL     1      50.020   9.966  18.421  0.00  0.00    +0.000 C 
ATOM     16  C   UNL     1      48.759   9.814  17.538  0.00  0.00    +0.000 C 
ATOM     17  C   UNL     1      47.529   9.865  18.464  0.00  0.00    +0.000 C 
ATOM     18  C   UNL     1      48.730  11.027  16.585  0.00  0.00    +0.000 C 
ENDBRANCH   1  16
BRANCH   3  19
ATOM     19  C   UNL     1      48.508   6.547  13.685  0.00  0.00    +0.000 C 
BRANCH  19  20
ATOM     20  C   UNL     1      47.053   6.338  13.353  0.00  0.00    +0.000 A 
ATOM     21  C   UNL     1      46.242   7.399  12.930  0.00  0.00    +0.000 A 
ATOM     22  C   UNL     1      44.939   7.165  12.474  0.00  0.00    +0.000 A 
ATOM     23  C   UNL     1      44.425   5.861  12.427  0.00  0.00    +0.000 A 
ATOM     24  C   UNL     1      45.218   4.805  12.891  0.00  0.00    +0.000 A 
ATOM     25  C   UNL     1      46.510   5.051  13.346  0.00  0.00    +0.000 A 
ATOM     26  F   UNL     1      47.254   4.011  13.751  0.00  0.00    +0.000 F 
BRANCH  23  27
ATOM     27  C   UNL     1      43.082   5.530  11.869  0.00  0.00    +0.000 C 
ATOM     28  N   UNL     1      42.172   6.538  11.704  0.00  0.00    +0.000 N 
ATOM     29  O   UNL     1      42.792   4.387  11.539  0.00  0.00    +0.000 OA
ATOM     30  H   UNL     1      42.332   7.512  11.903  0.00  0.00    +0.000 HD
ATOM     31  H   UNL     1      41.286   6.285  11.285  0.00  0.00    +0.000 HD
ENDBRANCH  23  27
ENDBRANCH  19  20
ENDBRANCH   3  19
TORSDOF 5
ENDMDL
MODEL 7
REMARK VINA RESULT:    -6.686      4.367      7.809
REMARK INTER + INTRA:          -9.292
REMARK INTER:                  -8.775
REMARK INTRA:                  -0.517
REMARK UNBOUND:                -0.651
REMARK  Name = 
REMARK  8 active torsions:
REMARK  status: ('A' for Active; 'I' for Inactive)
REMARK    1  A    between atoms: C_1  and  C_2
REMARK    2  A    between atoms: C_2  and  C_3
REMARK    3  A    between atoms: C_2  and  C_4
REMARK    4  A    between atoms: C_2  and  C_5
REMARK    5  A    between atoms: N_7  and  C_8
REMARK    6  A    between atoms: C_8  and  C_9
REMARK    7  A    between atoms: C_12  and  C_13
REMARK    8  A    between atoms: C_22  and  C_23
REMARK                            x       y       z     vdW  Elec       q    Type
REMARK                         _______ _______ _______ _____ _____    ______ ____
ROOT
ATOM      1  C   UNL     1      46.424   5.118  13.453  0.00  0.00    +0.000 A 
ATOM      2  C   UNL     1      46.478   4.612  14.744  0.00  0.00    +0.000 A 
ATOM      3  N   UNL     1      47.532   5.180  15.414  0.00  0.00    +0.000 N 
ATOM      4  C   UNL     1      48.205   6.026  14.572  0.00  0.00    +0.000 A 
ATOM      5  N   UNL     1      49.295   6.752  14.903  0.00  0.00    +0.000 NA
ATOM      6  C   UNL     1      49.755   7.526  13.885  0.00  0.00    +0.000 A 
ATOM      7  C   UNL     1      49.210   7.604  12.606  0.00  0.00    +0.000 A 
ATOM      8  C   UNL     1      48.088   6.823  12.320  0.00  0.00    +0.000 A 
ATOM      9  C   UNL     1      47.553   6.007  13.339  0.00  0.00    +0.000 A 
ENDROOT
BRANCH   7  10
ATOM     10  C   UNL     1      49.849   8.519  11.627  0.00  0.00    +0.000 C 
ATOM     11  N   UNL     1      49.279   9.741  11.399  0.00  0.00    +0.000 N 
ATOM     12  O   UNL     1      50.871   8.200  11.033  0.00  0.00    +0.000 OA
ATOM     13  H   UNL     1      48.456  10.100  11.853  0.00  0.00    +0.000 HD
ATOM     14  H   UNL     1      49.752  10.349  10.740  0.00  0.00    +0.000 HD
ENDBRANCH   7  10
BRANCH   1  16
ATOM     15  C   UNL     1      45.657   5.525  11.068  0.00  0.00    +0.000 C 
ATOM     16  C   UNL     1      45.365   4.794  12.400  0.00  0.00    +0.000 C 
ATOM     17  C   UNL     1      43.970   5.235  12.881  0.00  0.00    +0.000 C 
ATOM     18  C   UNL     1      45.342   3.284  12.087  0.00  0.00    +0.000 C 
ENDBRANCH   1  16
BRANCH   3  19
ATOM     19  C   UNL     1      47.765   5.035  16.845  0.00  0.00    +0.000 C 
BRANCH  19  20
ATOM     20  C   UNL     1      48.867   4.066  17.186  0.00  0.00    +0.000 A 
ATOM     21  C   UNL     1      48.774   2.709  16.854  0.00  0.00    +0.000 A 
ATOM     22  C   UNL     1      49.867   1.851  17.034  0.00  0.00    +0.000 A 
ATOM     23  C   UNL     1      51.077   2.340  17.546  0.00  0.00    +0.000 A 
ATOM     24  C   UNL     1      51.159   3.686  17.920  0.00  0.00    +0.000 A 
ATOM     25  C   UNL     1      50.064   4.527  17.741  0.00  0.00    +0.000 A 
ATOM     26  F   UNL     1      50.189   5.819  18.079  0.00  0.00    +0.000 F 
BRANCH  23  27
ATOM     27  C   UNL     1      52.306   1.505  17.679  0.00  0.00    +0.000 C 
ATOM     28  N   UNL     1      52.186   0.230  18.157  0.00  0.00    +0.000 N 
ATOM     29  O   UNL     1      53.406   1.931  17.347  0.00  0.00    +0.000 OA
ATOM     30  H   UNL     1      51.324  -0.223  18.411  0.00  0.00    +0.000 HD
ATOM     31  H   UNL     1      53.034  -0.322  18.195  0.00  0.00    +0.000 HD
ENDBRANCH  23  27
ENDBRANCH  19  20
ENDBRANCH   3  19
TORSDOF 5
ENDMDL
MODEL 8
REMARK VINA RESULT:    -6.507      3.406      8.165
REMARK INTER + INTRA:          -9.060
REMARK INTER:                  -8.349
REMARK INTRA:                  -0.711
REMARK UNBOUND:                -0.651
REMARK  Name = 
REMARK  8 active torsions:
REMARK  status: ('A' for Active; 'I' for Inactive)
REMARK    1  A    between atoms: C_1  and  C_2
REMARK    2  A    between atoms: C_2  and  C_3
REMARK    3  A    between atoms: C_2  and  C_4
REMARK    4  A    between atoms: C_2  and  C_5
REMARK    5  A    between atoms: N_7  and  C_8
REMARK    6  A    between atoms: C_8  and  C_9
REMARK    7  A    between atoms: C_12  and  C_13
REMARK    8  A    between atoms: C_22  and  C_23
REMARK                            x       y       z     vdW  Elec       q    Type
REMARK                         _______ _______ _______ _____ _____    ______ ____
ROOT
ATOM      1  C   UNL     1      47.931   6.563  13.917  0.00  0.00    +0.000 A 
ATOM      2  C   UNL     1      48.143   5.860  15.095  0.00  0.00    +0.000 A 
ATOM      3  N   UNL     1      47.379   4.720  15.090  0.00  0.00    +0.000 N 
ATOM      4  C   UNL     1      46.631   4.676  13.943  0.00  0.00    +0.000 A 
ATOM      5  N   UNL     1      45.767   3.692  13.611  0.00  0.00    +0.000 NA
ATOM      6  C   UNL     1      45.168   3.885  12.407  0.00  0.00    +0.000 A 
ATOM      7  C   UNL     1      45.374   4.968  11.555  0.00  0.00    +0.000 A 
ATOM      8  C   UNL     1      46.272   5.959  11.956  0.00  0.00    +0.000 A 
ATOM      9  C   UNL     1      46.938   5.811  13.191  0.00  0.00    +0.000 A 
ENDROOT
BRANCH   7  10
ATOM     10  C   UNL     1      44.632   4.998  10.270  0.00  0.00    +0.000 C 
ATOM     11  N   UNL     1      45.335   5.154   9.107  0.00  0.00    +0.000 N 
ATOM     12  O   UNL     1      43.414   4.881  10.236  0.00  0.00    +0.000 OA
ATOM     13  H   UNL     1      46.335   5.235   9.031  0.00  0.00    +0.000 HD
ATOM     14  H   UNL     1      44.800   5.150   8.246  0.00  0.00    +0.000 HD
ENDBRANCH   7  10
BRANCH   1  16
ATOM     15  C   UNL     1      49.706   8.270  14.531  0.00  0.00    +0.000 C 
ATOM     16  C   UNL     1      48.634   7.853  13.497  0.00  0.00    +0.000 C 
ATOM     17  C   UNL     1      47.621   9.008  13.379  0.00  0.00    +0.000 C 
ATOM     18  C   UNL     1      49.359   7.671  12.148  0.00  0.00    +0.000 C 
ENDBRANCH   1  16
BRANCH   3  19
ATOM     19  C   UNL     1      47.502   3.649  16.070  0.00  0.00    +0.000 C 
BRANCH  19  20
ATOM     20  C   UNL     1      48.325   4.020  17.277  0.00  0.00    +0.000 A 
ATOM     21  C   UNL     1      49.680   3.680  17.368  0.00  0.00    +0.000 A 
ATOM     22  C   UNL     1      50.471   4.166  18.418  0.00  0.00    +0.000 A 
ATOM     23  C   UNL     1      49.917   5.006  19.394  0.00  0.00    +0.000 A 
ATOM     24  C   UNL     1      48.553   5.311  19.330  0.00  0.00    +0.000 A 
ATOM     25  C   UNL     1      47.777   4.818  18.284  0.00  0.00    +0.000 A 
ATOM     26  F   UNL     1      46.480   5.158  18.235  0.00  0.00    +0.000 F 
BRANCH  23  27
ATOM     27  C   UNL     1      50.719   5.630  20.486  0.00  0.00    +0.000 C 
ATOM     28  N   UNL     1      50.331   6.849  20.972  0.00  0.00    +0.000 N 
ATOM     29  O   UNL     1      51.694   5.065  20.965  0.00  0.00    +0.000 OA
ATOM     30  H   UNL     1      49.522   7.369  20.676  0.00  0.00    +0.000 HD
ATOM     31  H   UNL     1      50.874   7.223  21.741  0.00  0.00    +0.000 HD
ENDBRANCH  23  27
ENDBRANCH  19  20
ENDBRANCH   3  19
TORSDOF 5
ENDMDL
MODEL 9
REMARK VINA RESULT:    -6.403      3.990      7.992
REMARK INTER + INTRA:          -8.925
REMARK INTER:                  -8.413
REMARK INTRA:                  -0.513
REMARK UNBOUND:                -0.651
REMARK  Name = 
REMARK  8 active torsions:
REMARK  status: ('A' for Active; 'I' for Inactive)
REMARK    1  A    between atoms: C_1  and  C_2
REMARK    2  A    between atoms: C_2  and  C_3
REMARK    3  A    between atoms: C_2  and  C_4
REMARK    4  A    between atoms: C_2  and  C_5
REMARK    5  A    between atoms: N_7  and  C_8
REMARK    6  A    between atoms: C_8  and  C_9
REMARK    7  A    between atoms: C_12  and  C_13
REMARK    8  A    between atoms: C_22  and  C_23
REMARK                            x       y       z     vdW  Elec       q    Type
REMARK                         _______ _______ _______ _____ _____    ______ ____
ROOT
ATOM      1  C   UNL     1      45.088   5.519  11.840  0.00  0.00    +0.000 A 
ATOM      2  C   UNL     1      46.312   5.124  12.360  0.00  0.00    +0.000 A 
ATOM      3  N   UNL     1      47.048   6.234  12.690  0.00  0.00    +0.000 N 
ATOM      4  C   UNL     1      46.345   7.363  12.359  0.00  0.00    +0.000 A 
ATOM      5  N   UNL     1      46.771   8.630  12.546  0.00  0.00    +0.000 NA
ATOM      6  C   UNL     1      45.870   9.565  12.147  0.00  0.00    +0.000 A 
ATOM      7  C   UNL     1      44.620   9.311  11.588  0.00  0.00    +0.000 A 
ATOM      8  C   UNL     1      44.238   7.980  11.410  0.00  0.00    +0.000 A 
ATOM      9  C   UNL     1      45.124   6.959  11.817  0.00  0.00    +0.000 A 
ENDROOT
BRANCH   7  10
ATOM     10  C   UNL     1      43.767  10.469  11.223  0.00  0.00    +0.000 C 
ATOM     11  N   UNL     1      42.833  10.908  12.119  0.00  0.00    +0.000 N 
ATOM     12  O   UNL     1      43.891  11.034  10.143  0.00  0.00    +0.000 OA
ATOM     13  H   UNL     1      42.672  10.525  13.036  0.00  0.00    +0.000 HD
ATOM     14  H   UNL     1      42.281  11.713  11.847  0.00  0.00    +0.000 HD
ENDBRANCH   7  10
BRANCH   1  16
ATOM     15  C   UNL     1      44.100   3.188  12.036  0.00  0.00    +0.000 C 
ATOM     16  C   UNL     1      43.949   4.595  11.409  0.00  0.00    +0.000 C 
ATOM     17  C   UNL     1      43.937   4.427   9.878  0.00  0.00    +0.000 C 
ATOM     18  C   UNL     1      42.585   5.148  11.872  0.00  0.00    +0.000 C 
ENDBRANCH   1  16
BRANCH   3  19
ATOM     19  C   UNL     1      48.294   6.194  13.445  0.00  0.00    +0.000 C 
BRANCH  19  20
ATOM     20  C   UNL     1      48.110   5.878  14.907  0.00  0.00    +0.000 A 
ATOM     21  C   UNL     1      47.439   4.722  15.324  0.00  0.00    +0.000 A 
ATOM     22  C   UNL     1      47.412   4.360  16.677  0.00  0.00    +0.000 A 
ATOM     23  C   UNL     1      48.063   5.147  17.637  0.00  0.00    +0.000 A 
ATOM     24  C   UNL     1      48.696   6.326  17.228  0.00  0.00    +0.000 A 
ATOM     25  C   UNL     1      48.712   6.678  15.881  0.00  0.00    +0.000 A 
ATOM     26  F   UNL     1      49.357   7.798  15.521  0.00  0.00    +0.000 F 
BRANCH  23  27
ATOM     27  C   UNL     1      48.151   4.774  19.078  0.00  0.00    +0.000 C 
ATOM     28  N   UNL     1      48.477   3.486  19.405  0.00  0.00    +0.000 N 
ATOM     29  O   UNL     1      47.961   5.598  19.964  0.00  0.00    +0.000 OA
ATOM     30  H   UNL     1      48.696   2.752  18.752  0.00  0.00    +0.000 HD
ATOM     31  H   UNL     1      48.569   3.279  20.392  0.00  0.00    +0.000 HD
ENDBRANCH  23  27
ENDBRANCH  19  20
ENDBRANCH   3  19
TORSDOF 5
ENDMDL
