MODEL 1
REMARK VINA RESULT:    -8.574      0.000      0.000
REMARK INTER + INTRA:         -10.401
REMARK INTER:                 -10.579
REMARK INTRA:                   0.178
REMARK UNBOUND:                 0.178
REMARK  Name = 
REMARK  4 active torsions:
REMARK  status: ('A' for Active; 'I' for Inactive)
REMARK    1  A    between atoms: C_2  and  C_3
REMARK    2  A    between atoms: C_6  and  C_7
REMARK    3  A    between atoms: C_7  and  N_8
REMARK    4  A    between atoms: C_12  and  C_13
REMARK                            x       y       z     vdW  Elec       q    Type
REMARK                         _______ _______ _______ _____ _____    ______ ____
ROOT
ATOM      1  N   UNL     1      44.371   5.232   9.786  0.00  0.00    +0.000 N 
ATOM      2  C   UNL     1      45.060   4.220   9.128  0.00  0.00    +0.000 A 
ATOM      3  C   UNL     1      45.067   2.892   9.536  0.00  0.00    +0.000 A 
ATOM      4  C   UNL     1      45.770   1.944   8.783  0.00  0.00    +0.000 A 
ATOM      5  C   UNL     1      46.449   2.349   7.637  0.00  0.00    +0.000 A 
ATOM      6  C   UNL     1      46.396   3.692   7.302  0.00  0.00    +0.000 A 
ATOM      7  N   UNL     1      45.713   4.621   8.016  0.00  0.00    +0.000 NA
ATOM      8  H   UNL     1      44.596   6.111   9.329  0.00  0.00    +0.000 HD
ENDROOT
BRANCH   5   9
ATOM      9  C   UNL     1      47.241   1.438   6.783  0.00  0.00    +0.000 C 
ATOM     10  N   UNL     1      48.243   1.986   6.032  0.00  0.00    +0.000 N 
ATOM     11  O   UNL     1      47.030   0.233   6.768  0.00  0.00    +0.000 OA
ATOM     12  H   UNL     1      48.607   2.915   6.192  0.00  0.00    +0.000 HD
ATOM     13  H   UNL     1      48.833   1.334   5.530  0.00  0.00    +0.000 HD
ENDBRANCH   5   9
BRANCH   1  14
ATOM     14  C   UNL     1      43.950   5.233  11.188  0.00  0.00    +0.000 C 
ATOM     15  C   UNL     1      42.523   5.563  11.584  0.00  0.00    +0.000 C 
ATOM     16  C   UNL     1      42.954   4.135  11.563  0.00  0.00    +0.000 C 
BRANCH  14  20
ATOM     17  C   UNL     1      47.265   5.915  13.939  0.00  0.00    +0.000 A 
ATOM     18  C   UNL     1      46.700   4.644  13.836  0.00  0.00    +0.000 A 
ATOM     19  C   UNL     1      45.620   4.424  12.974  0.00  0.00    +0.000 A 
ATOM     20  C   UNL     1      45.083   5.460  12.188  0.00  0.00    +0.000 A 
ATOM     21  C   UNL     1      45.651   6.738  12.337  0.00  0.00    +0.000 A 
ATOM     22  C   UNL     1      46.731   6.969  13.197  0.00  0.00    +0.000 A 
BRANCH  17  24
ATOM     23  N   UNL     1      49.311   6.306  15.482  0.00  0.00    +0.000 NA
ATOM     24  C   UNL     1      48.395   6.133  14.790  0.00  0.00    +0.000 C 
ENDBRANCH  17  24
ENDBRANCH  14  20
ENDBRANCH   1  14
TORSDOF 4
ENDMDL
MODEL 2
REMARK VINA RESULT:    -7.971      3.006      6.994
REMARK INTER + INTRA:          -9.656
REMARK INTER:                  -9.250
REMARK INTRA:                  -0.406
REMARK UNBOUND:                 0.178
REMARK  Name = 
REMARK  4 active torsions:
REMARK  status: ('A' for Active; 'I' for Inactive)
REMARK    1  A    between atoms: C_2  and  C_3
REMARK    2  A    between atoms: C_6  and  C_7
REMARK    3  A    between atoms: C_7  and  N_8
REMARK    4  A    between atoms: C_12  and  C_13
REMARK                            x       y       z     vdW  Elec       q    Type
REMARK                         _______ _______ _______ _____ _____    ______ ____
ROOT
ATOM      1  N   UNL     1      44.495   5.767  10.929  0.00  0.00    +0.000 N 
ATOM      2  C   UNL     1      45.392   6.496  11.702  0.00  0.00    +0.000 A 
ATOM      3  C   UNL     1      46.631   6.019  12.111  0.00  0.00    +0.000 A 
ATOM      4  C   UNL     1      47.474   6.846  12.863  0.00  0.00    +0.000 A 
ATOM      5  C   UNL     1      47.055   8.135  13.185  0.00  0.00    +0.000 A 
ATOM      6  C   UNL     1      45.804   8.531  12.743  0.00  0.00    +0.000 A 
ATOM      7  N   UNL     1      44.979   7.745  12.006  0.00  0.00    +0.000 NA
ATOM      8  H   UNL     1      43.644   6.314  10.840  0.00  0.00    +0.000 HD
ENDROOT
BRANCH   5   9
ATOM      9  C   UNL     1      47.853   9.083  13.992  0.00  0.00    +0.000 C 
ATOM     10  N   UNL     1      47.573   9.167  15.328  0.00  0.00    +0.000 N 
ATOM     11  O   UNL     1      48.750   9.748  13.494  0.00  0.00    +0.000 OA
ATOM     12  H   UNL     1      47.022   8.478  15.820  0.00  0.00    +0.000 HD
ATOM     13  H   UNL     1      48.193   9.749  15.878  0.00  0.00    +0.000 HD
ENDBRANCH   5   9
BRANCH   1  14
ATOM     14  C   UNL     1      44.435   4.309  10.803  0.00  0.00    +0.000 C 
ATOM     15  C   UNL     1      44.183   3.422  12.007  0.00  0.00    +0.000 C 
ATOM     16  C   UNL     1      43.059   3.695  11.065  0.00  0.00    +0.000 C 
BRANCH  14  20
ATOM     17  C   UNL     1      46.668   2.656   7.442  0.00  0.00    +0.000 A 
ATOM     18  C   UNL     1      46.502   4.037   7.551  0.00  0.00    +0.000 A 
ATOM     19  C   UNL     1      45.764   4.572   8.614  0.00  0.00    +0.000 A 
ATOM     20  C   UNL     1      45.185   3.748   9.596  0.00  0.00    +0.000 A 
ATOM     21  C   UNL     1      45.342   2.359   9.442  0.00  0.00    +0.000 A 
ATOM     22  C   UNL     1      46.076   1.813   8.383  0.00  0.00    +0.000 A 
BRANCH  17  24
ATOM     23  N   UNL     1      48.093   1.662   5.517  0.00  0.00    +0.000 NA
ATOM     24  C   UNL     1      47.455   2.109   6.379  0.00  0.00    +0.000 C 
ENDBRANCH  17  24
ENDBRANCH  14  20
ENDBRANCH   1  14
TORSDOF 4
ENDMDL
MODEL 3
REMARK VINA RESULT:    -7.669      1.673      2.307
REMARK INTER + INTRA:          -9.284
REMARK INTER:                  -8.693
REMARK INTRA:                  -0.591
REMARK UNBOUND:                 0.178
REMARK  Name = 
REMARK  4 active torsions:
REMARK  status: ('A' for Active; 'I' for Inactive)
REMARK    1  A    between atoms: C_2  and  C_3
REMARK    2  A    between atoms: C_6  and  C_7
REMARK    3  A    between atoms: C_7  and  N_8
REMARK    4  A    between atoms: C_12  and  C_13
REMARK                            x       y       z     vdW  Elec       q    Type
REMARK                         _______ _______ _______ _____ _____    ______ ____
ROOT
ATOM      1  N   UNL     1      44.538   3.969  11.317  0.00  0.00    +0.000 N 
ATOM      2  C   UNL     1      45.097   3.696  10.074  0.00  0.00    +0.000 A 
ATOM      3  C   UNL     1      45.606   4.667   9.220  0.00  0.00    +0.000 A 
ATOM      4  C   UNL     1      46.176   4.281   8.001  0.00  0.00    +0.000 A 
ATOM      5  C   UNL     1      46.225   2.929   7.667  0.00  0.00    +0.000 A 
ATOM      6  C   UNL     1      45.692   2.026   8.572  0.00  0.00    +0.000 A 
ATOM      7  N   UNL     1      45.144   2.383   9.760  0.00  0.00    +0.000 NA
ATOM      8  H   UNL     1      44.177   3.098  11.696  0.00  0.00    +0.000 HD
ENDROOT
BRANCH   5   9
ATOM      9  C   UNL     1      46.782   2.414   6.398  0.00  0.00    +0.000 C 
ATOM     10  N   UNL     1      46.963   3.307   5.379  0.00  0.00    +0.000 N 
ATOM     11  O   UNL     1      47.098   1.240   6.270  0.00  0.00    +0.000 OA
ATOM     12  H   UNL     1      46.948   4.308   5.513  0.00  0.00    +0.000 HD
ATOM     13  H   UNL     1      47.433   2.954   4.554  0.00  0.00    +0.000 HD
ENDBRANCH   5   9
BRANCH   1  14
ATOM     14  C   UNL     1      43.959   5.242  11.753  0.00  0.00    +0.000 C 
ATOM     15  C   UNL     1      42.547   5.641  11.370  0.00  0.00    +0.000 C 
ATOM     16  C   UNL     1      42.801   5.119  12.744  0.00  0.00    +0.000 C 
BRANCH  14  20
ATOM     17  C   UNL     1      46.868   8.314  12.812  0.00  0.00    +0.000 A 
ATOM     18  C   UNL     1      45.740   8.655  12.065  0.00  0.00    +0.000 A 
ATOM     19  C   UNL     1      44.817   7.669  11.700  0.00  0.00    +0.000 A 
ATOM     20  C   UNL     1      44.987   6.325  12.078  0.00  0.00    +0.000 A 
ATOM     21  C   UNL     1      46.149   6.005  12.802  0.00  0.00    +0.000 A 
ATOM     22  C   UNL     1      47.080   6.982  13.171  0.00  0.00    +0.000 A 
BRANCH  17  24
ATOM     23  N   UNL     1      48.547  10.146  13.553  0.00  0.00    +0.000 NA
ATOM     24  C   UNL     1      47.794   9.327  13.220  0.00  0.00    +0.000 C 
ENDBRANCH  17  24
ENDBRANCH  14  20
ENDBRANCH   1  14
TORSDOF 4
ENDMDL
MODEL 4
REMARK VINA RESULT:    -7.559      2.741      6.910
REMARK INTER + INTRA:          -9.148
REMARK INTER:                  -8.592
REMARK INTRA:                  -0.557
REMARK UNBOUND:                 0.178
REMARK  Name = 
REMARK  4 active torsions:
REMARK  status: ('A' for Active; 'I' for Inactive)
REMARK    1  A    between atoms: C_2  and  C_3
REMARK    2  A    between atoms: C_6  and  C_7
REMARK    3  A    between atoms: C_7  and  N_8
REMARK    4  A    between atoms: C_12  and  C_13
REMARK                            x       y       z     vdW  Elec       q    Type
REMARK                         _______ _______ _______ _____ _____    ______ ____
ROOT
ATOM      1  N   UNL     1      45.470   5.363  11.534  0.00  0.00    +0.000 N 
ATOM      2  C   UNL     1      46.086   5.009  12.729  0.00  0.00    +0.000 A 
ATOM      3  C   UNL     1      46.365   3.699  13.101  0.00  0.00    +0.000 A 
ATOM      4  C   UNL     1      47.017   3.453  14.315  0.00  0.00    +0.000 A 
ATOM      5  C   UNL     1      47.375   4.525  15.128  0.00  0.00    +0.000 A 
ATOM      6  C   UNL     1      47.056   5.799  14.686  0.00  0.00    +0.000 A 
ATOM      7  N   UNL     1      46.432   6.055  13.509  0.00  0.00    +0.000 NA
ATOM      8  H   UNL     1      45.315   6.367  11.548  0.00  0.00    +0.000 HD
ENDROOT
BRANCH   5   9
ATOM      9  C   UNL     1      48.044   4.378  16.438  0.00  0.00    +0.000 C 
ATOM     10  N   UNL     1      47.492   5.027  17.507  0.00  0.00    +0.000 N 
ATOM     11  O   UNL     1      49.038   3.678  16.572  0.00  0.00    +0.000 OA
ATOM     12  H   UNL     1      46.556   5.408  17.497  0.00  0.00    +0.000 HD
ATOM     13  H   UNL     1      47.908   4.837  18.410  0.00  0.00    +0.000 HD
ENDBRANCH   5   9
BRANCH   1  14
ATOM     14  C   UNL     1      44.613   4.511  10.706  0.00  0.00    +0.000 C 
ATOM     15  C   UNL     1      43.376   3.843  11.276  0.00  0.00    +0.000 C 
ATOM     16  C   UNL     1      43.215   5.067  10.439  0.00  0.00    +0.000 C 
BRANCH  14  20
ATOM     17  C   UNL     1      46.709   2.692   7.342  0.00  0.00    +0.000 A 
ATOM     18  C   UNL     1      46.620   4.081   7.434  0.00  0.00    +0.000 A 
ATOM     19  C   UNL     1      45.926   4.670   8.497  0.00  0.00    +0.000 A 
ATOM     20  C   UNL     1      45.316   3.893   9.498  0.00  0.00    +0.000 A 
ATOM     21  C   UNL     1      45.395   2.496   9.362  0.00  0.00    +0.000 A 
ATOM     22  C   UNL     1      46.084   1.896   8.303  0.00  0.00    +0.000 A 
BRANCH  17  24
ATOM     23  N   UNL     1      48.056   1.600   5.414  0.00  0.00    +0.000 NA
ATOM     24  C   UNL     1      47.451   2.088   6.277  0.00  0.00    +0.000 C 
ENDBRANCH  17  24
ENDBRANCH  14  20
ENDBRANCH   1  14
TORSDOF 4
ENDMDL
MODEL 5
REMARK VINA RESULT:    -7.464      3.061      6.796
REMARK INTER + INTRA:          -9.031
REMARK INTER:                  -8.444
REMARK INTRA:                  -0.587
REMARK UNBOUND:                 0.178
REMARK  Name = 
REMARK  4 active torsions:
REMARK  status: ('A' for Active; 'I' for Inactive)
REMARK    1  A    between atoms: C_2  and  C_3
REMARK    2  A    between atoms: C_6  and  C_7
REMARK    3  A    between atoms: C_7  and  N_8
REMARK    4  A    between atoms: C_12  and  C_13
REMARK                            x       y       z     vdW  Elec       q    Type
REMARK                         _______ _______ _______ _____ _____    ______ ____
ROOT
ATOM      1  N   UNL     1      44.818   6.398  11.487  0.00  0.00    +0.000 N 
ATOM      2  C   UNL     1      45.914   6.630  12.309  0.00  0.00    +0.000 A 
ATOM      3  C   UNL     1      46.831   5.653  12.676  0.00  0.00    +0.000 A 
ATOM      4  C   UNL     1      47.919   5.999  13.485  0.00  0.00    +0.000 A 
ATOM      5  C   UNL     1      48.065   7.318  13.907  0.00  0.00    +0.000 A 
ATOM      6  C   UNL     1      47.104   8.230  13.501  0.00  0.00    +0.000 A 
ATOM      7  N   UNL     1      46.049   7.912  12.710  0.00  0.00    +0.000 NA
ATOM      8  H   UNL     1      44.273   7.255  11.443  0.00  0.00    +0.000 HD
ENDROOT
BRANCH   5   9
ATOM      9  C   UNL     1      49.161   7.788  14.782  0.00  0.00    +0.000 C 
ATOM     10  N   UNL     1      50.438   7.446  14.434  0.00  0.00    +0.000 N 
ATOM     11  O   UNL     1      48.940   8.481  15.765  0.00  0.00    +0.000 OA
ATOM     12  H   UNL     1      50.684   7.091  13.521  0.00  0.00    +0.000 HD
ATOM     13  H   UNL     1      51.177   7.856  14.991  0.00  0.00    +0.000 HD
ENDBRANCH   5   9
BRANCH   1  14
ATOM     14  C   UNL     1      44.161   5.111  11.249  0.00  0.00    +0.000 C 
ATOM     15  C   UNL     1      43.363   4.418  12.337  0.00  0.00    +0.000 C 
ATOM     16  C   UNL     1      42.633   5.153  11.265  0.00  0.00    +0.000 C 
BRANCH  14  20
ATOM     17  C   UNL     1      46.018   2.688   8.134  0.00  0.00    +0.000 A 
ATOM     18  C   UNL     1      46.117   4.078   8.082  0.00  0.00    +0.000 A 
ATOM     19  C   UNL     1      45.501   4.862   9.064  0.00  0.00    +0.000 A 
ATOM     20  C   UNL     1      44.783   4.282  10.126  0.00  0.00    +0.000 A 
ATOM     21  C   UNL     1      44.674   2.880  10.135  0.00  0.00    +0.000 A 
ATOM     22  C   UNL     1      45.284   2.087   9.157  0.00  0.00    +0.000 A 
BRANCH  17  24
ATOM     23  N   UNL     1      47.220   1.231   6.358  0.00  0.00    +0.000 NA
ATOM     24  C   UNL     1      46.680   1.883   7.153  0.00  0.00    +0.000 C 
ENDBRANCH  17  24
ENDBRANCH  14  20
ENDBRANCH   1  14
TORSDOF 4
ENDMDL
MODEL 6
REMARK VINA RESULT:    -6.575      4.114      6.835
REMARK INTER + INTRA:          -7.935
REMARK INTER:                  -7.650
REMARK INTRA:                  -0.285
REMARK UNBOUND:                 0.178
REMARK  Name = 
REMARK  4 active torsions:
REMARK  status: ('A' for Active; 'I' for Inactive)
REMARK    1  A    between atoms: C_2  and  C_3
REMARK    2  A    between atoms: C_6  and  C_7
REMARK    3  A    between atoms: C_7  and  N_8
REMARK    4  A    between atoms: C_12  and  C_13
REMARK                            x       y       z     vdW  Elec       q    Type
REMARK                         _______ _______ _______ _____ _____    ______ ____
ROOT
ATOM      1  N   UNL     1      47.241   3.965  15.844  0.00  0.00    +0.000 N 
ATOM      2  C   UNL     1      46.885   4.585  14.651  0.00  0.00    +0.000 A 
ATOM      3  C   UNL     1      47.597   5.630  14.076  0.00  0.00    +0.000 A 
ATOM      4  C   UNL     1      47.169   6.164  12.854  0.00  0.00    +0.000 A 
ATOM      5  C   UNL     1      46.038   5.635  12.236  0.00  0.00    +0.000 A 
ATOM      6  C   UNL     1      45.383   4.597  12.879  0.00  0.00    +0.000 A 
ATOM      7  N   UNL     1      45.790   4.063  14.058  0.00  0.00    +0.000 NA
ATOM      8  H   UNL     1      46.516   3.293  16.075  0.00  0.00    +0.000 HD
ENDROOT
BRANCH   5   9
ATOM      9  C   UNL     1      45.486   6.137  10.960  0.00  0.00    +0.000 C 
ATOM     10  N   UNL     1      44.692   7.248  11.008  0.00  0.00    +0.000 N 
ATOM     11  O   UNL     1      45.751   5.599   9.894  0.00  0.00    +0.000 OA
ATOM     12  H   UNL     1      44.644   7.857  11.813  0.00  0.00    +0.000 HD
ATOM     13  H   UNL     1      44.403   7.630  10.116  0.00  0.00    +0.000 HD
ENDBRANCH   5   9
BRANCH   1  14
ATOM     14  C   UNL     1      48.067   4.535  16.911  0.00  0.00    +0.000 C 
ATOM     15  C   UNL     1      47.944   5.993  17.312  0.00  0.00    +0.000 C 
ATOM     16  C   UNL     1      47.300   4.953  18.166  0.00  0.00    +0.000 C 
BRANCH  14  20
ATOM     17  C   UNL     1      51.750   2.346  17.724  0.00  0.00    +0.000 A 
ATOM     18  C   UNL     1      51.719   3.732  17.876  0.00  0.00    +0.000 A 
ATOM     19  C   UNL     1      50.548   4.443  17.592  0.00  0.00    +0.000 A 
ATOM     20  C   UNL     1      49.378   3.792  17.160  0.00  0.00    +0.000 A 
ATOM     21  C   UNL     1      49.448   2.399  16.985  0.00  0.00    +0.000 A 
ATOM     22  C   UNL     1      50.614   1.678  17.264  0.00  0.00    +0.000 A 
BRANCH  17  24
ATOM     23  N   UNL     1      53.896   1.019  18.320  0.00  0.00    +0.000 NA
ATOM     24  C   UNL     1      52.934   1.612  18.051  0.00  0.00    +0.000 C 
ENDBRANCH  17  24
ENDBRANCH  14  20
ENDBRANCH   1  14
TORSDOF 4
ENDMDL
MODEL 7
REMARK VINA RESULT:    -6.196      3.959      5.558
REMARK INTER + INTRA:          -7.466
REMARK INTER:                  -7.103
REMARK INTRA:                  -0.363
REMARK UNBOUND:                 0.178
REMARK  Name = 
REMARK  4 active torsions:
REMARK  status: ('A' for Active; 'I' for Inactive)
REMARK    1  A    between atoms: C_2  and  C_3
REMARK    2  A    between atoms: C_6  and  C_7
REMARK    3  A    between atoms: C_7  and  N_8
REMARK    4  A    between atoms: C_12  and  C_13
REMARK                            x       y       z     vdW  Elec       q    Type
REMARK                         _______ _______ _______ _____ _____    ______ ____
ROOT
ATOM      1  N   UNL     1      47.453   6.663  13.157  0.00  0.00    +0.000 N 
ATOM      2  C   UNL     1      46.594   5.800  12.486  0.00  0.00    +0.000 A 
ATOM      3  C   UNL     1      46.064   6.053  11.227  0.00  0.00    +0.000 A 
ATOM      4  C   UNL     1      45.230   5.102  10.627  0.00  0.00    +0.000 A 
ATOM      5  C   UNL     1      44.949   3.917  11.303  0.00  0.00    +0.000 A 
ATOM      6  C   UNL     1      45.513   3.745  12.556  0.00  0.00    +0.000 A 
ATOM      7  N   UNL     1      46.329   4.653  13.148  0.00  0.00    +0.000 NA
ATOM      8  H   UNL     1      47.626   6.277  14.080  0.00  0.00    +0.000 HD
ENDROOT
BRANCH   5   9
ATOM      9  C   UNL     1      44.064   2.858  10.773  0.00  0.00    +0.000 C 
ATOM     10  N   UNL     1      44.500   2.155   9.685  0.00  0.00    +0.000 N 
ATOM     11  O   UNL     1      42.993   2.596  11.303  0.00  0.00    +0.000 OA
ATOM     12  H   UNL     1      45.460   2.166   9.370  0.00  0.00    +0.000 HD
ATOM     13  H   UNL     1      43.925   1.373   9.398  0.00  0.00    +0.000 HD
ENDBRANCH   5   9
BRANCH   1  14
ATOM     14  C   UNL     1      47.588   8.105  12.938  0.00  0.00    +0.000 C 
ATOM     15  C   UNL     1      46.380   9.023  12.952  0.00  0.00    +0.000 C 
ATOM     16  C   UNL     1      47.263   8.975  14.153  0.00  0.00    +0.000 C 
BRANCH  14  20
ATOM     17  C   UNL     1      51.224   9.236  10.811  0.00  0.00    +0.000 A 
ATOM     18  C   UNL     1      50.233  10.189  11.045  0.00  0.00    +0.000 A 
ATOM     19  C   UNL     1      49.052   9.826  11.704  0.00  0.00    +0.000 A 
ATOM     20  C   UNL     1      48.835   8.511  12.154  0.00  0.00    +0.000 A 
ATOM     21  C   UNL     1      49.838   7.565  11.877  0.00  0.00    +0.000 A 
ATOM     22  C   UNL     1      51.020   7.916  11.217  0.00  0.00    +0.000 A 
BRANCH  17  24
ATOM     23  N   UNL     1      53.441   9.916   9.652  0.00  0.00    +0.000 NA
ATOM     24  C   UNL     1      52.448   9.613  10.172  0.00  0.00    +0.000 C 
ENDBRANCH  17  24
ENDBRANCH  14  20
ENDBRANCH   1  14
TORSDOF 4
ENDMDL
MODEL 8
REMARK VINA RESULT:    -6.029      5.301      8.978
REMARK INTER + INTRA:          -7.260
REMARK INTER:                  -6.686
REMARK INTRA:                  -0.574
REMARK UNBOUND:                 0.178
REMARK  Name = 
REMARK  4 active torsions:
REMARK  status: ('A' for Active; 'I' for Inactive)
REMARK    1  A    between atoms: C_2  and  C_3
REMARK    2  A    between atoms: C_6  and  C_7
REMARK    3  A    between atoms: C_7  and  N_8
REMARK    4  A    between atoms: C_12  and  C_13
REMARK                            x       y       z     vdW  Elec       q    Type
REMARK                         _______ _______ _______ _____ _____    ______ ____
ROOT
ATOM      1  N   UNL     1      50.385   5.042  17.665  0.00  0.00    +0.000 N 
ATOM      2  C   UNL     1      51.040   3.816  17.695  0.00  0.00    +0.000 A 
ATOM      3  C   UNL     1      50.471   2.620  17.275  0.00  0.00    +0.000 A 
ATOM      4  C   UNL     1      51.229   1.444  17.319  0.00  0.00    +0.000 A 
ATOM      5  C   UNL     1      52.543   1.495  17.782  0.00  0.00    +0.000 A 
ATOM      6  C   UNL     1      53.032   2.726  18.187  0.00  0.00    +0.000 A 
ATOM      7  N   UNL     1      52.313   3.876  18.142  0.00  0.00    +0.000 NA
ATOM      8  H   UNL     1      50.993   5.732  18.097  0.00  0.00    +0.000 HD
ENDROOT
BRANCH   5   9
ATOM      9  C   UNL     1      53.423   0.313  17.893  0.00  0.00    +0.000 C 
ATOM     10  N   UNL     1      53.801  -0.306  16.733  0.00  0.00    +0.000 N 
ATOM     11  O   UNL     1      53.825  -0.085  18.977  0.00  0.00    +0.000 OA
ATOM     12  H   UNL     1      53.698   0.120  15.823  0.00  0.00    +0.000 HD
ATOM     13  H   UNL     1      54.478  -1.052  16.825  0.00  0.00    +0.000 HD
ENDBRANCH   5   9
BRANCH   1  14
ATOM     14  C   UNL     1      48.936   5.258  17.657  0.00  0.00    +0.000 C 
ATOM     15  C   UNL     1      48.072   4.862  18.839  0.00  0.00    +0.000 C 
ATOM     16  C   UNL     1      48.433   6.297  18.659  0.00  0.00    +0.000 C 
BRANCH  14  20
ATOM     17  C   UNL     1      47.109   5.602  13.713  0.00  0.00    +0.000 A 
ATOM     18  C   UNL     1      46.776   4.528  14.539  0.00  0.00    +0.000 A 
ATOM     19  C   UNL     1      47.379   4.398  15.795  0.00  0.00    +0.000 A 
ATOM     20  C   UNL     1      48.317   5.337  16.263  0.00  0.00    +0.000 A 
ATOM     21  C   UNL     1      48.655   6.391  15.395  0.00  0.00    +0.000 A 
ATOM     22  C   UNL     1      48.060   6.529  14.137  0.00  0.00    +0.000 A 
BRANCH  17  24
ATOM     23  N   UNL     1      45.944   5.882  11.413  0.00  0.00    +0.000 NA
ATOM     24  C   UNL     1      46.465   5.758  12.444  0.00  0.00    +0.000 C 
ENDBRANCH  17  24
ENDBRANCH  14  20
ENDBRANCH   1  14
TORSDOF 4
ENDMDL
MODEL 9
REMARK VINA RESULT:    -6.028      3.514      5.436
REMARK INTER + INTRA:          -7.259
REMARK INTER:                  -6.615
REMARK INTRA:                  -0.644
REMARK UNBOUND:                 0.178
REMARK  Name = 
REMARK  4 active torsions:
REMARK  status: ('A' for Active; 'I' for Inactive)
REMARK    1  A    between atoms: C_2  and  C_3
REMARK    2  A    between atoms: C_6  and  C_7
REMARK    3  A    between atoms: C_7  and  N_8
REMARK    4  A    between atoms: C_12  and  C_13
REMARK                            x       y       z     vdW  Elec       q    Type
REMARK                         _______ _______ _______ _____ _____    ______ ____
ROOT
ATOM      1  N   UNL     1      47.197   7.834  12.282  0.00  0.00    +0.000 N 
ATOM      2  C   UNL     1      46.465   6.655  12.200  0.00  0.00    +0.000 A 
ATOM      3  C   UNL     1      46.742   5.515  12.945  0.00  0.00    +0.000 A 
ATOM      4  C   UNL     1      45.923   4.388  12.809  0.00  0.00    +0.000 A 
ATOM      5  C   UNL     1      44.843   4.431  11.929  0.00  0.00    +0.000 A 
ATOM      6  C   UNL     1      44.640   5.603  11.220  0.00  0.00    +0.000 A 
ATOM      7  N   UNL     1      45.419   6.706  11.347  0.00  0.00    +0.000 NA
ATOM      8  H   UNL     1      46.836   8.475  11.582  0.00  0.00    +0.000 HD
ENDROOT
BRANCH   5   9
ATOM      9  C   UNL     1      43.931   3.292  11.690  0.00  0.00    +0.000 C 
ATOM     10  N   UNL     1      43.733   2.413  12.719  0.00  0.00    +0.000 N 
ATOM     11  O   UNL     1      43.349   3.153  10.624  0.00  0.00    +0.000 OA
ATOM     12  H   UNL     1      43.992   2.616  13.674  0.00  0.00    +0.000 HD
ATOM     13  H   UNL     1      43.033   1.698  12.567  0.00  0.00    +0.000 HD
ENDBRANCH   5   9
BRANCH   1  14
ATOM     14  C   UNL     1      48.579   7.974  12.747  0.00  0.00    +0.000 C 
ATOM     15  C   UNL     1      49.747   7.492  11.908  0.00  0.00    +0.000 C 
ATOM     16  C   UNL     1      49.435   8.951  11.941  0.00  0.00    +0.000 C 
BRANCH  14  20
ATOM     17  C   UNL     1      48.938   8.127  17.091  0.00  0.00    +0.000 A 
ATOM     18  C   UNL     1      48.223   9.118  16.419  0.00  0.00    +0.000 A 
ATOM     19  C   UNL     1      48.126   9.089  15.023  0.00  0.00    +0.000 A 
ATOM     20  C   UNL     1      48.728   8.069  14.265  0.00  0.00    +0.000 A 
ATOM     21  C   UNL     1      49.469   7.101  14.966  0.00  0.00    +0.000 A 
ATOM     22  C   UNL     1      49.574   7.122  16.361  0.00  0.00    +0.000 A 
BRANCH  17  24
ATOM     23  N   UNL     1      49.058   8.135  19.681  0.00  0.00    +0.000 NA
ATOM     24  C   UNL     1      49.006   8.133  18.520  0.00  0.00    +0.000 C 
ENDBRANCH  17  24
ENDBRANCH  14  20
ENDBRANCH   1  14
TORSDOF 4
ENDMDL
