MODEL 1
REMARK VINA RESULT:    -7.869      0.000      0.000
REMARK INTER + INTRA:         -11.731
REMARK INTER:                 -10.629
REMARK INTRA:                  -1.102
REMARK UNBOUND:                -1.102
REMARK  Name = 
REMARK  6 active torsions:
REMARK  status: ('A' for Active; 'I' for Inactive)
REMARK    1  A    between atoms: C_2  and  C_25
REMARK    2  A    between atoms: N_3  and  C_4
REMARK    3  A    between atoms: C_4  and  C_5
REMARK    4  A    between atoms: C_8  and  C_9
REMARK    5  A    between atoms: C_9  and  N_10
REMARK    6  A    between atoms: C_11  and  C_13
REMARK                            x       y       z     vdW  Elec       q    Type
REMARK                         _______ _______ _______ _____ _____    ______ ____
ROOT
ATOM      1  C   UNL     1      44.869   5.643  10.817  0.00  0.00    +0.000 A 
ATOM      2  C   UNL     1      46.213   5.962  10.576  0.00  0.00    +0.000 A 
ATOM      3  C   UNL     1      46.917   6.801  11.450  0.00  0.00    +0.000 A 
ATOM      4  C   UNL     1      46.300   7.320  12.595  0.00  0.00    +0.000 A 
ATOM      5  C   UNL     1      44.954   7.005  12.831  0.00  0.00    +0.000 A 
ATOM      6  C   UNL     1      44.249   6.168  11.958  0.00  0.00    +0.000 A 
ENDROOT
BRANCH   1   7
ATOM      7  C   UNL     1      44.110   4.746   9.875  0.00  0.00    +0.000 C 
BRANCH   7  10
ATOM      8  O   UNL     1      45.006   2.131   9.824  0.00  0.00    +0.000 OA
ATOM      9  C   UNL     1      45.361   2.868   8.905  0.00  0.00    +0.000 C 
ATOM     10  N   UNL     1      44.965   4.188   8.855  0.00  0.00    +0.000 N 
ATOM     11  H   UNL     1      45.193   4.742   8.041  0.00  0.00    +0.000 HD
BRANCH   9  12
ATOM     12  C   UNL     1      46.204   2.409   7.821  0.00  0.00    +0.000 A 
ATOM     13  C   UNL     1      46.778   1.158   7.680  0.00  0.00    +0.000 A 
ATOM     14  N   UNL     1      47.568   0.974   6.560  0.00  0.00    +0.000 NA
ATOM     15  C   UNL     1      47.589   2.087   5.863  0.00  0.00    +0.000 A 
ATOM     16  S   UNL     1      46.664   3.389   6.488  0.00  0.00    +0.000 S 
ENDBRANCH   9  12
ENDBRANCH   7  10
ENDBRANCH   1   7
BRANCH   4  17
ATOM     17  C   UNL     1      47.046   8.223  13.548  0.00  0.00    +0.000 C 
BRANCH  17  18
ATOM     18  N   UNL     1      47.513   7.498  14.706  0.00  0.00    +0.000 N 
ATOM     19  C   UNL     1      48.754   6.912  14.735  0.00  0.00    +0.000 C 
ATOM     20  O   UNL     1      49.550   7.008  13.807  0.00  0.00    +0.000 OA
ATOM     21  H   UNL     1      46.803   7.182  15.354  0.00  0.00    +0.000 HD
BRANCH  19  22
ATOM     22  C   UNL     1      49.110   6.229  15.989  0.00  0.00    +0.000 A 
ATOM     23  C   UNL     1      50.177   6.687  16.753  0.00  0.00    +0.000 A 
ATOM     24  S   UNL     1      50.401   5.814  18.202  0.00  0.00    +0.000 S 
ATOM     25  C   UNL     1      49.120   4.759  17.835  0.00  0.00    +0.000 A 
ATOM     26  N   UNL     1      48.788   3.737  18.668  0.00  0.00    +0.000 NA
ATOM     27  C   UNL     1      47.815   2.998  18.247  0.00  0.00    +0.000 A 
ATOM     28  N   UNL     1      47.143   3.190  17.069  0.00  0.00    +0.000 N 
ATOM     29  C   UNL     1      47.421   4.227  16.213  0.00  0.00    +0.000 A 
ATOM     30  O   UNL     1      46.764   4.400  15.190  0.00  0.00    +0.000 OA
ATOM     31  C   UNL     1      48.516   5.080  16.631  0.00  0.00    +0.000 A 
ATOM     32  H   UNL     1      46.383   2.583  16.801  0.00  0.00    +0.000 HD
ENDBRANCH  19  22
ENDBRANCH  17  18
ENDBRANCH   4  17
TORSDOF 6
ENDMDL
MODEL 2
REMARK VINA RESULT:    -7.327      1.954      2.297
REMARK INTER + INTRA:         -10.998
REMARK INTER:                 -10.133
REMARK INTRA:                  -0.866
REMARK UNBOUND:                -1.102
REMARK  Name = 
REMARK  6 active torsions:
REMARK  status: ('A' for Active; 'I' for Inactive)
REMARK    1  A    between atoms: C_2  and  C_25
REMARK    2  A    between atoms: N_3  and  C_4
REMARK    3  A    between atoms: C_4  and  C_5
REMARK    4  A    between atoms: C_8  and  C_9
REMARK    5  A    between atoms: C_9  and  N_10
REMARK    6  A    between atoms: C_11  and  C_13
REMARK                            x       y       z     vdW  Elec       q    Type
REMARK                         _______ _______ _______ _____ _____    ______ ____
ROOT
ATOM      1  C   UNL     1      44.757   4.759  11.685  0.00  0.00    +0.000 A 
ATOM      2  C   UNL     1      45.835   4.807  12.579  0.00  0.00    +0.000 A 
ATOM      3  C   UNL     1      46.359   6.036  13.004  0.00  0.00    +0.000 A 
ATOM      4  C   UNL     1      45.801   7.242  12.563  0.00  0.00    +0.000 A 
ATOM      5  C   UNL     1      44.727   7.192  11.662  0.00  0.00    +0.000 A 
ATOM      6  C   UNL     1      44.203   5.966  11.236  0.00  0.00    +0.000 A 
ENDROOT
BRANCH   1   7
ATOM      7  C   UNL     1      44.198   3.439  11.224  0.00  0.00    +0.000 C 
BRANCH   7  10
ATOM      8  O   UNL     1      44.274   3.994   8.517  0.00  0.00    +0.000 OA
ATOM      9  C   UNL     1      45.043   3.132   8.938  0.00  0.00    +0.000 C 
ATOM     10  N   UNL     1      45.067   2.788  10.275  0.00  0.00    +0.000 N 
ATOM     11  H   UNL     1      45.774   2.146  10.608  0.00  0.00    +0.000 HD
BRANCH   9  12
ATOM     12  C   UNL     1      45.970   2.427   8.078  0.00  0.00    +0.000 A 
ATOM     13  C   UNL     1      46.244   1.070   8.078  0.00  0.00    +0.000 A 
ATOM     14  N   UNL     1      47.195   0.642   7.169  0.00  0.00    +0.000 NA
ATOM     15  C   UNL     1      47.636   1.677   6.492  0.00  0.00    +0.000 A 
ATOM     16  S   UNL     1      46.935   3.193   6.882  0.00  0.00    +0.000 S 
ENDBRANCH   9  12
ENDBRANCH   7  10
ENDBRANCH   1   7
BRANCH   4  17
ATOM     17  C   UNL     1      46.352   8.574  13.012  0.00  0.00    +0.000 C 
BRANCH  17  18
ATOM     18  N   UNL     1      46.879   8.501  14.354  0.00  0.00    +0.000 N 
ATOM     19  C   UNL     1      48.065   9.103  14.695  0.00  0.00    +0.000 C 
ATOM     20  O   UNL     1      48.716   9.772  13.901  0.00  0.00    +0.000 OA
ATOM     21  H   UNL     1      46.518   7.757  14.938  0.00  0.00    +0.000 HD
BRANCH  19  22
ATOM     22  C   UNL     1      48.468   8.971  16.104  0.00  0.00    +0.000 A 
ATOM     23  C   UNL     1      48.521  10.093  16.922  0.00  0.00    +0.000 A 
ATOM     24  S   UNL     1      48.946   9.740  18.536  0.00  0.00    +0.000 S 
ATOM     25  C   UNL     1      49.129   8.085  18.189  0.00  0.00    +0.000 A 
ATOM     26  N   UNL     1      49.513   7.203  19.150  0.00  0.00    +0.000 NA
ATOM     27  C   UNL     1      49.641   5.985  18.736  0.00  0.00    +0.000 A 
ATOM     28  N   UNL     1      49.419   5.571  17.449  0.00  0.00    +0.000 N 
ATOM     29  C   UNL     1      48.998   6.420  16.456  0.00  0.00    +0.000 A 
ATOM     30  O   UNL     1      48.758   6.005  15.325  0.00  0.00    +0.000 OA
ATOM     31  C   UNL     1      48.851   7.803  16.862  0.00  0.00    +0.000 A 
ATOM     32  H   UNL     1      49.526   4.602  17.191  0.00  0.00    +0.000 HD
ENDBRANCH  19  22
ENDBRANCH  17  18
ENDBRANCH   4  17
TORSDOF 6
ENDMDL
MODEL 3
REMARK VINA RESULT:    -7.077      4.784      9.254
REMARK INTER + INTRA:         -10.661
REMARK INTER:                  -9.905
REMARK INTRA:                  -0.756
REMARK UNBOUND:                -1.102
REMARK  Name = 
REMARK  6 active torsions:
REMARK  status: ('A' for Active; 'I' for Inactive)
REMARK    1  A    between atoms: C_2  and  C_25
REMARK    2  A    between atoms: N_3  and  C_4
REMARK    3  A    between atoms: C_4  and  C_5
REMARK    4  A    between atoms: C_8  and  C_9
REMARK    5  A    between atoms: C_9  and  N_10
REMARK    6  A    between atoms: C_11  and  C_13
REMARK                            x       y       z     vdW  Elec       q    Type
REMARK                         _______ _______ _______ _____ _____    ______ ____
ROOT
ATOM      1  C   UNL     1      51.392   3.196  17.750  0.00  0.00    +0.000 A 
ATOM      2  C   UNL     1      50.700   4.380  18.041  0.00  0.00    +0.000 A 
ATOM      3  C   UNL     1      49.325   4.485  17.789  0.00  0.00    +0.000 A 
ATOM      4  C   UNL     1      48.609   3.401  17.266  0.00  0.00    +0.000 A 
ATOM      5  C   UNL     1      49.305   2.219  16.970  0.00  0.00    +0.000 A 
ATOM      6  C   UNL     1      50.679   2.114  17.219  0.00  0.00    +0.000 A 
ENDROOT
BRANCH   1   7
ATOM      7  C   UNL     1      52.871   3.085  18.014  0.00  0.00    +0.000 C 
BRANCH   7  10
ATOM      8  O   UNL     1      54.265   1.345  19.647  0.00  0.00    +0.000 OA
ATOM      9  C   UNL     1      54.080   1.000  18.482  0.00  0.00    +0.000 C 
ATOM     10  N   UNL     1      53.399   1.810  17.597  0.00  0.00    +0.000 N 
ATOM     11  H   UNL     1      53.179   1.459  16.675  0.00  0.00    +0.000 HD
BRANCH   9  12
ATOM     12  C   UNL     1      54.550  -0.267  17.961  0.00  0.00    +0.000 A 
ATOM     13  C   UNL     1      54.630  -1.471  18.639  0.00  0.00    +0.000 A 
ATOM     14  N   UNL     1      55.141  -2.539  17.922  0.00  0.00    +0.000 NA
ATOM     15  C   UNL     1      55.448  -2.134  16.711  0.00  0.00    +0.000 A 
ATOM     16  S   UNL     1      55.128  -0.486  16.360  0.00  0.00    +0.000 S 
ENDBRANCH   9  12
ENDBRANCH   7  10
ENDBRANCH   1   7
BRANCH   4  17
ATOM     17  C   UNL     1      47.127   3.496  16.992  0.00  0.00    +0.000 C 
BRANCH  17  18
ATOM     18  N   UNL     1      46.843   4.464  15.959  0.00  0.00    +0.000 N 
ATOM     19  C   UNL     1      46.991   4.159  14.628  0.00  0.00    +0.000 C 
ATOM     20  O   UNL     1      47.324   3.045  14.241  0.00  0.00    +0.000 OA
ATOM     21  H   UNL     1      46.831   5.434  16.244  0.00  0.00    +0.000 HD
BRANCH  19  22
ATOM     22  C   UNL     1      46.639   5.232  13.684  0.00  0.00    +0.000 A 
ATOM     23  C   UNL     1      47.555   6.237  13.399  0.00  0.00    +0.000 A 
ATOM     24  S   UNL     1      47.000   7.356  12.238  0.00  0.00    +0.000 S 
ATOM     25  C   UNL     1      45.495   6.573  12.115  0.00  0.00    +0.000 A 
ATOM     26  N   UNL     1      44.521   7.044  11.293  0.00  0.00    +0.000 NA
ATOM     27  C   UNL     1      43.420   6.367  11.325  0.00  0.00    +0.000 A 
ATOM     28  N   UNL     1      43.208   5.260  12.103  0.00  0.00    +0.000 N 
ATOM     29  C   UNL     1      44.174   4.729  12.923  0.00  0.00    +0.000 A 
ATOM     30  O   UNL     1      43.966   3.705  13.568  0.00  0.00    +0.000 OA
ATOM     31  C   UNL     1      45.425   5.460  12.937  0.00  0.00    +0.000 A 
ATOM     32  H   UNL     1      42.328   4.768  12.075  0.00  0.00    +0.000 HD
ENDBRANCH  19  22
ENDBRANCH  17  18
ENDBRANCH   4  17
TORSDOF 6
ENDMDL
MODEL 4
REMARK VINA RESULT:    -6.640      1.684      2.009
REMARK INTER + INTRA:         -10.071
REMARK INTER:                  -9.341
REMARK INTRA:                  -0.730
REMARK UNBOUND:                -1.102
REMARK  Name = 
REMARK  6 active torsions:
REMARK  status: ('A' for Active; 'I' for Inactive)
REMARK    1  A    between atoms: C_2  and  C_25
REMARK    2  A    between atoms: N_3  and  C_4
REMARK    3  A    between atoms: C_4  and  C_5
REMARK    4  A    between atoms: C_8  and  C_9
REMARK    5  A    between atoms: C_9  and  N_10
REMARK    6  A    between atoms: C_11  and  C_13
REMARK                            x       y       z     vdW  Elec       q    Type
REMARK                         _______ _______ _______ _____ _____    ______ ____
ROOT
ATOM      1  C   UNL     1      45.289   5.408  11.446  0.00  0.00    +0.000 A 
ATOM      2  C   UNL     1      45.399   6.769  11.126  0.00  0.00    +0.000 A 
ATOM      3  C   UNL     1      46.087   7.650  11.971  0.00  0.00    +0.000 A 
ATOM      4  C   UNL     1      46.702   7.186  13.140  0.00  0.00    +0.000 A 
ATOM      5  C   UNL     1      46.585   5.826  13.463  0.00  0.00    +0.000 A 
ATOM      6  C   UNL     1      45.897   4.945  12.620  0.00  0.00    +0.000 A 
ENDROOT
BRANCH   1   7
ATOM      7  C   UNL     1      44.544   4.462  10.541  0.00  0.00    +0.000 C 
BRANCH   7  10
ATOM      8  O   UNL     1      44.473   1.879   9.561  0.00  0.00    +0.000 OA
ATOM      9  C   UNL     1      45.275   2.656   9.046  0.00  0.00    +0.000 C 
ATOM     10  N   UNL     1      45.380   3.963   9.478  0.00  0.00    +0.000 N 
ATOM     11  H   UNL     1      45.978   4.603   8.973  0.00  0.00    +0.000 HD
BRANCH   9  12
ATOM     12  C   UNL     1      46.150   2.267   7.961  0.00  0.00    +0.000 A 
ATOM     13  C   UNL     1      46.718   1.022   7.751  0.00  0.00    +0.000 A 
ATOM     14  N   UNL     1      47.544   0.909   6.647  0.00  0.00    +0.000 NA
ATOM     15  C   UNL     1      47.599   2.069   6.033  0.00  0.00    +0.000 A 
ATOM     16  S   UNL     1      46.664   3.333   6.718  0.00  0.00    +0.000 S 
ENDBRANCH   9  12
ENDBRANCH   7  10
ENDBRANCH   1   7
BRANCH   4  17
ATOM     17  C   UNL     1      47.449   8.121  14.060  0.00  0.00    +0.000 C 
BRANCH  17  18
ATOM     18  N   UNL     1      48.682   7.531  14.524  0.00  0.00    +0.000 N 
ATOM     19  C   UNL     1      49.071   7.615  15.838  0.00  0.00    +0.000 C 
ATOM     20  O   UNL     1      48.378   8.151  16.696  0.00  0.00    +0.000 OA
ATOM     21  H   UNL     1      49.378   7.330  13.817  0.00  0.00    +0.000 HD
BRANCH  19  22
ATOM     22  C   UNL     1      50.336   6.944  16.176  0.00  0.00    +0.000 A 
ATOM     23  C   UNL     1      51.544   7.474  15.738  0.00  0.00    +0.000 A 
ATOM     24  S   UNL     1      52.906   6.600  16.276  0.00  0.00    +0.000 S 
ATOM     25  C   UNL     1      51.932   5.451  17.065  0.00  0.00    +0.000 A 
ATOM     26  N   UNL     1      52.481   4.394  17.721  0.00  0.00    +0.000 NA
ATOM     27  C   UNL     1      51.619   3.586  18.247  0.00  0.00    +0.000 A 
ATOM     28  N   UNL     1      50.260   3.742  18.178  0.00  0.00    +0.000 N 
ATOM     29  C   UNL     1      49.663   4.811  17.556  0.00  0.00    +0.000 A 
ATOM     30  O   UNL     1      48.443   4.946  17.558  0.00  0.00    +0.000 OA
ATOM     31  C   UNL     1      50.584   5.742  16.935  0.00  0.00    +0.000 A 
ATOM     32  H   UNL     1      49.640   3.080  18.620  0.00  0.00    +0.000 HD
ENDBRANCH  19  22
ENDBRANCH  17  18
ENDBRANCH   4  17
TORSDOF 6
ENDMDL
MODEL 5
REMARK VINA RESULT:    -6.555      2.918      8.597
REMARK INTER + INTRA:          -9.956
REMARK INTER:                  -9.091
REMARK INTRA:                  -0.865
REMARK UNBOUND:                -1.102
REMARK  Name = 
REMARK  6 active torsions:
REMARK  status: ('A' for Active; 'I' for Inactive)
REMARK    1  A    between atoms: C_2  and  C_25
REMARK    2  A    between atoms: N_3  and  C_4
REMARK    3  A    between atoms: C_4  and  C_5
REMARK    4  A    between atoms: C_8  and  C_9
REMARK    5  A    between atoms: C_9  and  N_10
REMARK    6  A    between atoms: C_11  and  C_13
REMARK                            x       y       z     vdW  Elec       q    Type
REMARK                         _______ _______ _______ _____ _____    ______ ____
ROOT
ATOM      1  C   UNL     1      50.141   7.183  15.597  0.00  0.00    +0.000 A 
ATOM      2  C   UNL     1      50.439   8.143  14.620  0.00  0.00    +0.000 A 
ATOM      3  C   UNL     1      49.621   8.293  13.491  0.00  0.00    +0.000 A 
ATOM      4  C   UNL     1      48.476   7.504  13.328  0.00  0.00    +0.000 A 
ATOM      5  C   UNL     1      48.184   6.539  14.303  0.00  0.00    +0.000 A 
ATOM      6  C   UNL     1      49.000   6.387  15.430  0.00  0.00    +0.000 A 
ENDROOT
BRANCH   1   7
ATOM      7  C   UNL     1      51.023   7.018  16.807  0.00  0.00    +0.000 C 
BRANCH   7  10
ATOM      8  O   UNL     1      50.011   5.170  18.596  0.00  0.00    +0.000 OA
ATOM      9  C   UNL     1      50.929   4.804  17.865  0.00  0.00    +0.000 C 
ATOM     10  N   UNL     1      51.497   5.663  16.946  0.00  0.00    +0.000 N 
ATOM     11  H   UNL     1      52.183   5.307  16.294  0.00  0.00    +0.000 HD
BRANCH   9  12
ATOM     12  C   UNL     1      51.471   3.461  17.908  0.00  0.00    +0.000 A 
ATOM     13  C   UNL     1      52.660   3.059  18.489  0.00  0.00    +0.000 A 
ATOM     14  N   UNL     1      52.969   1.715  18.374  0.00  0.00    +0.000 NA
ATOM     15  C   UNL     1      52.014   1.113  17.702  0.00  0.00    +0.000 A 
ATOM     16  S   UNL     1      50.705   2.099  17.198  0.00  0.00    +0.000 S 
ENDBRANCH   9  12
ENDBRANCH   7  10
ENDBRANCH   1   7
BRANCH   4  17
ATOM     17  C   UNL     1      47.584   7.654  12.119  0.00  0.00    +0.000 C 
BRANCH  17  18
ATOM     18  N   UNL     1      46.862   6.436  11.841  0.00  0.00    +0.000 N 
ATOM     19  C   UNL     1      45.493   6.419  11.731  0.00  0.00    +0.000 C 
ATOM     20  O   UNL     1      44.814   7.436  11.815  0.00  0.00    +0.000 OA
ATOM     21  H   UNL     1      47.351   5.571  12.031  0.00  0.00    +0.000 HD
BRANCH  19  22
ATOM     22  C   UNL     1      44.892   5.113  11.418  0.00  0.00    +0.000 A 
ATOM     23  C   UNL     1      44.121   4.455  12.369  0.00  0.00    +0.000 A 
ATOM     24  S   UNL     1      43.456   2.987  11.809  0.00  0.00    +0.000 S 
ATOM     25  C   UNL     1      44.219   3.148  10.298  0.00  0.00    +0.000 A 
ATOM     26  N   UNL     1      44.082   2.198   9.335  0.00  0.00    +0.000 NA
ATOM     27  C   UNL     1      44.742   2.437   8.250  0.00  0.00    +0.000 A 
ATOM     28  N   UNL     1      45.526   3.542   8.042  0.00  0.00    +0.000 N 
ATOM     29  C   UNL     1      45.666   4.542   8.972  0.00  0.00    +0.000 A 
ATOM     30  O   UNL     1      46.336   5.543   8.731  0.00  0.00    +0.000 OA
ATOM     31  C   UNL     1      44.957   4.317  10.216  0.00  0.00    +0.000 A 
ATOM     32  H   UNL     1      46.009   3.676   7.166  0.00  0.00    +0.000 HD
ENDBRANCH  19  22
ENDBRANCH  17  18
ENDBRANCH   4  17
TORSDOF 6
ENDMDL
MODEL 6
REMARK VINA RESULT:    -6.508      2.127      2.515
REMARK INTER + INTRA:          -9.893
REMARK INTER:                  -8.968
REMARK INTRA:                  -0.925
REMARK UNBOUND:                -1.102
REMARK  Name = 
REMARK  6 active torsions:
REMARK  status: ('A' for Active; 'I' for Inactive)
REMARK    1  A    between atoms: C_2  and  C_25
REMARK    2  A    between atoms: N_3  and  C_4
REMARK    3  A    between atoms: C_4  and  C_5
REMARK    4  A    between atoms: C_8  and  C_9
REMARK    5  A    between atoms: C_9  and  N_10
REMARK    6  A    between atoms: C_11  and  C_13
REMARK                            x       y       z     vdW  Elec       q    Type
REMARK                         _______ _______ _______ _____ _____    ______ ____
ROOT
ATOM      1  C   UNL     1      45.196   6.070  11.435  0.00  0.00    +0.000 A 
ATOM      2  C   UNL     1      45.138   7.468  11.517  0.00  0.00    +0.000 A 
ATOM      3  C   UNL     1      45.986   8.170  12.385  0.00  0.00    +0.000 A 
ATOM      4  C   UNL     1      46.926   7.491  13.170  0.00  0.00    +0.000 A 
ATOM      5  C   UNL     1      46.978   6.092  13.092  0.00  0.00    +0.000 A 
ATOM      6  C   UNL     1      46.130   5.389  12.227  0.00  0.00    +0.000 A 
ENDROOT
BRANCH   1   7
ATOM      7  C   UNL     1      44.280   5.314  10.508  0.00  0.00    +0.000 C 
BRANCH   7  10
ATOM      8  O   UNL     1      44.622   2.601  10.107  0.00  0.00    +0.000 OA
ATOM      9  C   UNL     1      45.115   3.361   9.276  0.00  0.00    +0.000 C 
ATOM     10  N   UNL     1      44.997   4.730   9.401  0.00  0.00    +0.000 N 
ATOM     11  H   UNL     1      45.329   5.325   8.654  0.00  0.00    +0.000 HD
BRANCH   9  12
ATOM     12  C   UNL     1      45.840   2.883   8.117  0.00  0.00    +0.000 A 
ATOM     13  C   UNL     1      46.165   3.602   6.979  0.00  0.00    +0.000 A 
ATOM     14  N   UNL     1      46.845   2.907   5.995  0.00  0.00    +0.000 NA
ATOM     15  C   UNL     1      47.026   1.668   6.393  0.00  0.00    +0.000 A 
ATOM     16  S   UNL     1      46.421   1.276   7.949  0.00  0.00    +0.000 S 
ENDBRANCH   9  12
ENDBRANCH   7  10
ENDBRANCH   1   7
BRANCH   4  17
ATOM     17  C   UNL     1      47.849   8.233  14.108  0.00  0.00    +0.000 C 
BRANCH  17  18
ATOM     18  N   UNL     1      47.971   7.552  15.374  0.00  0.00    +0.000 N 
ATOM     19  C   UNL     1      49.177   7.063  15.815  0.00  0.00    +0.000 C 
ATOM     20  O   UNL     1      50.218   7.216  15.187  0.00  0.00    +0.000 OA
ATOM     21  H   UNL     1      47.116   7.184  15.771  0.00  0.00    +0.000 HD
BRANCH  19  22
ATOM     22  C   UNL     1      49.160   6.417  17.137  0.00  0.00    +0.000 A 
ATOM     23  C   UNL     1      49.717   5.154  17.301  0.00  0.00    +0.000 A 
ATOM     24  S   UNL     1      49.663   4.590  18.910  0.00  0.00    +0.000 S 
ATOM     25  C   UNL     1      48.846   5.986  19.435  0.00  0.00    +0.000 A 
ATOM     26  N   UNL     1      48.470   6.135  20.733  0.00  0.00    +0.000 NA
ATOM     27  C   UNL     1      47.830   7.231  20.981  0.00  0.00    +0.000 A 
ATOM     28  N   UNL     1      47.535   8.190  20.049  0.00  0.00    +0.000 N 
ATOM     29  C   UNL     1      47.923   8.097  18.735  0.00  0.00    +0.000 A 
ATOM     30  O   UNL     1      47.686   9.000  17.937  0.00  0.00    +0.000 OA
ATOM     31  C   UNL     1      48.633   6.879  18.398  0.00  0.00    +0.000 A 
ATOM     32  H   UNL     1      47.040   9.030  20.309  0.00  0.00    +0.000 HD
ENDBRANCH  19  22
ENDBRANCH  17  18
ENDBRANCH   4  17
TORSDOF 6
ENDMDL
MODEL 7
REMARK VINA RESULT:    -6.471      4.615      7.361
REMARK INTER + INTRA:          -9.843
REMARK INTER:                  -8.986
REMARK INTRA:                  -0.857
REMARK UNBOUND:                -1.102
REMARK  Name = 
REMARK  6 active torsions:
REMARK  status: ('A' for Active; 'I' for Inactive)
REMARK    1  A    between atoms: C_2  and  C_25
REMARK    2  A    between atoms: N_3  and  C_4
REMARK    3  A    between atoms: C_4  and  C_5
REMARK    4  A    between atoms: C_8  and  C_9
REMARK    5  A    between atoms: C_9  and  N_10
REMARK    6  A    between atoms: C_11  and  C_13
REMARK                            x       y       z     vdW  Elec       q    Type
REMARK                         _______ _______ _______ _____ _____    ______ ____
ROOT
ATOM      1  C   UNL     1      50.603   8.733  11.416  0.00  0.00    +0.000 A 
ATOM      2  C   UNL     1      49.782   9.847  11.636  0.00  0.00    +0.000 A 
ATOM      3  C   UNL     1      48.478   9.690  12.126  0.00  0.00    +0.000 A 
ATOM      4  C   UNL     1      47.977   8.418  12.430  0.00  0.00    +0.000 A 
ATOM      5  C   UNL     1      48.798   7.303  12.202  0.00  0.00    +0.000 A 
ATOM      6  C   UNL     1      50.100   7.459  11.712  0.00  0.00    +0.000 A 
ENDROOT
BRANCH   1   7
ATOM      7  C   UNL     1      52.002   8.901  10.884  0.00  0.00    +0.000 C 
BRANCH   7  10
ATOM      8  O   UNL     1      53.385   9.353   8.534  0.00  0.00    +0.000 OA
ATOM      9  C   UNL     1      53.037   8.198   8.771  0.00  0.00    +0.000 C 
ATOM     10  N   UNL     1      52.337   7.884   9.918  0.00  0.00    +0.000 N 
ATOM     11  H   UNL     1      52.148   6.914  10.132  0.00  0.00    +0.000 HD
BRANCH   9  12
ATOM     12  C   UNL     1      53.335   7.096   7.879  0.00  0.00    +0.000 A 
ATOM     13  C   UNL     1      52.439   6.183   7.351  0.00  0.00    +0.000 A 
ATOM     14  N   UNL     1      52.979   5.202   6.539  0.00  0.00    +0.000 NA
ATOM     15  C   UNL     1      54.279   5.377   6.463  0.00  0.00    +0.000 A 
ATOM     16  S   UNL     1      54.914   6.715   7.326  0.00  0.00    +0.000 S 
ENDBRANCH   9  12
ENDBRANCH   7  10
ENDBRANCH   1   7
BRANCH   4  17
ATOM     17  C   UNL     1      46.576   8.231  12.961  0.00  0.00    +0.000 C 
BRANCH  17  18
ATOM     18  N   UNL     1      46.077   6.907  12.678  0.00  0.00    +0.000 N 
ATOM     19  C   UNL     1      45.031   6.701  11.812  0.00  0.00    +0.000 C 
ATOM     20  O   UNL     1      44.494   7.618  11.199  0.00  0.00    +0.000 OA
ATOM     21  H   UNL     1      46.309   6.186  13.349  0.00  0.00    +0.000 HD
BRANCH  19  22
ATOM     22  C   UNL     1      44.645   5.298  11.596  0.00  0.00    +0.000 A 
ATOM     23  C   UNL     1      43.955   4.605  12.583  0.00  0.00    +0.000 A 
ATOM     24  S   UNL     1      43.537   3.014  12.133  0.00  0.00    +0.000 S 
ATOM     25  C   UNL     1      44.311   3.172  10.627  0.00  0.00    +0.000 A 
ATOM     26  N   UNL     1      44.348   2.141   9.743  0.00  0.00    +0.000 NA
ATOM     27  C   UNL     1      44.996   2.394   8.653  0.00  0.00    +0.000 A 
ATOM     28  N   UNL     1      45.608   3.586   8.369  0.00  0.00    +0.000 N 
ATOM     29  C   UNL     1      45.568   4.665   9.217  0.00  0.00    +0.000 A 
ATOM     30  O   UNL     1      46.084   5.736   8.907  0.00  0.00    +0.000 OA
ATOM     31  C   UNL     1      44.865   4.431  10.463  0.00  0.00    +0.000 A 
ATOM     32  H   UNL     1      46.090   3.725   7.494  0.00  0.00    +0.000 HD
ENDBRANCH  19  22
ENDBRANCH  17  18
ENDBRANCH   4  17
TORSDOF 6
ENDMDL
MODEL 8
REMARK VINA RESULT:    -6.331      2.606      3.585
REMARK INTER + INTRA:          -9.653
REMARK INTER:                  -8.958
REMARK INTRA:                  -0.695
REMARK UNBOUND:                -1.102
REMARK  Name = 
REMARK  6 active torsions:
REMARK  status: ('A' for Active; 'I' for Inactive)
REMARK    1  A    between atoms: C_2  and  C_25
REMARK    2  A    between atoms: N_3  and  C_4
REMARK    3  A    between atoms: C_4  and  C_5
REMARK    4  A    between atoms: C_8  and  C_9
REMARK    5  A    between atoms: C_9  and  N_10
REMARK    6  A    between atoms: C_11  and  C_13
REMARK                            x       y       z     vdW  Elec       q    Type
REMARK                         _______ _______ _______ _____ _____    ______ ____
ROOT
ATOM      1  C   UNL     1      45.204   4.635  11.236  0.00  0.00    +0.000 A 
ATOM      2  C   UNL     1      45.137   3.537  12.105  0.00  0.00    +0.000 A 
ATOM      3  C   UNL     1      45.783   3.567  13.348  0.00  0.00    +0.000 A 
ATOM      4  C   UNL     1      46.488   4.705  13.760  0.00  0.00    +0.000 A 
ATOM      5  C   UNL     1      46.561   5.800  12.886  0.00  0.00    +0.000 A 
ATOM      6  C   UNL     1      45.917   5.770  11.644  0.00  0.00    +0.000 A 
ENDROOT
BRANCH   1   7
ATOM      7  C   UNL     1      44.516   4.600   9.897  0.00  0.00    +0.000 C 
BRANCH   7  10
ATOM      8  O   UNL     1      44.861   1.979   9.092  0.00  0.00    +0.000 OA
ATOM      9  C   UNL     1      45.512   2.840   8.504  0.00  0.00    +0.000 C 
ATOM     10  N   UNL     1      45.405   4.173   8.845  0.00  0.00    +0.000 N 
ATOM     11  H   UNL     1      45.878   4.867   8.282  0.00  0.00    +0.000 HD
BRANCH   9  12
ATOM     12  C   UNL     1      46.421   2.526   7.421  0.00  0.00    +0.000 A 
ATOM     13  C   UNL     1      47.294   1.455   7.347  0.00  0.00    +0.000 A 
ATOM     14  N   UNL     1      48.080   1.389   6.211  0.00  0.00    +0.000 NA
ATOM     15  C   UNL     1      47.800   2.412   5.437  0.00  0.00    +0.000 A 
ATOM     16  S   UNL     1      46.585   3.481   6.004  0.00  0.00    +0.000 S 
ENDBRANCH   9  12
ENDBRANCH   7  10
ENDBRANCH   1   7
BRANCH   4  17
ATOM     17  C   UNL     1      47.187   4.755  15.098  0.00  0.00    +0.000 C 
BRANCH  17  18
ATOM     18  N   UNL     1      47.911   5.992  15.268  0.00  0.00    +0.000 N 
ATOM     19  C   UNL     1      48.686   6.226  16.378  0.00  0.00    +0.000 C 
ATOM     20  O   UNL     1      48.844   5.387  17.259  0.00  0.00    +0.000 OA
ATOM     21  H   UNL     1      47.595   6.778  14.714  0.00  0.00    +0.000 HD
BRANCH  19  22
ATOM     22  C   UNL     1      49.389   7.518  16.407  0.00  0.00    +0.000 A 
ATOM     23  C   UNL     1      50.449   7.754  15.540  0.00  0.00    +0.000 A 
ATOM     24  S   UNL     1      51.100   9.324  15.671  0.00  0.00    +0.000 S 
ATOM     25  C   UNL     1      50.030   9.728  16.929  0.00  0.00    +0.000 A 
ATOM     26  N   UNL     1      50.073  10.949  17.526  0.00  0.00    +0.000 NA
ATOM     27  C   UNL     1      49.222  11.104  18.487  0.00  0.00    +0.000 A 
ATOM     28  N   UNL     1      48.332  10.149  18.902  0.00  0.00    +0.000 N 
ATOM     29  C   UNL     1      48.230   8.916  18.308  0.00  0.00    +0.000 A 
ATOM     30  O   UNL     1      47.386   8.102  18.673  0.00  0.00    +0.000 OA
ATOM     31  C   UNL     1      49.174   8.683  17.232  0.00  0.00    +0.000 A 
ATOM     32  H   UNL     1      47.685  10.337  19.653  0.00  0.00    +0.000 HD
ENDBRANCH  19  22
ENDBRANCH  17  18
ENDBRANCH   4  17
TORSDOF 6
ENDMDL
MODEL 9
REMARK VINA RESULT:    -6.223      2.182      2.873
REMARK INTER + INTRA:          -9.507
REMARK INTER:                  -8.728
REMARK INTRA:                  -0.779
REMARK UNBOUND:                -1.102
REMARK  Name = 
REMARK  6 active torsions:
REMARK  status: ('A' for Active; 'I' for Inactive)
REMARK    1  A    between atoms: C_2  and  C_25
REMARK    2  A    between atoms: N_3  and  C_4
REMARK    3  A    between atoms: C_4  and  C_5
REMARK    4  A    between atoms: C_8  and  C_9
REMARK    5  A    between atoms: C_9  and  N_10
REMARK    6  A    between atoms: C_11  and  C_13
REMARK                            x       y       z     vdW  Elec       q    Type
REMARK                         _______ _______ _______ _____ _____    ______ ____
ROOT
ATOM      1  C   UNL     1      45.180   4.997  11.457  0.00  0.00    +0.000 A 
ATOM      2  C   UNL     1      45.724   6.288  11.402  0.00  0.00    +0.000 A 
ATOM      3  C   UNL     1      46.447   6.807  12.484  0.00  0.00    +0.000 A 
ATOM      4  C   UNL     1      46.664   6.038  13.634  0.00  0.00    +0.000 A 
ATOM      5  C   UNL     1      46.113   4.749  13.691  0.00  0.00    +0.000 A 
ATOM      6  C   UNL     1      45.389   4.230  12.611  0.00  0.00    +0.000 A 
ENDROOT
BRANCH   1   7
ATOM      7  C   UNL     1      44.397   4.441  10.297  0.00  0.00    +0.000 C 
BRANCH   7  10
ATOM      8  O   UNL     1      44.690   1.816   9.482  0.00  0.00    +0.000 OA
ATOM      9  C   UNL     1      45.340   2.669   8.882  0.00  0.00    +0.000 C 
ATOM     10  N   UNL     1      45.259   4.003   9.226  0.00  0.00    +0.000 N 
ATOM     11  H   UNL     1      45.730   4.691   8.654  0.00  0.00    +0.000 HD
BRANCH   9  12
ATOM     12  C   UNL     1      46.222   2.343   7.780  0.00  0.00    +0.000 A 
ATOM     13  C   UNL     1      46.897   1.153   7.574  0.00  0.00    +0.000 A 
ATOM     14  N   UNL     1      47.704   1.098   6.451  0.00  0.00    +0.000 NA
ATOM     15  C   UNL     1      47.637   2.248   5.820  0.00  0.00    +0.000 A 
ATOM     16  S   UNL     1      46.607   3.433   6.510  0.00  0.00    +0.000 S 
ENDBRANCH   9  12
ENDBRANCH   7  10
ENDBRANCH   1   7
BRANCH   4  17
ATOM     17  C   UNL     1      47.443   6.581  14.808  0.00  0.00    +0.000 C 
BRANCH  17  18
ATOM     18  N   UNL     1      48.385   5.610  15.310  0.00  0.00    +0.000 N 
ATOM     19  C   UNL     1      48.376   5.212  16.625  0.00  0.00    +0.000 C 
ATOM     20  O   UNL     1      47.547   5.619  17.430  0.00  0.00    +0.000 OA
ATOM     21  H   UNL     1      49.221   5.468  14.758  0.00  0.00    +0.000 HD
BRANCH  19  22
ATOM     22  C   UNL     1      49.375   4.195  16.992  0.00  0.00    +0.000 A 
ATOM     23  C   UNL     1      49.104   2.847  16.788  0.00  0.00    +0.000 A 
ATOM     24  S   UNL     1      50.398   1.820  17.212  0.00  0.00    +0.000 S 
ATOM     25  C   UNL     1      51.345   3.132  17.737  0.00  0.00    +0.000 A 
ATOM     26  N   UNL     1      52.588   2.940  18.253  0.00  0.00    +0.000 NA
ATOM     27  C   UNL     1      53.179   4.024  18.639  0.00  0.00    +0.000 A 
ATOM     28  N   UNL     1      52.639   5.279  18.553  0.00  0.00    +0.000 N 
ATOM     29  C   UNL     1      51.402   5.523  18.008  0.00  0.00    +0.000 A 
ATOM     30  O   UNL     1      50.971   6.668  17.900  0.00  0.00    +0.000 OA
ATOM     31  C   UNL     1      50.688   4.340  17.572  0.00  0.00    +0.000 A 
ATOM     32  H   UNL     1      53.157   6.088  18.863  0.00  0.00    +0.000 HD
ENDBRANCH  19  22
ENDBRANCH  17  18
ENDBRANCH   4  17
TORSDOF 6
ENDMDL
