MODEL 1
REMARK VINA RESULT:    -8.488      0.000      0.000
REMARK INTER + INTRA:         -12.414
REMARK INTER:                 -11.465
REMARK INTRA:                  -0.949
REMARK UNBOUND:                -0.949
REMARK  Name = 
REMARK  6 active torsions:
REMARK  status: ('A' for Active; 'I' for Inactive)
REMARK    1  A    between atoms: C_2  and  C_25
REMARK    2  A    between atoms: N_3  and  C_4
REMARK    3  A    between atoms: C_4  and  C_5
REMARK    4  A    between atoms: C_8  and  C_9
REMARK    5  A    between atoms: C_9  and  N_10
REMARK    6  A    between atoms: C_11  and  C_13
REMARK                            x       y       z     vdW  Elec       q    Type
REMARK                         _______ _______ _______ _____ _____    ______ ____
ROOT
ATOM      1  C   UNL     1      44.782   6.095  11.148  0.00  0.00    +0.000 A 
ATOM      2  C   UNL     1      44.481   7.434  11.400  0.00  0.00    +0.000 A 
ATOM      3  C   UNL     1      45.299   8.181  12.243  0.00  0.00    +0.000 A 
ATOM      4  C   UNL     1      46.392   7.562  12.841  0.00  0.00    +0.000 A 
ATOM      5  N   UNL     1      46.707   6.261  12.610  0.00  0.00    +0.000 NA
ATOM      6  C   UNL     1      45.902   5.564  11.775  0.00  0.00    +0.000 A 
ENDROOT
BRANCH   1   7
ATOM      7  C   UNL     1      43.935   5.258  10.243  0.00  0.00    +0.000 C 
BRANCH   7  10
ATOM      8  O   UNL     1      44.513   2.537  10.275  0.00  0.00    +0.000 OA
ATOM      9  C   UNL     1      44.935   3.215   9.346  0.00  0.00    +0.000 C 
ATOM     10  N   UNL     1      44.703   4.570   9.237  0.00  0.00    +0.000 N 
ATOM     11  H   UNL     1      45.101   5.057   8.438  0.00  0.00    +0.000 HD
BRANCH   9  12
ATOM     12  C   UNL     1      45.742   2.602   8.242  0.00  0.00    +0.000 A 
ATOM     13  C   UNL     1      46.052   3.370   7.125  0.00  0.00    +0.000 A 
ATOM     14  C   UNL     1      46.805   2.788   6.112  0.00  0.00    +0.000 A 
ATOM     15  C   UNL     1      47.221   1.469   6.249  0.00  0.00    +0.000 A 
ATOM     16  C   UNL     1      46.865   0.777   7.400  0.00  0.00    +0.000 A 
ATOM     17  N   UNL     1      46.133   1.308   8.407  0.00  0.00    +0.000 NA
ENDBRANCH   9  12
ENDBRANCH   7  10
ENDBRANCH   1   7
BRANCH   4  18
ATOM     18  C   UNL     1      47.290   8.336  13.775  0.00  0.00    +0.000 C 
BRANCH  18  19
ATOM     19  N   UNL     1      47.688   7.556  14.924  0.00  0.00    +0.000 N 
ATOM     20  C   UNL     1      48.902   6.929  15.007  0.00  0.00    +0.000 C 
ATOM     21  O   UNL     1      49.733   6.993  14.103  0.00  0.00    +0.000 OA
ATOM     22  H   UNL     1      46.941   7.304  15.563  0.00  0.00    +0.000 HD
BRANCH  20  23
ATOM     23  C   UNL     1      49.194   6.234  16.268  0.00  0.00    +0.000 A 
ATOM     24  C   UNL     1      50.198   6.713  17.099  0.00  0.00    +0.000 A 
ATOM     25  S   UNL     1      50.386   5.813  18.536  0.00  0.00    +0.000 S 
ATOM     26  C   UNL     1      49.162   4.724  18.078  0.00  0.00    +0.000 A 
ATOM     27  N   UNL     1      48.834   3.668  18.870  0.00  0.00    +0.000 NA
ATOM     28  C   UNL     1      47.913   2.903  18.385  0.00  0.00    +0.000 A 
ATOM     29  N   UNL     1      47.281   3.106  17.186  0.00  0.00    +0.000 N 
ATOM     30  C   UNL     1      47.537   4.191  16.383  0.00  0.00    +0.000 A 
ATOM     31  O   UNL     1      46.885   4.397  15.366  0.00  0.00    +0.000 OA
ATOM     32  C   UNL     1      48.596   5.059  16.860  0.00  0.00    +0.000 A 
ATOM     33  H   UNL     1      46.548   2.486  16.874  0.00  0.00    +0.000 HD
ENDBRANCH  20  23
ENDBRANCH  18  19
ENDBRANCH   4  18
TORSDOF 6
ENDMDL
MODEL 2
REMARK VINA RESULT:    -7.662      1.948      3.423
REMARK INTER + INTRA:         -11.299
REMARK INTER:                 -10.352
REMARK INTRA:                  -0.947
REMARK UNBOUND:                -0.949
REMARK  Name = 
REMARK  6 active torsions:
REMARK  status: ('A' for Active; 'I' for Inactive)
REMARK    1  A    between atoms: C_2  and  C_25
REMARK    2  A    between atoms: N_3  and  C_4
REMARK    3  A    between atoms: C_4  and  C_5
REMARK    4  A    between atoms: C_8  and  C_9
REMARK    5  A    between atoms: C_9  and  N_10
REMARK    6  A    between atoms: C_11  and  C_13
REMARK                            x       y       z     vdW  Elec       q    Type
REMARK                         _______ _______ _______ _____ _____    ______ ____
ROOT
ATOM      1  C   UNL     1      45.540   5.183  11.794  0.00  0.00    +0.000 A 
ATOM      2  C   UNL     1      46.412   6.118  12.354  0.00  0.00    +0.000 A 
ATOM      3  C   UNL     1      46.974   5.879  13.606  0.00  0.00    +0.000 A 
ATOM      4  C   UNL     1      46.627   4.716  14.287  0.00  0.00    +0.000 A 
ATOM      5  N   UNL     1      45.783   3.790  13.762  0.00  0.00    +0.000 NA
ATOM      6  C   UNL     1      45.265   4.043  12.538  0.00  0.00    +0.000 A 
ENDROOT
BRANCH   1   7
ATOM      7  C   UNL     1      44.922   5.395  10.450  0.00  0.00    +0.000 C 
BRANCH   7  10
ATOM      8  O   UNL     1      44.224   2.885   9.474  0.00  0.00    +0.000 OA
ATOM      9  C   UNL     1      45.192   3.455   8.986  0.00  0.00    +0.000 C 
ATOM     10  N   UNL     1      45.618   4.701   9.398  0.00  0.00    +0.000 N 
ATOM     11  H   UNL     1      46.439   5.095   8.944  0.00  0.00    +0.000 HD
BRANCH   9  12
ATOM     12  C   UNL     1      45.988   2.826   7.884  0.00  0.00    +0.000 A 
ATOM     13  C   UNL     1      46.246   3.561   6.732  0.00  0.00    +0.000 A 
ATOM     14  C   UNL     1      46.990   2.965   5.720  0.00  0.00    +0.000 A 
ATOM     15  C   UNL     1      47.448   1.664   5.892  0.00  0.00    +0.000 A 
ATOM     16  C   UNL     1      47.142   1.005   7.076  0.00  0.00    +0.000 A 
ATOM     17  N   UNL     1      46.421   1.551   8.084  0.00  0.00    +0.000 NA
ENDBRANCH   9  12
ENDBRANCH   7  10
ENDBRANCH   1   7
BRANCH   4  18
ATOM     18  C   UNL     1      47.201   4.433  15.653  0.00  0.00    +0.000 C 
BRANCH  18  19
ATOM     19  N   UNL     1      47.965   5.546  16.168  0.00  0.00    +0.000 N 
ATOM     20  C   UNL     1      49.171   5.388  16.797  0.00  0.00    +0.000 C 
ATOM     21  O   UNL     1      49.680   4.281  16.962  0.00  0.00    +0.000 OA
ATOM     22  H   UNL     1      47.462   6.423  16.247  0.00  0.00    +0.000 HD
BRANCH  20  23
ATOM     23  C   UNL     1      49.864   6.618  17.202  0.00  0.00    +0.000 A 
ATOM     24  C   UNL     1      50.085   6.869  18.550  0.00  0.00    +0.000 A 
ATOM     25  S   UNL     1      50.930   8.320  18.847  0.00  0.00    +0.000 S 
ATOM     26  C   UNL     1      50.992   8.687  17.187  0.00  0.00    +0.000 A 
ATOM     27  N   UNL     1      51.569   9.838  16.746  0.00  0.00    +0.000 NA
ATOM     28  C   UNL     1      51.515  10.006  15.467  0.00  0.00    +0.000 A 
ATOM     29  N   UNL     1      50.947   9.122  14.586  0.00  0.00    +0.000 N 
ATOM     30  C   UNL     1      50.408   7.921  14.980  0.00  0.00    +0.000 A 
ATOM     31  O   UNL     1      49.998   7.109  14.159  0.00  0.00    +0.000 OA
ATOM     32  C   UNL     1      50.403   7.702  16.414  0.00  0.00    +0.000 A 
ATOM     33  H   UNL     1      50.960   9.298  13.593  0.00  0.00    +0.000 HD
ENDBRANCH  20  23
ENDBRANCH  18  19
ENDBRANCH   4  18
TORSDOF 6
ENDMDL
MODEL 3
REMARK VINA RESULT:    -7.363      4.832      9.634
REMARK INTER + INTRA:         -10.895
REMARK INTER:                 -10.099
REMARK INTRA:                  -0.796
REMARK UNBOUND:                -0.949
REMARK  Name = 
REMARK  6 active torsions:
REMARK  status: ('A' for Active; 'I' for Inactive)
REMARK    1  A    between atoms: C_2  and  C_25
REMARK    2  A    between atoms: N_3  and  C_4
REMARK    3  A    between atoms: C_4  and  C_5
REMARK    4  A    between atoms: C_8  and  C_9
REMARK    5  A    between atoms: C_9  and  N_10
REMARK    6  A    between atoms: C_11  and  C_13
REMARK                            x       y       z     vdW  Elec       q    Type
REMARK                         _______ _______ _______ _____ _____    ______ ____
ROOT
ATOM      1  C   UNL     1      51.290   2.900  17.758  0.00  0.00    +0.000 A 
ATOM      2  C   UNL     1      50.546   1.908  17.115  0.00  0.00    +0.000 A 
ATOM      3  C   UNL     1      49.206   2.134  16.814  0.00  0.00    +0.000 A 
ATOM      4  C   UNL     1      48.627   3.343  17.189  0.00  0.00    +0.000 A 
ATOM      5  N   UNL     1      49.330   4.323  17.813  0.00  0.00    +0.000 NA
ATOM      6  C   UNL     1      50.634   4.081  18.079  0.00  0.00    +0.000 A 
ENDROOT
BRANCH   1   7
ATOM      7  C   UNL     1      52.734   2.703  18.092  0.00  0.00    +0.000 C 
BRANCH   7  10
ATOM      8  O   UNL     1      54.638   1.172  16.761  0.00  0.00    +0.000 OA
ATOM      9  C   UNL     1      54.016   0.661  17.684  0.00  0.00    +0.000 C 
ATOM     10  N   UNL     1      53.053   1.335  18.407  0.00  0.00    +0.000 N 
ATOM     11  H   UNL     1      52.578   0.828  19.151  0.00  0.00    +0.000 HD
BRANCH   9  12
ATOM     12  C   UNL     1      54.269  -0.756  18.099  0.00  0.00    +0.000 A 
ATOM     13  C   UNL     1      55.087  -1.556  17.308  0.00  0.00    +0.000 A 
ATOM     14  C   UNL     1      55.316  -2.868  17.710  0.00  0.00    +0.000 A 
ATOM     15  C   UNL     1      54.725  -3.331  18.880  0.00  0.00    +0.000 A 
ATOM     16  C   UNL     1      53.921  -2.461  19.607  0.00  0.00    +0.000 A 
ATOM     17  N   UNL     1      53.675  -1.180  19.249  0.00  0.00    +0.000 NA
ENDBRANCH   9  12
ENDBRANCH   7  10
ENDBRANCH   1   7
BRANCH   4  18
ATOM     18  C   UNL     1      47.172   3.614  16.895  0.00  0.00    +0.000 C 
BRANCH  18  19
ATOM     19  N   UNL     1      46.997   4.602  15.856  0.00  0.00    +0.000 N 
ATOM     20  C   UNL     1      47.002   4.284  14.525  0.00  0.00    +0.000 C 
ATOM     21  O   UNL     1      47.156   3.130  14.130  0.00  0.00    +0.000 OA
ATOM     22  H   UNL     1      47.101   5.568  16.148  0.00  0.00    +0.000 HD
BRANCH  20  23
ATOM     23  C   UNL     1      46.740   5.385  13.589  0.00  0.00    +0.000 A 
ATOM     24  C   UNL     1      47.762   6.267  13.263  0.00  0.00    +0.000 A 
ATOM     25  S   UNL     1      47.302   7.465  12.140  0.00  0.00    +0.000 S 
ATOM     26  C   UNL     1      45.708   6.874  12.082  0.00  0.00    +0.000 A 
ATOM     27  N   UNL     1      44.765   7.482  11.312  0.00  0.00    +0.000 NA
ATOM     28  C   UNL     1      43.590   6.952  11.389  0.00  0.00    +0.000 A 
ATOM     29  N   UNL     1      43.275   5.860  12.156  0.00  0.00    +0.000 N 
ATOM     30  C   UNL     1      44.207   5.179  12.901  0.00  0.00    +0.000 A 
ATOM     31  O   UNL     1      43.915   4.148  13.496  0.00  0.00    +0.000 OA
ATOM     32  C   UNL     1      45.536   5.760  12.885  0.00  0.00    +0.000 A 
ATOM     33  H   UNL     1      42.342   5.475  12.152  0.00  0.00    +0.000 HD
ENDBRANCH  20  23
ENDBRANCH  18  19
ENDBRANCH   4  18
TORSDOF 6
ENDMDL
MODEL 4
REMARK VINA RESULT:    -7.223      3.442      4.591
REMARK INTER + INTRA:         -10.705
REMARK INTER:                  -9.663
REMARK INTRA:                  -1.042
REMARK UNBOUND:                -0.949
REMARK  Name = 
REMARK  6 active torsions:
REMARK  status: ('A' for Active; 'I' for Inactive)
REMARK    1  A    between atoms: C_2  and  C_25
REMARK    2  A    between atoms: N_3  and  C_4
REMARK    3  A    between atoms: C_4  and  C_5
REMARK    4  A    between atoms: C_8  and  C_9
REMARK    5  A    between atoms: C_9  and  N_10
REMARK    6  A    between atoms: C_11  and  C_13
REMARK                            x       y       z     vdW  Elec       q    Type
REMARK                         _______ _______ _______ _____ _____    ______ ____
ROOT
ATOM      1  C   UNL     1      45.080   6.317  11.560  0.00  0.00    +0.000 A 
ATOM      2  C   UNL     1      44.709   7.643  11.788  0.00  0.00    +0.000 A 
ATOM      3  C   UNL     1      45.505   8.456  12.590  0.00  0.00    +0.000 A 
ATOM      4  C   UNL     1      46.647   7.915  13.173  0.00  0.00    +0.000 A 
ATOM      5  N   UNL     1      47.030   6.629  12.964  0.00  0.00    +0.000 NA
ATOM      6  C   UNL     1      46.245   5.867  12.168  0.00  0.00    +0.000 A 
ENDROOT
BRANCH   1   7
ATOM      7  C   UNL     1      44.260   5.411  10.698  0.00  0.00    +0.000 C 
BRANCH   7  10
ATOM      8  O   UNL     1      43.908   2.755   9.948  0.00  0.00    +0.000 OA
ATOM      9  C   UNL     1      44.789   3.407   9.400  0.00  0.00    +0.000 C 
ATOM     10  N   UNL     1      45.042   4.730   9.699  0.00  0.00    +0.000 N 
ATOM     11  H   UNL     1      45.800   5.191   9.202  0.00  0.00    +0.000 HD
BRANCH   9  12
ATOM     12  C   UNL     1      45.660   2.800   8.343  0.00  0.00    +0.000 A 
ATOM     13  C   UNL     1      46.010   3.563   7.235  0.00  0.00    +0.000 A 
ATOM     14  C   UNL     1      46.824   2.987   6.266  0.00  0.00    +0.000 A 
ATOM     15  C   UNL     1      47.256   1.676   6.436  0.00  0.00    +0.000 A 
ATOM     16  C   UNL     1      46.856   0.989   7.575  0.00  0.00    +0.000 A 
ATOM     17  N   UNL     1      46.066   1.515   8.540  0.00  0.00    +0.000 NA
ENDBRANCH   9  12
ENDBRANCH   7  10
ENDBRANCH   1   7
BRANCH   4  18
ATOM     18  C   UNL     1      47.522   8.762  14.063  0.00  0.00    +0.000 C 
BRANCH  18  19
ATOM     19  N   UNL     1      48.919   8.668  13.708  0.00  0.00    +0.000 N 
ATOM     20  C   UNL     1      49.686   9.767  13.426  0.00  0.00    +0.000 C 
ATOM     21  O   UNL     1      49.229  10.908  13.460  0.00  0.00    +0.000 OA
ATOM     22  H   UNL     1      49.245   7.742  13.453  0.00  0.00    +0.000 HD
BRANCH  20  23
ATOM     23  C   UNL     1      51.107   9.519  13.152  0.00  0.00    +0.000 A 
ATOM     24  C   UNL     1      52.075  10.204  13.875  0.00  0.00    +0.000 A 
ATOM     25  S   UNL     1      53.672   9.777  13.460  0.00  0.00    +0.000 S 
ATOM     26  C   UNL     1      53.129   8.693  12.267  0.00  0.00    +0.000 A 
ATOM     27  N   UNL     1      54.012   8.000  11.498  0.00  0.00    +0.000 NA
ATOM     28  C   UNL     1      53.464   7.239  10.610  0.00  0.00    +0.000 A 
ATOM     29  N   UNL     1      52.112   7.099  10.428  0.00  0.00    +0.000 N 
ATOM     30  C   UNL     1      51.185   7.732  11.220  0.00  0.00    +0.000 A 
ATOM     31  O   UNL     1      49.986   7.509  11.097  0.00  0.00    +0.000 OA
ATOM     32  C   UNL     1      51.748   8.634  12.207  0.00  0.00    +0.000 A 
ATOM     33  H   UNL     1      51.744   6.467   9.733  0.00  0.00    +0.000 HD
ENDBRANCH  20  23
ENDBRANCH  18  19
ENDBRANCH   4  18
TORSDOF 6
ENDMDL
MODEL 5
REMARK VINA RESULT:    -7.142      2.512      3.564
REMARK INTER + INTRA:         -10.597
REMARK INTER:                  -9.946
REMARK INTRA:                  -0.651
REMARK UNBOUND:                -0.949
REMARK  Name = 
REMARK  6 active torsions:
REMARK  status: ('A' for Active; 'I' for Inactive)
REMARK    1  A    between atoms: C_2  and  C_25
REMARK    2  A    between atoms: N_3  and  C_4
REMARK    3  A    between atoms: C_4  and  C_5
REMARK    4  A    between atoms: C_8  and  C_9
REMARK    5  A    between atoms: C_9  and  N_10
REMARK    6  A    between atoms: C_11  and  C_13
REMARK                            x       y       z     vdW  Elec       q    Type
REMARK                         _______ _______ _______ _____ _____    ______ ____
ROOT
ATOM      1  C   UNL     1      44.978   4.496  11.771  0.00  0.00    +0.000 A 
ATOM      2  C   UNL     1      45.213   5.698  12.440  0.00  0.00    +0.000 A 
ATOM      3  C   UNL     1      45.942   5.698  13.627  0.00  0.00    +0.000 A 
ATOM      4  C   UNL     1      46.397   4.486  14.136  0.00  0.00    +0.000 A 
ATOM      5  N   UNL     1      46.183   3.304  13.502  0.00  0.00    +0.000 NA
ATOM      6  C   UNL     1      45.485   3.337  12.344  0.00  0.00    +0.000 A 
ENDROOT
BRANCH   1   7
ATOM      7  C   UNL     1      44.208   4.451  10.489  0.00  0.00    +0.000 C 
BRANCH   7  10
ATOM      8  O   UNL     1      44.562   1.911   9.409  0.00  0.00    +0.000 OA
ATOM      9  C   UNL     1      45.146   2.856   8.891  0.00  0.00    +0.000 C 
ATOM     10  N   UNL     1      45.036   4.152   9.350  0.00  0.00    +0.000 N 
ATOM     11  H   UNL     1      45.566   4.873   8.866  0.00  0.00    +0.000 HD
BRANCH   9  12
ATOM     12  C   UNL     1      46.031   2.660   7.699  0.00  0.00    +0.000 A 
ATOM     13  C   UNL     1      46.786   1.496   7.601  0.00  0.00    +0.000 A 
ATOM     14  C   UNL     1      47.600   1.328   6.486  0.00  0.00    +0.000 A 
ATOM     15  C   UNL     1      47.630   2.320   5.513  0.00  0.00    +0.000 A 
ATOM     16  C   UNL     1      46.842   3.451   5.694  0.00  0.00    +0.000 A 
ATOM     17  N   UNL     1      46.039   3.651   6.765  0.00  0.00    +0.000 NA
ENDBRANCH   9  12
ENDBRANCH   7  10
ENDBRANCH   1   7
BRANCH   4  18
ATOM     18  C   UNL     1      47.173   4.447  15.430  0.00  0.00    +0.000 C 
BRANCH  18  19
ATOM     19  N   UNL     1      47.910   5.667  15.664  0.00  0.00    +0.000 N 
ATOM     20  C   UNL     1      48.698   5.854  16.769  0.00  0.00    +0.000 C 
ATOM     21  O   UNL     1      48.827   4.989  17.632  0.00  0.00    +0.000 OA
ATOM     22  H   UNL     1      47.637   6.460  15.095  0.00  0.00    +0.000 HD
BRANCH  20  23
ATOM     23  C   UNL     1      49.442   7.118  16.833  0.00  0.00    +0.000 A 
ATOM     24  C   UNL     1      50.546   7.306  16.012  0.00  0.00    +0.000 A 
ATOM     25  S   UNL     1      51.277   8.838  16.185  0.00  0.00    +0.000 S 
ATOM     26  C   UNL     1      50.170   9.288  17.396  0.00  0.00    +0.000 A 
ATOM     27  N   UNL     1      50.257  10.500  18.007  0.00  0.00    +0.000 NA
ATOM     28  C   UNL     1      49.377  10.698  18.930  0.00  0.00    +0.000 A 
ATOM     29  N   UNL     1      48.408   9.796  19.291  0.00  0.00    +0.000 N 
ATOM     30  C   UNL     1      48.245   8.586  18.661  0.00  0.00    +0.000 A 
ATOM     31  O   UNL     1      47.309   7.846  18.939  0.00  0.00    +0.000 OA
ATOM     32  C   UNL     1      49.238   8.296  17.644  0.00  0.00    +0.000 A 
ATOM     33  H   UNL     1      47.730  10.020  20.004  0.00  0.00    +0.000 HD
ENDBRANCH  20  23
ENDBRANCH  18  19
ENDBRANCH   4  18
TORSDOF 6
ENDMDL
MODEL 6
REMARK VINA RESULT:    -7.085      3.206      8.656
REMARK INTER + INTRA:         -10.519
REMARK INTER:                  -9.588
REMARK INTRA:                  -0.930
REMARK UNBOUND:                -0.949
REMARK  Name = 
REMARK  6 active torsions:
REMARK  status: ('A' for Active; 'I' for Inactive)
REMARK    1  A    between atoms: C_2  and  C_25
REMARK    2  A    between atoms: N_3  and  C_4
REMARK    3  A    between atoms: C_4  and  C_5
REMARK    4  A    between atoms: C_8  and  C_9
REMARK    5  A    between atoms: C_9  and  N_10
REMARK    6  A    between atoms: C_11  and  C_13
REMARK                            x       y       z     vdW  Elec       q    Type
REMARK                         _______ _______ _______ _____ _____    ______ ____
ROOT
ATOM      1  C   UNL     1      50.140   7.451  15.244  0.00  0.00    +0.000 A 
ATOM      2  C   UNL     1      50.650   7.850  14.007  0.00  0.00    +0.000 A 
ATOM      3  C   UNL     1      49.802   7.955  12.909  0.00  0.00    +0.000 A 
ATOM      4  C   UNL     1      48.457   7.630  13.064  0.00  0.00    +0.000 A 
ATOM      5  N   UNL     1      47.936   7.242  14.257  0.00  0.00    +0.000 NA
ATOM      6  C   UNL     1      48.782   7.164  15.310  0.00  0.00    +0.000 A 
ENDROOT
BRANCH   1   7
ATOM      7  C   UNL     1      51.014   7.333  16.451  0.00  0.00    +0.000 C 
BRANCH   7  10
ATOM      8  O   UNL     1      49.787   5.420  18.057  0.00  0.00    +0.000 OA
ATOM      9  C   UNL     1      50.823   5.120  17.475  0.00  0.00    +0.000 C 
ATOM     10  N   UNL     1      51.506   5.996  16.656  0.00  0.00    +0.000 N 
ATOM     11  H   UNL     1      52.365   5.665  16.222  0.00  0.00    +0.000 HD
BRANCH   9  12
ATOM     12  C   UNL     1      51.424   3.755  17.614  0.00  0.00    +0.000 A 
ATOM     13  C   UNL     1      52.680   3.625  18.197  0.00  0.00    +0.000 A 
ATOM     14  C   UNL     1      53.221   2.351  18.323  0.00  0.00    +0.000 A 
ATOM     15  C   UNL     1      52.494   1.257  17.866  0.00  0.00    +0.000 A 
ATOM     16  C   UNL     1      51.246   1.482  17.297  0.00  0.00    +0.000 A 
ATOM     17  N   UNL     1      50.686   2.706  17.156  0.00  0.00    +0.000 NA
ENDBRANCH   9  12
ENDBRANCH   7  10
ENDBRANCH   1   7
BRANCH   4  18
ATOM     18  C   UNL     1      47.512   7.714  11.891  0.00  0.00    +0.000 C 
BRANCH  18  19
ATOM     19  N   UNL     1      46.796   6.479  11.675  0.00  0.00    +0.000 N 
ATOM     20  C   UNL     1      45.430   6.400  11.714  0.00  0.00    +0.000 C 
ATOM     21  O   UNL     1      44.725   7.383  11.936  0.00  0.00    +0.000 OA
ATOM     22  H   UNL     1      47.355   5.634  11.722  0.00  0.00    +0.000 HD
BRANCH  20  23
ATOM     23  C   UNL     1      44.842   5.091  11.403  0.00  0.00    +0.000 A 
ATOM     24  C   UNL     1      44.074   4.438  12.359  0.00  0.00    +0.000 A 
ATOM     25  S   UNL     1      43.438   2.948  11.828  0.00  0.00    +0.000 S 
ATOM     26  C   UNL     1      44.202   3.100  10.315  0.00  0.00    +0.000 A 
ATOM     27  N   UNL     1      44.088   2.124   9.374  0.00  0.00    +0.000 NA
ATOM     28  C   UNL     1      44.746   2.352   8.287  0.00  0.00    +0.000 A 
ATOM     29  N   UNL     1      45.499   3.474   8.051  0.00  0.00    +0.000 N 
ATOM     30  C   UNL     1      45.594   4.510   8.948  0.00  0.00    +0.000 A 
ATOM     31  O   UNL     1      46.193   5.541   8.666  0.00  0.00    +0.000 OA
ATOM     32  C   UNL     1      44.908   4.285  10.206  0.00  0.00    +0.000 A 
ATOM     33  H   UNL     1      45.970   3.607   7.168  0.00  0.00    +0.000 HD
ENDBRANCH  20  23
ENDBRANCH  18  19
ENDBRANCH   4  18
TORSDOF 6
ENDMDL
MODEL 7
REMARK VINA RESULT:    -7.043      3.875      8.690
REMARK INTER + INTRA:         -10.462
REMARK INTER:                  -9.512
REMARK INTRA:                  -0.950
REMARK UNBOUND:                -0.949
REMARK  Name = 
REMARK  6 active torsions:
REMARK  status: ('A' for Active; 'I' for Inactive)
REMARK    1  A    between atoms: C_2  and  C_25
REMARK    2  A    between atoms: N_3  and  C_4
REMARK    3  A    between atoms: C_4  and  C_5
REMARK    4  A    between atoms: C_8  and  C_9
REMARK    5  A    between atoms: C_9  and  N_10
REMARK    6  A    between atoms: C_11  and  C_13
REMARK                            x       y       z     vdW  Elec       q    Type
REMARK                         _______ _______ _______ _____ _____    ______ ____
ROOT
ATOM      1  C   UNL     1      49.418   4.857  17.413  0.00  0.00    +0.000 A 
ATOM      2  C   UNL     1      50.162   5.962  16.995  0.00  0.00    +0.000 A 
ATOM      3  C   UNL     1      49.778   6.664  15.855  0.00  0.00    +0.000 A 
ATOM      4  C   UNL     1      48.668   6.226  15.139  0.00  0.00    +0.000 A 
ATOM      5  N   UNL     1      47.927   5.156  15.527  0.00  0.00    +0.000 NA
ATOM      6  C   UNL     1      48.315   4.503  16.647  0.00  0.00    +0.000 A 
ENDROOT
BRANCH   1   7
ATOM      7  C   UNL     1      49.789   4.080  18.636  0.00  0.00    +0.000 C 
BRANCH   7  10
ATOM      8  O   UNL     1      50.394   1.765  17.217  0.00  0.00    +0.000 OA
ATOM      9  C   UNL     1      51.296   2.337  17.817  0.00  0.00    +0.000 C 
ATOM     10  N   UNL     1      51.100   3.491  18.547  0.00  0.00    +0.000 N 
ATOM     11  H   UNL     1      51.905   3.894  19.022  0.00  0.00    +0.000 HD
BRANCH   9  12
ATOM     12  C   UNL     1      52.699   1.814  17.790  0.00  0.00    +0.000 A 
ATOM     13  C   UNL     1      53.739   2.683  17.476  0.00  0.00    +0.000 A 
ATOM     14  C   UNL     1      55.036   2.183  17.459  0.00  0.00    +0.000 A 
ATOM     15  C   UNL     1      55.249   0.841  17.756  0.00  0.00    +0.000 A 
ATOM     16  C   UNL     1      54.150   0.046  18.058  0.00  0.00    +0.000 A 
ATOM     17  N   UNL     1      52.874   0.496  18.084  0.00  0.00    +0.000 NA
ENDBRANCH   9  12
ENDBRANCH   7  10
ENDBRANCH   1   7
BRANCH   4  18
ATOM     18  C   UNL     1      48.234   6.951  13.888  0.00  0.00    +0.000 C 
BRANCH  18  19
ATOM     19  N   UNL     1      47.407   6.128  13.037  0.00  0.00    +0.000 N 
ATOM     20  C   UNL     1      46.632   6.647  12.034  0.00  0.00    +0.000 C 
ATOM     21  O   UNL     1      46.595   7.852  11.795  0.00  0.00    +0.000 OA
ATOM     22  H   UNL     1      47.248   5.181  13.363  0.00  0.00    +0.000 HD
BRANCH  20  23
ATOM     23  C   UNL     1      45.901   5.679  11.206  0.00  0.00    +0.000 A 
ATOM     24  C   UNL     1      45.983   5.761   9.822  0.00  0.00    +0.000 A 
ATOM     25  S   UNL     1      45.105   4.545   9.010  0.00  0.00    +0.000 S 
ATOM     26  C   UNL     1      44.548   3.891  10.479  0.00  0.00    +0.000 A 
ATOM     27  N   UNL     1      43.707   2.822  10.494  0.00  0.00    +0.000 NA
ATOM     28  C   UNL     1      43.336   2.451  11.674  0.00  0.00    +0.000 A 
ATOM     29  N   UNL     1      43.740   3.045  12.842  0.00  0.00    +0.000 N 
ATOM     30  C   UNL     1      44.634   4.088  12.877  0.00  0.00    +0.000 A 
ATOM     31  O   UNL     1      45.052   4.531  13.941  0.00  0.00    +0.000 OA
ATOM     32  C   UNL     1      45.049   4.572  11.575  0.00  0.00    +0.000 A 
ATOM     33  H   UNL     1      43.435   2.691  13.737  0.00  0.00    +0.000 HD
ENDBRANCH  20  23
ENDBRANCH  18  19
ENDBRANCH   4  18
TORSDOF 6
ENDMDL
MODEL 8
REMARK VINA RESULT:    -6.996      2.590      3.315
REMARK INTER + INTRA:         -10.398
REMARK INTER:                  -9.446
REMARK INTRA:                  -0.953
REMARK UNBOUND:                -0.949
REMARK  Name = 
REMARK  6 active torsions:
REMARK  status: ('A' for Active; 'I' for Inactive)
REMARK    1  A    between atoms: C_2  and  C_25
REMARK    2  A    between atoms: N_3  and  C_4
REMARK    3  A    between atoms: C_4  and  C_5
REMARK    4  A    between atoms: C_8  and  C_9
REMARK    5  A    between atoms: C_9  and  N_10
REMARK    6  A    between atoms: C_11  and  C_13
REMARK                            x       y       z     vdW  Elec       q    Type
REMARK                         _______ _______ _______ _____ _____    ______ ____
ROOT
ATOM      1  C   UNL     1      45.478   5.272  11.957  0.00  0.00    +0.000 A 
ATOM      2  C   UNL     1      46.539   6.159  12.145  0.00  0.00    +0.000 A 
ATOM      3  C   UNL     1      47.254   6.140  13.339  0.00  0.00    +0.000 A 
ATOM      4  C   UNL     1      46.873   5.248  14.337  0.00  0.00    +0.000 A 
ATOM      5  N   UNL     1      45.847   4.373  14.176  0.00  0.00    +0.000 NA
ATOM      6  C   UNL     1      45.180   4.404  13.000  0.00  0.00    +0.000 A 
ENDROOT
BRANCH   1   7
ATOM      7  C   UNL     1      44.689   5.252  10.686  0.00  0.00    +0.000 C 
BRANCH   7  10
ATOM      8  O   UNL     1      44.242   2.615   9.922  0.00  0.00    +0.000 OA
ATOM      9  C   UNL     1      45.081   3.268   9.312  0.00  0.00    +0.000 C 
ATOM     10  N   UNL     1      45.375   4.582   9.613  0.00  0.00    +0.000 N 
ATOM     11  H   UNL     1      46.094   5.044   9.061  0.00  0.00    +0.000 HD
BRANCH   9  12
ATOM     12  C   UNL     1      45.851   2.671   8.175  0.00  0.00    +0.000 A 
ATOM     13  C   UNL     1      46.091   3.442   7.043  0.00  0.00    +0.000 A 
ATOM     14  C   UNL     1      46.812   2.875   5.998  0.00  0.00    +0.000 A 
ATOM     15  C   UNL     1      47.266   1.567   6.119  0.00  0.00    +0.000 A 
ATOM     16  C   UNL     1      46.978   0.871   7.286  0.00  0.00    +0.000 A 
ATOM     17  N   UNL     1      46.280   1.387   8.324  0.00  0.00    +0.000 NA
ENDBRANCH   9  12
ENDBRANCH   7  10
ENDBRANCH   1   7
BRANCH   4  18
ATOM     18  C   UNL     1      47.614   5.212  15.651  0.00  0.00    +0.000 C 
BRANCH  18  19
ATOM     19  N   UNL     1      48.962   5.717  15.535  0.00  0.00    +0.000 N 
ATOM     20  C   UNL     1      49.334   6.949  16.002  0.00  0.00    +0.000 C 
ATOM     21  O   UNL     1      48.537   7.705  16.554  0.00  0.00    +0.000 OA
ATOM     22  H   UNL     1      49.563   5.216  14.889  0.00  0.00    +0.000 HD
BRANCH  20  23
ATOM     23  C   UNL     1      50.756   7.293  15.877  0.00  0.00    +0.000 A 
ATOM     24  C   UNL     1      51.126   8.436  15.179  0.00  0.00    +0.000 A 
ATOM     25  S   UNL     1      52.809   8.710  15.156  0.00  0.00    +0.000 S 
ATOM     26  C   UNL     1      53.107   7.288  16.040  0.00  0.00    +0.000 A 
ATOM     27  N   UNL     1      54.377   6.906  16.343  0.00  0.00    +0.000 NA
ATOM     28  C   UNL     1      54.460   5.790  16.987  0.00  0.00    +0.000 A 
ATOM     29  N   UNL     1      53.387   5.026  17.367  0.00  0.00    +0.000 N 
ATOM     30  C   UNL     1      52.086   5.402  17.135  0.00  0.00    +0.000 A 
ATOM     31  O   UNL     1      51.148   4.747  17.574  0.00  0.00    +0.000 OA
ATOM     32  C   UNL     1      51.937   6.628  16.375  0.00  0.00    +0.000 A 
ATOM     33  H   UNL     1      53.516   4.175  17.893  0.00  0.00    +0.000 HD
ENDBRANCH  20  23
ENDBRANCH  18  19
ENDBRANCH   4  18
TORSDOF 6
ENDMDL
MODEL 9
REMARK VINA RESULT:    -6.981      3.630      4.890
REMARK INTER + INTRA:         -10.379
REMARK INTER:                  -9.466
REMARK INTRA:                  -0.913
REMARK UNBOUND:                -0.949
REMARK  Name = 
REMARK  6 active torsions:
REMARK  status: ('A' for Active; 'I' for Inactive)
REMARK    1  A    between atoms: C_2  and  C_25
REMARK    2  A    between atoms: N_3  and  C_4
REMARK    3  A    between atoms: C_4  and  C_5
REMARK    4  A    between atoms: C_8  and  C_9
REMARK    5  A    between atoms: C_9  and  N_10
REMARK    6  A    between atoms: C_11  and  C_13
REMARK                            x       y       z     vdW  Elec       q    Type
REMARK                         _______ _______ _______ _____ _____    ______ ____
ROOT
ATOM      1  C   UNL     1      47.219   5.888  14.088  0.00  0.00    +0.000 A 
ATOM      2  C   UNL     1      46.691   4.652  14.467  0.00  0.00    +0.000 A 
ATOM      3  C   UNL     1      47.188   4.003  15.594  0.00  0.00    +0.000 A 
ATOM      4  C   UNL     1      48.227   4.594  16.306  0.00  0.00    +0.000 A 
ATOM      5  N   UNL     1      48.755   5.796  15.959  0.00  0.00    +0.000 NA
ATOM      6  C   UNL     1      48.242   6.410  14.868  0.00  0.00    +0.000 A 
ENDROOT
BRANCH   1   7
ATOM      7  C   UNL     1      46.709   6.623  12.889  0.00  0.00    +0.000 C 
BRANCH   7  10
ATOM      8  O   UNL     1      44.348   6.316  11.450  0.00  0.00    +0.000 OA
ATOM      9  C   UNL     1      45.338   5.690  11.092  0.00  0.00    +0.000 C 
ATOM     10  N   UNL     1      46.555   5.774  11.737  0.00  0.00    +0.000 N 
ATOM     11  H   UNL     1      47.322   5.210  11.377  0.00  0.00    +0.000 HD
BRANCH   9  12
ATOM     12  C   UNL     1      45.292   4.780   9.903  0.00  0.00    +0.000 A 
ATOM     13  C   UNL     1      44.535   3.616   9.973  0.00  0.00    +0.000 A 
ATOM     14  C   UNL     1      44.499   2.784   8.859  0.00  0.00    +0.000 A 
ATOM     15  C   UNL     1      45.216   3.142   7.722  0.00  0.00    +0.000 A 
ATOM     16  C   UNL     1      45.945   4.324   7.743  0.00  0.00    +0.000 A 
ATOM     17  N   UNL     1      46.006   5.159   8.806  0.00  0.00    +0.000 NA
ENDBRANCH   9  12
ENDBRANCH   7  10
ENDBRANCH   1   7
BRANCH   4  18
ATOM     18  C   UNL     1      48.803   3.911  17.522  0.00  0.00    +0.000 C 
BRANCH  18  19
ATOM     19  N   UNL     1      50.211   3.623  17.374  0.00  0.00    +0.000 N 
ATOM     20  C   UNL     1      51.144   4.000  18.301  0.00  0.00    +0.000 C 
ATOM     21  O   UNL     1      50.838   4.610  19.324  0.00  0.00    +0.000 OA
ATOM     22  H   UNL     1      50.503   3.334  16.446  0.00  0.00    +0.000 HD
BRANCH  20  23
ATOM     23  C   UNL     1      52.526   3.573  18.048  0.00  0.00    +0.000 A 
ATOM     24  C   UNL     1      53.556   4.503  18.123  0.00  0.00    +0.000 A 
ATOM     25  S   UNL     1      55.100   3.839  17.836  0.00  0.00    +0.000 S 
ATOM     26  C   UNL     1      54.445   2.294  17.558  0.00  0.00    +0.000 A 
ATOM     27  N   UNL     1      55.244   1.245  17.225  0.00  0.00    +0.000 NA
ATOM     28  C   UNL     1      54.612   0.140  17.008  0.00  0.00    +0.000 A 
ATOM     29  N   UNL     1      53.253  -0.014  17.107  0.00  0.00    +0.000 N 
ATOM     30  C   UNL     1      52.414   1.001  17.498  0.00  0.00    +0.000 A 
ATOM     31  O   UNL     1      51.217   0.805  17.673  0.00  0.00    +0.000 OA
ATOM     32  C   UNL     1      53.069   2.278  17.711  0.00  0.00    +0.000 A 
ATOM     33  H   UNL     1      52.820  -0.912  16.951  0.00  0.00    +0.000 HD
ENDBRANCH  20  23
ENDBRANCH  18  19
ENDBRANCH   4  18
TORSDOF 6
ENDMDL
