MODEL 1
REMARK VINA RESULT:    -8.652      0.000      0.000
REMARK INTER + INTRA:         -12.085
REMARK INTER:                 -11.181
REMARK INTRA:                  -0.904
REMARK UNBOUND:                -0.904
REMARK  Name = 
REMARK  6 active torsions:
REMARK  status: ('A' for Active; 'I' for Inactive)
REMARK    1  A    between atoms: C_1  and  C_2
REMARK    2  A    between atoms: C_6  and  O_7
REMARK    3  A    between atoms: O_7  and  C_8
REMARK    4  A    between atoms: C_11  and  C_12
REMARK    5  A    between atoms: C_12  and  N_13
REMARK    6  A    between atoms: C_14  and  C_16
REMARK                            x       y       z     vdW  Elec       q    Type
REMARK                         _______ _______ _______ _____ _____    ______ ____
ROOT
ATOM      1  C   UNL     1      45.875   7.533  12.650  0.00  0.00    +0.000 C 
ENDROOT
BRANCH   1   5
ATOM      2  C   UNL     1      44.593   4.398   9.976  0.00  0.00    +0.000 A 
ATOM      3  C   UNL     1      44.047   4.494  11.258  0.00  0.00    +0.000 A 
ATOM      4  C   UNL     1      44.456   5.514  12.122  0.00  0.00    +0.000 A 
ATOM      5  C   UNL     1      45.458   6.412  11.735  0.00  0.00    +0.000 A 
ATOM      6  C   UNL     1      46.092   6.227  10.498  0.00  0.00    +0.000 A 
ATOM      7  C   UNL     1      45.655   5.232   9.620  0.00  0.00    +0.000 A 
BRANCH   2   8
ATOM      8  O   UNL     1      44.181   3.487   9.029  0.00  0.00    +0.000 OA
BRANCH   8  14
ATOM      9  C   UNL     1      47.199   3.244   5.213  0.00  0.00    +0.000 C 
ATOM     10  C   UNL     1      46.638   2.625   6.459  0.00  0.00    +0.000 A 
ATOM     11  C   UNL     1      47.074   1.368   6.892  0.00  0.00    +0.000 A 
ATOM     12  C   UNL     1      46.504   0.773   8.017  0.00  0.00    +0.000 A 
ATOM     13  C   UNL     1      45.501   1.434   8.725  0.00  0.00    +0.000 A 
ATOM     14  C   UNL     1      45.117   2.727   8.357  0.00  0.00    +0.000 A 
ATOM     15  C   UNL     1      45.659   3.302   7.204  0.00  0.00    +0.000 A 
ENDBRANCH   8  14
ENDBRANCH   2   8
ENDBRANCH   1   5
BRANCH   1  16
ATOM     16  N   UNL     1      46.568   7.026  13.804  0.00  0.00    +0.000 N 
ATOM     17  C   UNL     1      47.929   6.855  13.802  0.00  0.00    +0.000 C 
ATOM     18  O   UNL     1      48.622   7.157  12.837  0.00  0.00    +0.000 OA
ATOM     19  H   UNL     1      46.004   6.562  14.508  0.00  0.00    +0.000 HD
BRANCH  17  20
ATOM     20  C   UNL     1      48.515   6.355  15.050  0.00  0.00    +0.000 A 
ATOM     21  C   UNL     1      49.610   7.005  15.604  0.00  0.00    +0.000 A 
ATOM     22  S   UNL     1      50.115   6.344  17.093  0.00  0.00    +0.000 S 
ATOM     23  C   UNL     1      48.927   5.128  17.019  0.00  0.00    +0.000 A 
ATOM     24  N   UNL     1      48.820   4.195  18.003  0.00  0.00    +0.000 NA
ATOM     25  C   UNL     1      47.900   3.310  17.801  0.00  0.00    +0.000 A 
ATOM     26  N   UNL     1      47.079   3.275  16.704  0.00  0.00    +0.000 N 
ATOM     27  C   UNL     1      47.130   4.213  15.701  0.00  0.00    +0.000 A 
ATOM     28  O   UNL     1      46.356   4.174  14.751  0.00  0.00    +0.000 OA
ATOM     29  C   UNL     1      48.150   5.229  15.879  0.00  0.00    +0.000 A 
ATOM     30  H   UNL     1      46.376   2.556  16.605  0.00  0.00    +0.000 HD
ENDBRANCH  17  20
ENDBRANCH   1  16
TORSDOF 5
ENDMDL
MODEL 2
REMARK VINA RESULT:    -8.063      1.275      1.989
REMARK INTER + INTRA:         -11.325
REMARK INTER:                 -10.312
REMARK INTRA:                  -1.013
REMARK UNBOUND:                -0.904
REMARK  Name = 
REMARK  6 active torsions:
REMARK  status: ('A' for Active; 'I' for Inactive)
REMARK    1  A    between atoms: C_1  and  C_2
REMARK    2  A    between atoms: C_6  and  O_7
REMARK    3  A    between atoms: O_7  and  C_8
REMARK    4  A    between atoms: C_11  and  C_12
REMARK    5  A    between atoms: C_12  and  N_13
REMARK    6  A    between atoms: C_14  and  C_16
REMARK                            x       y       z     vdW  Elec       q    Type
REMARK                         _______ _______ _______ _____ _____    ______ ____
ROOT
ATOM      1  C   UNL     1      47.550   8.410  13.872  0.00  0.00    +0.000 C 
ENDROOT
BRANCH   1   5
ATOM      2  C   UNL     1      45.040   6.198  11.147  0.00  0.00    +0.000 A 
ATOM      3  C   UNL     1      46.313   5.723  11.471  0.00  0.00    +0.000 A 
ATOM      4  C   UNL     1      47.123   6.435  12.360  0.00  0.00    +0.000 A 
ATOM      5  C   UNL     1      46.693   7.659  12.887  0.00  0.00    +0.000 A 
ATOM      6  C   UNL     1      45.471   8.190  12.453  0.00  0.00    +0.000 A 
ATOM      7  C   UNL     1      44.645   7.459  11.596  0.00  0.00    +0.000 A 
BRANCH   2   8
ATOM      8  O   UNL     1      44.140   5.515  10.358  0.00  0.00    +0.000 OA
BRANCH   8  14
ATOM      9  C   UNL     1      46.670   3.515   6.709  0.00  0.00    +0.000 C 
ATOM     10  C   UNL     1      45.809   3.352   7.926  0.00  0.00    +0.000 A 
ATOM     11  C   UNL     1      45.456   2.079   8.387  0.00  0.00    +0.000 A 
ATOM     12  C   UNL     1      44.605   1.937   9.483  0.00  0.00    +0.000 A 
ATOM     13  C   UNL     1      44.110   3.067  10.134  0.00  0.00    +0.000 A 
ATOM     14  C   UNL     1      44.523   4.342   9.740  0.00  0.00    +0.000 A 
ATOM     15  C   UNL     1      45.341   4.482   8.615  0.00  0.00    +0.000 A 
ENDBRANCH   8  14
ENDBRANCH   2   8
ENDBRANCH   1   5
BRANCH   1  16
ATOM     16  N   UNL     1      47.895   7.579  14.994  0.00  0.00    +0.000 N 
ATOM     17  C   UNL     1      49.134   7.003  15.102  0.00  0.00    +0.000 C 
ATOM     18  O   UNL     1      50.016   7.194  14.272  0.00  0.00    +0.000 OA
ATOM     19  H   UNL     1      47.126   7.227  15.555  0.00  0.00    +0.000 HD
BRANCH  17  20
ATOM     20  C   UNL     1      49.367   6.199  16.307  0.00  0.00    +0.000 A 
ATOM     21  C   UNL     1      50.410   6.528  17.162  0.00  0.00    +0.000 A 
ATOM     22  S   UNL     1      50.490   5.544  18.552  0.00  0.00    +0.000 S 
ATOM     23  C   UNL     1      49.169   4.605  18.031  0.00  0.00    +0.000 A 
ATOM     24  N   UNL     1      48.719   3.559  18.775  0.00  0.00    +0.000 NA
ATOM     25  C   UNL     1      47.736   2.911  18.242  0.00  0.00    +0.000 A 
ATOM     26  N   UNL     1      47.163   3.216  17.035  0.00  0.00    +0.000 N 
ATOM     27  C   UNL     1      47.564   4.281  16.265  0.00  0.00    +0.000 A 
ATOM     28  O   UNL     1      47.006   4.549  15.206  0.00  0.00    +0.000 OA
ATOM     29  C   UNL     1      48.670   5.040  16.817  0.00  0.00    +0.000 A 
ATOM     30  H   UNL     1      46.394   2.670  16.674  0.00  0.00    +0.000 HD
ENDBRANCH  17  20
ENDBRANCH   1  16
TORSDOF 5
ENDMDL
MODEL 3
REMARK VINA RESULT:    -7.789      2.275      3.944
REMARK INTER + INTRA:         -10.970
REMARK INTER:                  -9.864
REMARK INTRA:                  -1.106
REMARK UNBOUND:                -0.904
REMARK  Name = 
REMARK  6 active torsions:
REMARK  status: ('A' for Active; 'I' for Inactive)
REMARK    1  A    between atoms: C_1  and  C_2
REMARK    2  A    between atoms: C_6  and  O_7
REMARK    3  A    between atoms: O_7  and  C_8
REMARK    4  A    between atoms: C_11  and  C_12
REMARK    5  A    between atoms: C_12  and  N_13
REMARK    6  A    between atoms: C_14  and  C_16
REMARK                            x       y       z     vdW  Elec       q    Type
REMARK                         _______ _______ _______ _____ _____    ______ ____
ROOT
ATOM      1  C   UNL     1      46.651   4.934  14.402  0.00  0.00    +0.000 C 
ENDROOT
BRANCH   1   5
ATOM      2  C   UNL     1      45.043   4.231  10.460  0.00  0.00    +0.000 A 
ATOM      3  C   UNL     1      45.605   5.470  10.777  0.00  0.00    +0.000 A 
ATOM      4  C   UNL     1      46.134   5.695  12.051  0.00  0.00    +0.000 A 
ATOM      5  C   UNL     1      46.051   4.706  13.040  0.00  0.00    +0.000 A 
ATOM      6  C   UNL     1      45.369   3.516  12.750  0.00  0.00    +0.000 A 
ATOM      7  C   UNL     1      44.877   3.276  11.464  0.00  0.00    +0.000 A 
BRANCH   2   8
ATOM      8  O   UNL     1      44.588   3.890   9.205  0.00  0.00    +0.000 OA
BRANCH   8  14
ATOM      9  C   UNL     1      46.776  -0.189   7.693  0.00  0.00    +0.000 C 
ATOM     10  C   UNL     1      46.527   1.280   7.529  0.00  0.00    +0.000 A 
ATOM     11  C   UNL     1      47.133   1.997   6.492  0.00  0.00    +0.000 A 
ATOM     12  C   UNL     1      46.945   3.375   6.383  0.00  0.00    +0.000 A 
ATOM     13  C   UNL     1      46.138   4.044   7.302  0.00  0.00    +0.000 A 
ATOM     14  C   UNL     1      45.455   3.329   8.290  0.00  0.00    +0.000 A 
ATOM     15  C   UNL     1      45.681   1.956   8.423  0.00  0.00    +0.000 A 
ENDBRANCH   8  14
ENDBRANCH   2   8
ENDBRANCH   1   5
BRANCH   1  16
ATOM     16  N   UNL     1      47.354   6.188  14.453  0.00  0.00    +0.000 N 
ATOM     17  C   UNL     1      48.451   6.360  15.256  0.00  0.00    +0.000 C 
ATOM     18  O   UNL     1      48.908   5.450  15.939  0.00  0.00    +0.000 OA
ATOM     19  H   UNL     1      46.867   7.000  14.087  0.00  0.00    +0.000 HD
BRANCH  17  20
ATOM     20  C   UNL     1      49.091   7.679  15.197  0.00  0.00    +0.000 A 
ATOM     21  C   UNL     1      49.153   8.466  16.339  0.00  0.00    +0.000 A 
ATOM     22  S   UNL     1      49.999   9.929  16.117  0.00  0.00    +0.000 S 
ATOM     23  C   UNL     1      50.261   9.591  14.469  0.00  0.00    +0.000 A 
ATOM     24  N   UNL     1      50.931  10.467  13.673  0.00  0.00    +0.000 NA
ATOM     25  C   UNL     1      51.024  10.101  12.437  0.00  0.00    +0.000 A 
ATOM     26  N   UNL     1      50.509   8.938  11.927  0.00  0.00    +0.000 N 
ATOM     27  C   UNL     1      49.852   8.010  12.699  0.00  0.00    +0.000 A 
ATOM     28  O   UNL     1      49.436   6.961  12.218  0.00  0.00    +0.000 OA
ATOM     29  C   UNL     1      49.717   8.375  14.096  0.00  0.00    +0.000 A 
ATOM     30  H   UNL     1      50.617   8.708  10.950  0.00  0.00    +0.000 HD
ENDBRANCH  17  20
ENDBRANCH   1  16
TORSDOF 5
ENDMDL
MODEL 4
REMARK VINA RESULT:    -7.464      2.441      3.329
REMARK INTER + INTRA:         -10.550
REMARK INTER:                  -9.624
REMARK INTRA:                  -0.926
REMARK UNBOUND:                -0.904
REMARK  Name = 
REMARK  6 active torsions:
REMARK  status: ('A' for Active; 'I' for Inactive)
REMARK    1  A    between atoms: C_1  and  C_2
REMARK    2  A    between atoms: C_6  and  O_7
REMARK    3  A    between atoms: O_7  and  C_8
REMARK    4  A    between atoms: C_11  and  C_12
REMARK    5  A    between atoms: C_12  and  N_13
REMARK    6  A    between atoms: C_14  and  C_16
REMARK                            x       y       z     vdW  Elec       q    Type
REMARK                         _______ _______ _______ _____ _____    ______ ____
ROOT
ATOM      1  C   UNL     1      46.455   5.736  13.877  0.00  0.00    +0.000 C 
ENDROOT
BRANCH   1   5
ATOM      2  C   UNL     1      44.967   4.321  10.082  0.00  0.00    +0.000 A 
ATOM      3  C   UNL     1      45.550   5.587  10.179  0.00  0.00    +0.000 A 
ATOM      4  C   UNL     1      46.039   6.042  11.406  0.00  0.00    +0.000 A 
ATOM      5  C   UNL     1      45.897   5.262  12.561  0.00  0.00    +0.000 A 
ATOM      6  C   UNL     1      45.194   4.052  12.477  0.00  0.00    +0.000 A 
ATOM      7  C   UNL     1      44.741   3.580  11.242  0.00  0.00    +0.000 A 
BRANCH   2   8
ATOM      8  O   UNL     1      44.547   3.755   8.898  0.00  0.00    +0.000 OA
BRANCH   8  14
ATOM      9  C   UNL     1      47.493   2.996   5.094  0.00  0.00    +0.000 C 
ATOM     10  C   UNL     1      46.848   2.491   6.350  0.00  0.00    +0.000 A 
ATOM     11  C   UNL     1      47.096   1.192   6.809  0.00  0.00    +0.000 A 
ATOM     12  C   UNL     1      46.445   0.710   7.944  0.00  0.00    +0.000 A 
ATOM     13  C   UNL     1      45.551   1.525   8.637  0.00  0.00    +0.000 A 
ATOM     14  C   UNL     1      45.360   2.852   8.243  0.00  0.00    +0.000 A 
ATOM     15  C   UNL     1      45.980   3.319   7.080  0.00  0.00    +0.000 A 
ENDBRANCH   8  14
ENDBRANCH   2   8
ENDBRANCH   1   5
BRANCH   1  16
ATOM     16  N   UNL     1      47.763   6.308  13.707  0.00  0.00    +0.000 N 
ATOM     17  C   UNL     1      47.958   7.665  13.734  0.00  0.00    +0.000 C 
ATOM     18  O   UNL     1      47.040   8.451  13.939  0.00  0.00    +0.000 OA
ATOM     19  H   UNL     1      48.477   5.706  13.312  0.00  0.00    +0.000 HD
BRANCH  17  20
ATOM     20  C   UNL     1      49.343   8.119  13.573  0.00  0.00    +0.000 A 
ATOM     21  C   UNL     1      49.676   8.953  12.514  0.00  0.00    +0.000 A 
ATOM     22  S   UNL     1      51.306   9.451  12.521  0.00  0.00    +0.000 S 
ATOM     23  C   UNL     1      51.641   8.520  13.906  0.00  0.00    +0.000 A 
ATOM     24  N   UNL     1      52.891   8.489  14.441  0.00  0.00    +0.000 NA
ATOM     25  C   UNL     1      53.012   7.713  15.467  0.00  0.00    +0.000 A 
ATOM     26  N   UNL     1      51.996   6.967  16.006  0.00  0.00    +0.000 N 
ATOM     27  C   UNL     1      50.712   6.991  15.518  0.00  0.00    +0.000 A 
ATOM     28  O   UNL     1      49.817   6.340  16.046  0.00  0.00    +0.000 OA
ATOM     29  C   UNL     1      50.523   7.845  14.361  0.00  0.00    +0.000 A 
ATOM     30  H   UNL     1      52.155   6.380  16.813  0.00  0.00    +0.000 HD
ENDBRANCH  17  20
ENDBRANCH   1  16
TORSDOF 5
ENDMDL
MODEL 5
REMARK VINA RESULT:    -7.316      2.188      2.775
REMARK INTER + INTRA:         -10.359
REMARK INTER:                  -9.510
REMARK INTRA:                  -0.849
REMARK UNBOUND:                -0.904
REMARK  Name = 
REMARK  6 active torsions:
REMARK  status: ('A' for Active; 'I' for Inactive)
REMARK    1  A    between atoms: C_1  and  C_2
REMARK    2  A    between atoms: C_6  and  O_7
REMARK    3  A    between atoms: O_7  and  C_8
REMARK    4  A    between atoms: C_11  and  C_12
REMARK    5  A    between atoms: C_12  and  N_13
REMARK    6  A    between atoms: C_14  and  C_16
REMARK                            x       y       z     vdW  Elec       q    Type
REMARK                         _______ _______ _______ _____ _____    ______ ____
ROOT
ATOM      1  C   UNL     1      47.638   7.267  13.993  0.00  0.00    +0.000 C 
ENDROOT
BRANCH   1   5
ATOM      2  C   UNL     1      45.385   5.293  10.887  0.00  0.00    +0.000 A 
ATOM      3  C   UNL     1      45.315   4.833  12.205  0.00  0.00    +0.000 A 
ATOM      4  C   UNL     1      46.038   5.477  13.212  0.00  0.00    +0.000 A 
ATOM      5  C   UNL     1      46.885   6.549  12.904  0.00  0.00    +0.000 A 
ATOM      6  C   UNL     1      47.047   6.918  11.561  0.00  0.00    +0.000 A 
ATOM      7  C   UNL     1      46.294   6.300  10.560  0.00  0.00    +0.000 A 
BRANCH   2   8
ATOM      8  O   UNL     1      44.634   4.781   9.851  0.00  0.00    +0.000 OA
BRANCH   8  14
ATOM      9  C   UNL     1      47.004   3.356   5.842  0.00  0.00    +0.000 C 
ATOM     10  C   UNL     1      46.316   3.009   7.129  0.00  0.00    +0.000 A 
ATOM     11  C   UNL     1      46.204   1.677   7.543  0.00  0.00    +0.000 A 
ATOM     12  C   UNL     1      45.509   1.358   8.709  0.00  0.00    +0.000 A 
ATOM     13  C   UNL     1      44.932   2.369   9.478  0.00  0.00    +0.000 A 
ATOM     14  C   UNL     1      45.111   3.709   9.125  0.00  0.00    +0.000 A 
ATOM     15  C   UNL     1      45.770   4.023   7.933  0.00  0.00    +0.000 A 
ENDBRANCH   8  14
ENDBRANCH   2   8
ENDBRANCH   1   5
BRANCH   1  16
ATOM     16  N   UNL     1      47.691   6.473  15.192  0.00  0.00    +0.000 N 
ATOM     17  C   UNL     1      48.884   6.179  15.800  0.00  0.00    +0.000 C 
ATOM     18  O   UNL     1      49.954   6.604  15.378  0.00  0.00    +0.000 OA
ATOM     19  H   UNL     1      46.864   5.931  15.418  0.00  0.00    +0.000 HD
BRANCH  17  20
ATOM     20  C   UNL     1      48.799   5.383  17.030  0.00  0.00    +0.000 A 
ATOM     21  C   UNL     1      48.471   4.036  16.956  0.00  0.00    +0.000 A 
ATOM     22  S   UNL     1      48.495   3.243  18.464  0.00  0.00    +0.000 S 
ATOM     23  C   UNL     1      48.886   4.685  19.279  0.00  0.00    +0.000 A 
ATOM     24  N   UNL     1      49.041   4.705  20.630  0.00  0.00    +0.000 NA
ATOM     25  C   UNL     1      49.299   5.873  21.119  0.00  0.00    +0.000 A 
ATOM     26  N   UNL     1      49.416   7.021  20.379  0.00  0.00    +0.000 N 
ATOM     27  C   UNL     1      49.298   7.043  19.011  0.00  0.00    +0.000 A 
ATOM     28  O   UNL     1      49.445   8.082  18.375  0.00  0.00    +0.000 OA
ATOM     29  C   UNL     1      49.004   5.756  18.411  0.00  0.00    +0.000 A 
ATOM     30  H   UNL     1      49.622   7.905  20.823  0.00  0.00    +0.000 HD
ENDBRANCH  17  20
ENDBRANCH   1  16
TORSDOF 5
ENDMDL
MODEL 6
REMARK VINA RESULT:    -7.176      4.006      8.743
REMARK INTER + INTRA:         -10.178
REMARK INTER:                  -9.191
REMARK INTRA:                  -0.986
REMARK UNBOUND:                -0.904
REMARK  Name = 
REMARK  6 active torsions:
REMARK  status: ('A' for Active; 'I' for Inactive)
REMARK    1  A    between atoms: C_1  and  C_2
REMARK    2  A    between atoms: C_6  and  O_7
REMARK    3  A    between atoms: O_7  and  C_8
REMARK    4  A    between atoms: C_11  and  C_12
REMARK    5  A    between atoms: C_12  and  N_13
REMARK    6  A    between atoms: C_14  and  C_16
REMARK                            x       y       z     vdW  Elec       q    Type
REMARK                         _______ _______ _______ _____ _____    ______ ____
ROOT
ATOM      1  C   UNL     1      47.355   3.439  16.539  0.00  0.00    +0.000 C 
ENDROOT
BRANCH   1   5
ATOM      2  C   UNL     1      51.219   4.768  17.923  0.00  0.00    +0.000 A 
ATOM      3  C   UNL     1      50.966   3.405  17.754  0.00  0.00    +0.000 A 
ATOM      4  C   UNL     1      49.717   2.974  17.298  0.00  0.00    +0.000 A 
ATOM      5  C   UNL     1      48.689   3.897  17.064  0.00  0.00    +0.000 A 
ATOM      6  C   UNL     1      48.914   5.249  17.362  0.00  0.00    +0.000 A 
ATOM      7  C   UNL     1      50.175   5.682  17.780  0.00  0.00    +0.000 A 
BRANCH   2   8
ATOM      8  O   UNL     1      52.447   5.286  18.276  0.00  0.00    +0.000 OA
BRANCH   8  14
ATOM      9  C   UNL     1      54.372   7.359  14.311  0.00  0.00    +0.000 C 
ATOM     10  C   UNL     1      54.449   6.327  15.397  0.00  0.00    +0.000 A 
ATOM     11  C   UNL     1      55.527   5.437  15.463  0.00  0.00    +0.000 A 
ATOM     12  C   UNL     1      55.561   4.442  16.438  0.00  0.00    +0.000 A 
ATOM     13  C   UNL     1      54.523   4.334  17.363  0.00  0.00    +0.000 A 
ATOM     14  C   UNL     1      53.484   5.269  17.366  0.00  0.00    +0.000 A 
ATOM     15  C   UNL     1      53.431   6.239  16.360  0.00  0.00    +0.000 A 
ENDBRANCH   8  14
ENDBRANCH   2   8
ENDBRANCH   1   5
BRANCH   1  16
ATOM     16  N   UNL     1      46.794   4.410  15.638  0.00  0.00    +0.000 N 
ATOM     17  C   UNL     1      46.781   4.202  14.283  0.00  0.00    +0.000 C 
ATOM     18  O   UNL     1      47.210   3.171  13.777  0.00  0.00    +0.000 OA
ATOM     19  H   UNL     1      46.652   5.345  16.005  0.00  0.00    +0.000 HD
BRANCH  17  20
ATOM     20  C   UNL     1      46.157   5.258  13.477  0.00  0.00    +0.000 A 
ATOM     21  C   UNL     1      46.835   6.451  13.263  0.00  0.00    +0.000 A 
ATOM     22  S   UNL     1      46.005   7.534  12.241  0.00  0.00    +0.000 S 
ATOM     23  C   UNL     1      44.683   6.472  12.097  0.00  0.00    +0.000 A 
ATOM     24  N   UNL     1      43.596   6.807  11.351  0.00  0.00    +0.000 NA
ATOM     25  C   UNL     1      42.652   5.925  11.360  0.00  0.00    +0.000 A 
ATOM     26  N   UNL     1      42.698   4.739  12.046  0.00  0.00    +0.000 N 
ATOM     27  C   UNL     1      43.787   4.346  12.786  0.00  0.00    +0.000 A 
ATOM     28  O   UNL     1      43.811   3.261  13.358  0.00  0.00    +0.000 OA
ATOM     29  C   UNL     1      44.875   5.304  12.812  0.00  0.00    +0.000 A 
ATOM     30  H   UNL     1      41.926   4.089  12.010  0.00  0.00    +0.000 HD
ENDBRANCH  17  20
ENDBRANCH   1  16
TORSDOF 5
ENDMDL
MODEL 7
REMARK VINA RESULT:    -7.059      4.334      9.675
REMARK INTER + INTRA:         -10.027
REMARK INTER:                  -9.099
REMARK INTRA:                  -0.928
REMARK UNBOUND:                -0.904
REMARK  Name = 
REMARK  6 active torsions:
REMARK  status: ('A' for Active; 'I' for Inactive)
REMARK    1  A    between atoms: C_1  and  C_2
REMARK    2  A    between atoms: C_6  and  O_7
REMARK    3  A    between atoms: O_7  and  C_8
REMARK    4  A    between atoms: C_11  and  C_12
REMARK    5  A    between atoms: C_12  and  N_13
REMARK    6  A    between atoms: C_14  and  C_16
REMARK                            x       y       z     vdW  Elec       q    Type
REMARK                         _______ _______ _______ _____ _____    ______ ____
ROOT
ATOM      1  C   UNL     1      47.429   3.617  17.022  0.00  0.00    +0.000 C 
ENDROOT
BRANCH   1   5
ATOM      2  C   UNL     1      51.705   3.580  17.597  0.00  0.00    +0.000 A 
ATOM      3  C   UNL     1      51.009   2.380  17.432  0.00  0.00    +0.000 A 
ATOM      4  C   UNL     1      49.625   2.392  17.238  0.00  0.00    +0.000 A 
ATOM      5  C   UNL     1      48.915   3.599  17.267  0.00  0.00    +0.000 A 
ATOM      6  C   UNL     1      49.605   4.783  17.564  0.00  0.00    +0.000 A 
ATOM      7  C   UNL     1      50.993   4.774  17.719  0.00  0.00    +0.000 A 
BRANCH   2   8
ATOM      8  O   UNL     1      53.077   3.668  17.698  0.00  0.00    +0.000 OA
BRANCH   8  14
ATOM      9  C   UNL     1      55.680  -0.133  19.278  0.00  0.00    +0.000 C 
ATOM     10  C   UNL     1      55.042   1.198  19.546  0.00  0.00    +0.000 A 
ATOM     11  C   UNL     1      55.135   1.794  20.809  0.00  0.00    +0.000 A 
ATOM     12  C   UNL     1      54.488   3.002  21.067  0.00  0.00    +0.000 A 
ATOM     13  C   UNL     1      53.752   3.629  20.063  0.00  0.00    +0.000 A 
ATOM     14  C   UNL     1      53.723   3.092  18.773  0.00  0.00    +0.000 A 
ATOM     15  C   UNL     1      54.336   1.859  18.529  0.00  0.00    +0.000 A 
ENDBRANCH   8  14
ENDBRANCH   2   8
ENDBRANCH   1   5
BRANCH   1  16
ATOM     16  N   UNL     1      47.083   4.590  16.021  0.00  0.00    +0.000 N 
ATOM     17  C   UNL     1      47.063   4.267  14.688  0.00  0.00    +0.000 C 
ATOM     18  O   UNL     1      47.301   3.132  14.289  0.00  0.00    +0.000 OA
ATOM     19  H   UNL     1      47.111   5.564  16.301  0.00  0.00    +0.000 HD
BRANCH  17  20
ATOM     20  C   UNL     1      46.669   5.343  13.772  0.00  0.00    +0.000 A 
ATOM     21  C   UNL     1      47.537   6.401  13.541  0.00  0.00    +0.000 A 
ATOM     22  S   UNL     1      46.960   7.520  12.391  0.00  0.00    +0.000 S 
ATOM     23  C   UNL     1      45.502   6.661  12.206  0.00  0.00    +0.000 A 
ATOM     24  N   UNL     1      44.535   7.100  11.356  0.00  0.00    +0.000 NA
ATOM     25  C   UNL     1      43.467   6.372  11.343  0.00  0.00    +0.000 A 
ATOM     26  N   UNL     1      43.280   5.246  12.102  0.00  0.00    +0.000 N 
ATOM     27  C   UNL     1      44.240   4.749  12.949  0.00  0.00    +0.000 A 
ATOM     28  O   UNL     1      44.055   3.717  13.587  0.00  0.00    +0.000 OA
ATOM     29  C   UNL     1      45.460   5.532  13.004  0.00  0.00    +0.000 A 
ATOM     30  H   UNL     1      42.421   4.719  12.044  0.00  0.00    +0.000 HD
ENDBRANCH  17  20
ENDBRANCH   1  16
TORSDOF 5
ENDMDL
MODEL 8
REMARK VINA RESULT:    -7.027      2.255      3.705
REMARK INTER + INTRA:          -9.985
REMARK INTER:                  -8.623
REMARK INTRA:                  -1.362
REMARK UNBOUND:                -0.904
REMARK  Name = 
REMARK  6 active torsions:
REMARK  status: ('A' for Active; 'I' for Inactive)
REMARK    1  A    between atoms: C_1  and  C_2
REMARK    2  A    between atoms: C_6  and  O_7
REMARK    3  A    between atoms: O_7  and  C_8
REMARK    4  A    between atoms: C_11  and  C_12
REMARK    5  A    between atoms: C_12  and  N_13
REMARK    6  A    between atoms: C_14  and  C_16
REMARK                            x       y       z     vdW  Elec       q    Type
REMARK                         _______ _______ _______ _____ _____    ______ ____
ROOT
ATOM      1  C   UNL     1      49.136   8.757  14.173  0.00  0.00    +0.000 C 
ENDROOT
BRANCH   1   5
ATOM      2  C   UNL     1      45.874   7.274  11.769  0.00  0.00    +0.000 A 
ATOM      3  C   UNL     1      47.140   6.690  11.671  0.00  0.00    +0.000 A 
ATOM      4  C   UNL     1      48.194   7.165  12.455  0.00  0.00    +0.000 A 
ATOM      5  C   UNL     1      48.011   8.266  13.301  0.00  0.00    +0.000 A 
ATOM      6  C   UNL     1      46.773   8.925  13.294  0.00  0.00    +0.000 A 
ATOM      7  C   UNL     1      45.709   8.426  12.539  0.00  0.00    +0.000 A 
BRANCH   2   8
ATOM      8  O   UNL     1      44.758   6.810  11.107  0.00  0.00    +0.000 OA
BRANCH   8  14
ATOM      9  C   UNL     1      44.490   2.368   9.127  0.00  0.00    +0.000 C 
ATOM     10  C   UNL     1      44.243   3.282  10.291  0.00  0.00    +0.000 A 
ATOM     11  C   UNL     1      43.658   2.799  11.467  0.00  0.00    +0.000 A 
ATOM     12  C   UNL     1      43.376   3.667  12.521  0.00  0.00    +0.000 A 
ATOM     13  C   UNL     1      43.688   5.022  12.413  0.00  0.00    +0.000 A 
ATOM     14  C   UNL     1      44.352   5.503  11.281  0.00  0.00    +0.000 A 
ATOM     15  C   UNL     1      44.595   4.639  10.209  0.00  0.00    +0.000 A 
ENDBRANCH   8  14
ENDBRANCH   2   8
ENDBRANCH   1   5
BRANCH   1  16
ATOM     16  N   UNL     1      49.283   7.929  15.341  0.00  0.00    +0.000 N 
ATOM     17  C   UNL     1      48.660   8.243  16.521  0.00  0.00    +0.000 C 
ATOM     18  O   UNL     1      47.922   9.216  16.631  0.00  0.00    +0.000 OA
ATOM     19  H   UNL     1      50.053   7.269  15.339  0.00  0.00    +0.000 HD
BRANCH  17  20
ATOM     20  C   UNL     1      48.870   7.303  17.628  0.00  0.00    +0.000 A 
ATOM     21  C   UNL     1      49.317   7.775  18.855  0.00  0.00    +0.000 A 
ATOM     22  S   UNL     1      49.431   6.566  20.052  0.00  0.00    +0.000 S 
ATOM     23  C   UNL     1      48.944   5.358  18.956  0.00  0.00    +0.000 A 
ATOM     24  N   UNL     1      48.846   4.058  19.346  0.00  0.00    +0.000 NA
ATOM     25  C   UNL     1      48.503   3.244  18.403  0.00  0.00    +0.000 A 
ATOM     26  N   UNL     1      48.249   3.612  17.108  0.00  0.00    +0.000 N 
ATOM     27  C   UNL     1      48.307   4.914  16.676  0.00  0.00    +0.000 A 
ATOM     28  O   UNL     1      48.038   5.215  15.517  0.00  0.00    +0.000 OA
ATOM     29  C   UNL     1      48.691   5.871  17.696  0.00  0.00    +0.000 A 
ATOM     30  H   UNL     1      47.983   2.925  16.417  0.00  0.00    +0.000 HD
ENDBRANCH  17  20
ENDBRANCH   1  16
TORSDOF 5
ENDMDL
MODEL 9
REMARK VINA RESULT:    -6.707      3.542      9.214
REMARK INTER + INTRA:          -9.572
REMARK INTER:                  -8.521
REMARK INTRA:                  -1.050
REMARK UNBOUND:                -0.904
REMARK  Name = 
REMARK  6 active torsions:
REMARK  status: ('A' for Active; 'I' for Inactive)
REMARK    1  A    between atoms: C_1  and  C_2
REMARK    2  A    between atoms: C_6  and  O_7
REMARK    3  A    between atoms: O_7  and  C_8
REMARK    4  A    between atoms: C_11  and  C_12
REMARK    5  A    between atoms: C_12  and  N_13
REMARK    6  A    between atoms: C_14  and  C_16
REMARK                            x       y       z     vdW  Elec       q    Type
REMARK                         _______ _______ _______ _____ _____    ______ ____
ROOT
ATOM      1  C   UNL     1      47.202   7.809  12.140  0.00  0.00    +0.000 C 
ENDROOT
BRANCH   1   5
ATOM      2  C   UNL     1      48.958   7.874  16.081  0.00  0.00    +0.000 A 
ATOM      3  C   UNL     1      48.716   6.656  15.441  0.00  0.00    +0.000 A 
ATOM      4  C   UNL     1      48.155   6.635  14.161  0.00  0.00    +0.000 A 
ATOM      5  C   UNL     1      47.774   7.828  13.533  0.00  0.00    +0.000 A 
ATOM      6  C   UNL     1      47.900   9.033  14.238  0.00  0.00    +0.000 A 
ATOM      7  C   UNL     1      48.497   9.057  15.501  0.00  0.00    +0.000 A 
BRANCH   2   8
ATOM      8  O   UNL     1      49.593   7.993  17.298  0.00  0.00    +0.000 OA
BRANCH   8  14
ATOM      9  C   UNL     1      48.850   4.691  20.801  0.00  0.00    +0.000 C 
ATOM     10  C   UNL     1      48.564   6.043  20.217  0.00  0.00    +0.000 A 
ATOM     11  C   UNL     1      47.675   6.920  20.847  0.00  0.00    +0.000 A 
ATOM     12  C   UNL     1      47.367   8.150  20.266  0.00  0.00    +0.000 A 
ATOM     13  C   UNL     1      47.955   8.517  19.056  0.00  0.00    +0.000 A 
ATOM     14  C   UNL     1      48.911   7.691  18.459  0.00  0.00    +0.000 A 
ATOM     15  C   UNL     1      49.185   6.440  19.022  0.00  0.00    +0.000 A 
ENDBRANCH   8  14
ENDBRANCH   2   8
ENDBRANCH   1   5
BRANCH   1  16
ATOM     16  N   UNL     1      46.585   6.542  11.853  0.00  0.00    +0.000 N 
ATOM     17  C   UNL     1      45.229   6.429  11.688  0.00  0.00    +0.000 C 
ATOM     18  O   UNL     1      44.483   7.401  11.740  0.00  0.00    +0.000 OA
ATOM     19  H   UNL     1      47.140   5.713  12.033  0.00  0.00    +0.000 HD
BRANCH  17  20
ATOM     20  C   UNL     1      44.729   5.086  11.373  0.00  0.00    +0.000 A 
ATOM     21  C   UNL     1      43.982   4.392  12.316  0.00  0.00    +0.000 A 
ATOM     22  S   UNL     1      43.413   2.884  11.761  0.00  0.00    +0.000 S 
ATOM     23  C   UNL     1      44.195   3.079  10.262  0.00  0.00    +0.000 A 
ATOM     24  N   UNL     1      44.120   2.115   9.304  0.00  0.00    +0.000 NA
ATOM     25  C   UNL     1      44.792   2.377   8.232  0.00  0.00    +0.000 A 
ATOM     26  N   UNL     1      45.530   3.515   8.031  0.00  0.00    +0.000 N 
ATOM     27  C   UNL     1      45.609   4.527   8.957  0.00  0.00    +0.000 A 
ATOM     28  O   UNL     1      46.249   5.548   8.731  0.00  0.00    +0.000 OA
ATOM     29  C   UNL     1      44.875   4.280  10.183  0.00  0.00    +0.000 A 
ATOM     30  H   UNL     1      46.032   3.661   7.167  0.00  0.00    +0.000 HD
ENDBRANCH  17  20
ENDBRANCH   1  16
TORSDOF 5
ENDMDL
