MODEL 1
REMARK VINA RESULT:    -8.479      0.000      0.000
REMARK INTER + INTRA:         -12.988
REMARK INTER:                 -11.949
REMARK INTRA:                  -1.039
REMARK UNBOUND:                -1.039
REMARK  Name = 
REMARK  7 active torsions:
REMARK  status: ('A' for Active; 'I' for Inactive)
REMARK    1  A    between atoms: C_2  and  C_3
REMARK    2  A    between atoms: C_6  and  N_7
REMARK    3  A    between atoms: N_7  and  C_8
REMARK    4  A    between atoms: C_8  and  C_9
REMARK    5  A    between atoms: C_9  and  C_12
REMARK    6  A    between atoms: C_16  and  O_17
REMARK    7  A    between atoms: O_17  and  C_18
REMARK                            x       y       z     vdW  Elec       q    Type
REMARK                         _______ _______ _______ _____ _____    ______ ____
ROOT
ATOM      1  C   UNL     1      43.943   4.845  12.479  0.00  0.00    +0.000 C 
ATOM      2  F   UNL     1      43.056   5.525  13.265  0.00  0.00    +0.000 F 
ATOM      3  F   UNL     1      43.789   3.530  12.830  0.00  0.00    +0.000 F 
ENDROOT
BRANCH   1   4
ATOM      4  C   UNL     1      45.364   5.329  12.694  0.00  0.00    +0.000 A 
ATOM      5  C   UNL     1      45.968   6.207  11.784  0.00  0.00    +0.000 A 
ATOM      6  C   UNL     1      47.264   6.677  12.008  0.00  0.00    +0.000 A 
ATOM      7  C   UNL     1      47.978   6.273  13.140  0.00  0.00    +0.000 A 
ATOM      8  C   UNL     1      47.393   5.387  14.042  0.00  0.00    +0.000 A 
ATOM      9  C   UNL     1      46.096   4.920  13.819  0.00  0.00    +0.000 A 
BRANCH   8  10
ATOM     10  O   UNL     1      47.972   4.944  15.203  0.00  0.00    +0.000 OA
BRANCH  10  11
ATOM     11  C   UNL     1      47.203   4.141  16.126  0.00  0.00    +0.000 C 
ATOM     12  C   UNL     1      47.173   4.570  17.609  0.00  0.00    +0.000 C 
ATOM     13  N   UNL     1      47.487   3.187  18.018  0.00  0.00    +0.000 NA
ATOM     14  C   UNL     1      47.944   2.889  16.649  0.00  0.00    +0.000 C 
ATOM     15  H   UNL     1      46.674   2.643  18.306  0.00  0.00    +0.000 HD
ENDBRANCH  10  11
ENDBRANCH   8  10
ENDBRANCH   1   4
BRANCH   1  16
ATOM     16  C   UNL     1      43.511   4.992  10.996  0.00  0.00    +0.000 C 
BRANCH  16  17
ATOM     17  N   UNL     1      43.535   3.712  10.263  0.00  0.00    +0.000 N 
ATOM     18  H   UNL     1      43.140   2.927  10.783  0.00  0.00    +0.000 HD
BRANCH  17  22
ATOM     19  C   UNL     1      46.560   2.512   7.580  0.00  0.00    +0.000 A 
ATOM     20  C   UNL     1      46.225   3.865   7.682  0.00  0.00    +0.000 A 
ATOM     21  C   UNL     1      45.240   4.281   8.585  0.00  0.00    +0.000 A 
ATOM     22  C   UNL     1      44.589   3.367   9.423  0.00  0.00    +0.000 A 
ATOM     23  C   UNL     1      44.928   2.015   9.296  0.00  0.00    +0.000 A 
ATOM     24  C   UNL     1      45.904   1.586   8.389  0.00  0.00    +0.000 A 
BRANCH  19  26
ATOM     25  N   UNL     1      48.356   1.738   5.877  0.00  0.00    +0.000 NA
ATOM     26  C   UNL     1      47.551   2.087   6.637  0.00  0.00    +0.000 C 
ENDBRANCH  19  26
ENDBRANCH  17  22
ENDBRANCH  16  17
ENDBRANCH   1  16
TORSDOF 7
ENDMDL
MODEL 2
REMARK VINA RESULT:    -7.663      1.517      1.922
REMARK INTER + INTRA:         -11.838
REMARK INTER:                 -10.899
REMARK INTRA:                  -0.938
REMARK UNBOUND:                -1.039
REMARK  Name = 
REMARK  7 active torsions:
REMARK  status: ('A' for Active; 'I' for Inactive)
REMARK    1  A    between atoms: C_2  and  C_3
REMARK    2  A    between atoms: C_6  and  N_7
REMARK    3  A    between atoms: N_7  and  C_8
REMARK    4  A    between atoms: C_8  and  C_9
REMARK    5  A    between atoms: C_9  and  C_12
REMARK    6  A    between atoms: C_16  and  O_17
REMARK    7  A    between atoms: O_17  and  C_18
REMARK                            x       y       z     vdW  Elec       q    Type
REMARK                         _______ _______ _______ _____ _____    ______ ____
ROOT
ATOM      1  C   UNL     1      44.534   5.055  12.408  0.00  0.00    +0.000 C 
ATOM      2  F   UNL     1      43.655   5.605  13.299  0.00  0.00    +0.000 F 
ATOM      3  F   UNL     1      44.530   3.714  12.691  0.00  0.00    +0.000 F 
ENDROOT
BRANCH   1   4
ATOM      4  C   UNL     1      45.917   5.661  12.543  0.00  0.00    +0.000 A 
ATOM      5  C   UNL     1      46.427   6.513  11.555  0.00  0.00    +0.000 A 
ATOM      6  C   UNL     1      47.688   7.096  11.705  0.00  0.00    +0.000 A 
ATOM      7  C   UNL     1      48.460   6.832  12.839  0.00  0.00    +0.000 A 
ATOM      8  C   UNL     1      47.971   5.971  13.819  0.00  0.00    +0.000 A 
ATOM      9  C   UNL     1      46.709   5.392  13.671  0.00  0.00    +0.000 A 
BRANCH   8  10
ATOM     10  O   UNL     1      48.613   5.660  14.990  0.00  0.00    +0.000 OA
BRANCH  10  11
ATOM     11  C   UNL     1      48.840   6.690  15.978  0.00  0.00    +0.000 C 
ATOM     12  C   UNL     1      50.300   7.059  16.317  0.00  0.00    +0.000 C 
ATOM     13  N   UNL     1      49.995   6.955  17.757  0.00  0.00    +0.000 NA
ATOM     14  C   UNL     1      48.774   6.193  17.440  0.00  0.00    +0.000 C 
ATOM     15  H   UNL     1      49.812   7.850  18.210  0.00  0.00    +0.000 HD
ENDBRANCH  10  11
ENDBRANCH   8  10
ENDBRANCH   1   4
BRANCH   1  16
ATOM     16  C   UNL     1      43.972   5.237  10.974  0.00  0.00    +0.000 C 
BRANCH  16  17
ATOM     17  N   UNL     1      43.702   3.954  10.297  0.00  0.00    +0.000 N 
ATOM     18  H   UNL     1      43.248   3.258  10.890  0.00  0.00    +0.000 HD
BRANCH  17  22
ATOM     19  C   UNL     1      46.563   2.474   7.574  0.00  0.00    +0.000 A 
ATOM     20  C   UNL     1      45.860   1.582   8.390  0.00  0.00    +0.000 A 
ATOM     21  C   UNL     1      44.891   2.057   9.281  0.00  0.00    +0.000 A 
ATOM     22  C   UNL     1      44.581   3.420   9.360  0.00  0.00    +0.000 A 
ATOM     23  C   UNL     1      45.305   4.299   8.545  0.00  0.00    +0.000 A 
ATOM     24  C   UNL     1      46.284   3.837   7.658  0.00  0.00    +0.000 A 
BRANCH  19  26
ATOM     25  N   UNL     1      48.392   1.595   5.959  0.00  0.00    +0.000 NA
ATOM     26  C   UNL     1      47.571   1.987   6.681  0.00  0.00    +0.000 C 
ENDBRANCH  19  26
ENDBRANCH  17  22
ENDBRANCH  16  17
ENDBRANCH   1  16
TORSDOF 7
ENDMDL
MODEL 3
REMARK VINA RESULT:    -7.583      2.629      4.181
REMARK INTER + INTRA:         -11.725
REMARK INTER:                 -10.900
REMARK INTRA:                  -0.824
REMARK UNBOUND:                -1.039
REMARK  Name = 
REMARK  7 active torsions:
REMARK  status: ('A' for Active; 'I' for Inactive)
REMARK    1  A    between atoms: C_2  and  C_3
REMARK    2  A    between atoms: C_6  and  N_7
REMARK    3  A    between atoms: N_7  and  C_8
REMARK    4  A    between atoms: C_8  and  C_9
REMARK    5  A    between atoms: C_9  and  C_12
REMARK    6  A    between atoms: C_16  and  O_17
REMARK    7  A    between atoms: O_17  and  C_18
REMARK                            x       y       z     vdW  Elec       q    Type
REMARK                         _______ _______ _______ _____ _____    ______ ____
ROOT
ATOM      1  C   UNL     1      43.429   4.585  12.635  0.00  0.00    +0.000 C 
ATOM      2  F   UNL     1      42.411   5.415  12.259  0.00  0.00    +0.000 F 
ATOM      3  F   UNL     1      42.996   4.000  13.797  0.00  0.00    +0.000 F 
ENDROOT
BRANCH   1   4
ATOM      4  C   UNL     1      44.726   5.345  12.831  0.00  0.00    +0.000 A 
ATOM      5  C   UNL     1      45.945   4.664  12.951  0.00  0.00    +0.000 A 
ATOM      6  C   UNL     1      47.140   5.374  13.094  0.00  0.00    +0.000 A 
ATOM      7  C   UNL     1      47.135   6.771  13.125  0.00  0.00    +0.000 A 
ATOM      8  C   UNL     1      45.927   7.457  13.025  0.00  0.00    +0.000 A 
ATOM      9  C   UNL     1      44.733   6.747  12.878  0.00  0.00    +0.000 A 
BRANCH   8  10
ATOM     10  O   UNL     1      45.791   8.821  13.007  0.00  0.00    +0.000 OA
BRANCH  10  11
ATOM     11  C   UNL     1      45.480   9.494  11.766  0.00  0.00    +0.000 C 
ATOM     12  C   UNL     1      46.148  10.859  11.495  0.00  0.00    +0.000 C 
ATOM     13  N   UNL     1      44.838  11.430  11.128  0.00  0.00    +0.000 NA
ATOM     14  C   UNL     1      44.162  10.302  11.794  0.00  0.00    +0.000 C 
ATOM     15  H   UNL     1      44.668  11.473  10.123  0.00  0.00    +0.000 HD
ENDBRANCH  10  11
ENDBRANCH   8  10
ENDBRANCH   1   4
BRANCH   1  16
ATOM     16  C   UNL     1      43.581   3.466  11.571  0.00  0.00    +0.000 C 
BRANCH  16  17
ATOM     17  N   UNL     1      43.701   3.994  10.198  0.00  0.00    +0.000 N 
ATOM     18  H   UNL     1      42.817   4.307   9.794  0.00  0.00    +0.000 HD
BRANCH  17  22
ATOM     19  C   UNL     1      46.581   2.480   7.515  0.00  0.00    +0.000 A 
ATOM     20  C   UNL     1      45.902   1.603   8.366  0.00  0.00    +0.000 A 
ATOM     21  C   UNL     1      44.927   2.088   9.244  0.00  0.00    +0.000 A 
ATOM     22  C   UNL     1      44.587   3.446   9.277  0.00  0.00    +0.000 A 
ATOM     23  C   UNL     1      45.288   4.310   8.427  0.00  0.00    +0.000 A 
ATOM     24  C   UNL     1      46.273   3.838   7.551  0.00  0.00    +0.000 A 
BRANCH  19  26
ATOM     25  N   UNL     1      48.414   1.581   5.915  0.00  0.00    +0.000 NA
ATOM     26  C   UNL     1      47.596   1.983   6.634  0.00  0.00    +0.000 C 
ENDBRANCH  19  26
ENDBRANCH  17  22
ENDBRANCH  16  17
ENDBRANCH   1  16
TORSDOF 7
ENDMDL
MODEL 4
REMARK VINA RESULT:    -7.355      2.465      3.761
REMARK INTER + INTRA:         -11.404
REMARK INTER:                 -10.506
REMARK INTRA:                  -0.899
REMARK UNBOUND:                -1.039
REMARK  Name = 
REMARK  7 active torsions:
REMARK  status: ('A' for Active; 'I' for Inactive)
REMARK    1  A    between atoms: C_2  and  C_3
REMARK    2  A    between atoms: C_6  and  N_7
REMARK    3  A    between atoms: N_7  and  C_8
REMARK    4  A    between atoms: C_8  and  C_9
REMARK    5  A    between atoms: C_9  and  C_12
REMARK    6  A    between atoms: C_16  and  O_17
REMARK    7  A    between atoms: O_17  and  C_18
REMARK                            x       y       z     vdW  Elec       q    Type
REMARK                         _______ _______ _______ _____ _____    ______ ____
ROOT
ATOM      1  C   UNL     1      43.646   5.384  12.185  0.00  0.00    +0.000 C 
ATOM      2  F   UNL     1      43.214   6.344  11.313  0.00  0.00    +0.000 F 
ATOM      3  F   UNL     1      42.788   5.463  13.250  0.00  0.00    +0.000 F 
ENDROOT
BRANCH   1   4
ATOM      4  C   UNL     1      45.087   5.614  12.597  0.00  0.00    +0.000 A 
ATOM      5  C   UNL     1      45.698   4.795  13.556  0.00  0.00    +0.000 A 
ATOM      6  C   UNL     1      47.037   4.990  13.903  0.00  0.00    +0.000 A 
ATOM      7  C   UNL     1      47.783   6.008  13.303  0.00  0.00    +0.000 A 
ATOM      8  C   UNL     1      47.181   6.839  12.362  0.00  0.00    +0.000 A 
ATOM      9  C   UNL     1      45.843   6.641  12.012  0.00  0.00    +0.000 A 
BRANCH   8  10
ATOM     10  O   UNL     1      47.811   7.847  11.679  0.00  0.00    +0.000 OA
BRANCH  10  11
ATOM     11  C   UNL     1      48.047   9.116  12.331  0.00  0.00    +0.000 C 
ATOM     12  C   UNL     1      47.289  10.352  11.803  0.00  0.00    +0.000 C 
ATOM     13  N   UNL     1      48.550  11.116  11.773  0.00  0.00    +0.000 NA
ATOM     14  C   UNL     1      49.312   9.857  11.841  0.00  0.00    +0.000 C 
ATOM     15  H   UNL     1      48.690  11.722  12.581  0.00  0.00    +0.000 HD
ENDBRANCH  10  11
ENDBRANCH   8  10
ENDBRANCH   1   4
BRANCH   1  16
ATOM     16  C   UNL     1      43.458   3.991  11.529  0.00  0.00    +0.000 C 
BRANCH  16  17
ATOM     17  N   UNL     1      43.455   4.048  10.054  0.00  0.00    +0.000 N 
ATOM     18  H   UNL     1      42.541   3.878   9.632  0.00  0.00    +0.000 HD
BRANCH  17  22
ATOM     19  C   UNL     1      46.530   2.476   7.632  0.00  0.00    +0.000 A 
ATOM     20  C   UNL     1      46.289   3.853   7.635  0.00  0.00    +0.000 A 
ATOM     21  C   UNL     1      45.288   4.391   8.452  0.00  0.00    +0.000 A 
ATOM     22  C   UNL     1      44.526   3.579   9.301  0.00  0.00    +0.000 A 
ATOM     23  C   UNL     1      44.773   2.201   9.273  0.00  0.00    +0.000 A 
ATOM     24  C   UNL     1      45.765   1.650   8.453  0.00  0.00    +0.000 A 
BRANCH  19  26
ATOM     25  N   UNL     1      48.359   1.485   6.083  0.00  0.00    +0.000 NA
ATOM     26  C   UNL     1      47.539   1.926   6.777  0.00  0.00    +0.000 C 
ENDBRANCH  19  26
ENDBRANCH  17  22
ENDBRANCH  16  17
ENDBRANCH   1  16
TORSDOF 7
ENDMDL
MODEL 5
REMARK VINA RESULT:    -7.076      2.787      3.216
REMARK INTER + INTRA:         -11.011
REMARK INTER:                 -10.297
REMARK INTRA:                  -0.714
REMARK UNBOUND:                -1.039
REMARK  Name = 
REMARK  7 active torsions:
REMARK  status: ('A' for Active; 'I' for Inactive)
REMARK    1  A    between atoms: C_2  and  C_3
REMARK    2  A    between atoms: C_6  and  N_7
REMARK    3  A    between atoms: N_7  and  C_8
REMARK    4  A    between atoms: C_8  and  C_9
REMARK    5  A    between atoms: C_9  and  C_12
REMARK    6  A    between atoms: C_16  and  O_17
REMARK    7  A    between atoms: O_17  and  C_18
REMARK                            x       y       z     vdW  Elec       q    Type
REMARK                         _______ _______ _______ _____ _____    ______ ____
ROOT
ATOM      1  C   UNL     1      44.187   5.545  12.155  0.00  0.00    +0.000 C 
ATOM      2  F   UNL     1      43.234   5.411  13.125  0.00  0.00    +0.000 F 
ATOM      3  F   UNL     1      45.120   4.584  12.441  0.00  0.00    +0.000 F 
ENDROOT
BRANCH   1   4
ATOM      4  C   UNL     1      44.788   6.938  12.154  0.00  0.00    +0.000 A 
ATOM      5  C   UNL     1      44.220   7.963  11.385  0.00  0.00    +0.000 A 
ATOM      6  C   UNL     1      44.758   9.252  11.418  0.00  0.00    +0.000 A 
ATOM      7  C   UNL     1      45.873   9.534  12.212  0.00  0.00    +0.000 A 
ATOM      8  C   UNL     1      46.456   8.519  12.966  0.00  0.00    +0.000 A 
ATOM      9  C   UNL     1      45.916   7.231  12.936  0.00  0.00    +0.000 A 
BRANCH   8  10
ATOM     10  O   UNL     1      47.526   8.674  13.809  0.00  0.00    +0.000 OA
BRANCH  10  11
ATOM     11  C   UNL     1      48.867   8.683  13.269  0.00  0.00    +0.000 C 
ATOM     12  C   UNL     1      49.074   8.150  11.836  0.00  0.00    +0.000 C 
ATOM     13  N   UNL     1      50.199   7.318  12.305  0.00  0.00    +0.000 NA
ATOM     14  C   UNL     1      49.732   7.474  13.694  0.00  0.00    +0.000 C 
ATOM     15  H   UNL     1      51.118   7.726  12.134  0.00  0.00    +0.000 HD
ENDBRANCH  10  11
ENDBRANCH   8  10
ENDBRANCH   1   4
BRANCH   1  16
ATOM     16  C   UNL     1      43.556   5.198  10.781  0.00  0.00    +0.000 C 
BRANCH  16  17
ATOM     17  N   UNL     1      43.778   3.793  10.388  0.00  0.00    +0.000 N 
ATOM     18  H   UNL     1      43.627   3.121  11.142  0.00  0.00    +0.000 HD
BRANCH  17  22
ATOM     19  C   UNL     1      46.631   2.550   7.542  0.00  0.00    +0.000 A 
ATOM     20  C   UNL     1      46.343   3.910   7.682  0.00  0.00    +0.000 A 
ATOM     21  C   UNL     1      45.416   4.340   8.638  0.00  0.00    +0.000 A 
ATOM     22  C   UNL     1      44.778   3.432   9.492  0.00  0.00    +0.000 A 
ATOM     23  C   UNL     1      45.070   2.072   9.328  0.00  0.00    +0.000 A 
ATOM     24  C   UNL     1      45.988   1.630   8.368  0.00  0.00    +0.000 A 
BRANCH  19  26
ATOM     25  N   UNL     1      48.315   1.751   5.739  0.00  0.00    +0.000 NA
ATOM     26  C   UNL     1      47.563   2.112   6.546  0.00  0.00    +0.000 C 
ENDBRANCH  19  26
ENDBRANCH  17  22
ENDBRANCH  16  17
ENDBRANCH   1  16
TORSDOF 7
ENDMDL
MODEL 6
REMARK VINA RESULT:    -6.662      1.538      2.145
REMARK INTER + INTRA:         -10.427
REMARK INTER:                  -9.699
REMARK INTRA:                  -0.728
REMARK UNBOUND:                -1.039
REMARK  Name = 
REMARK  7 active torsions:
REMARK  status: ('A' for Active; 'I' for Inactive)
REMARK    1  A    between atoms: C_2  and  C_3
REMARK    2  A    between atoms: C_6  and  N_7
REMARK    3  A    between atoms: N_7  and  C_8
REMARK    4  A    between atoms: C_8  and  C_9
REMARK    5  A    between atoms: C_9  and  C_12
REMARK    6  A    between atoms: C_16  and  O_17
REMARK    7  A    between atoms: O_17  and  C_18
REMARK                            x       y       z     vdW  Elec       q    Type
REMARK                         _______ _______ _______ _____ _____    ______ ____
ROOT
ATOM      1  C   UNL     1      45.406   7.026  11.881  0.00  0.00    +0.000 C 
ATOM      2  F   UNL     1      45.904   7.236  10.626  0.00  0.00    +0.000 F 
ATOM      3  F   UNL     1      44.531   8.059  12.091  0.00  0.00    +0.000 F 
ENDROOT
BRANCH   1   4
ATOM      4  C   UNL     1      46.510   6.995  12.921  0.00  0.00    +0.000 A 
ATOM      5  C   UNL     1      47.205   8.163  13.263  0.00  0.00    +0.000 A 
ATOM      6  C   UNL     1      48.195   8.132  14.249  0.00  0.00    +0.000 A 
ATOM      7  C   UNL     1      48.509   6.937  14.901  0.00  0.00    +0.000 A 
ATOM      8  C   UNL     1      47.837   5.767  14.555  0.00  0.00    +0.000 A 
ATOM      9  C   UNL     1      46.844   5.799  13.572  0.00  0.00    +0.000 A 
BRANCH   8  10
ATOM     10  O   UNL     1      48.027   4.543  15.141  0.00  0.00    +0.000 OA
BRANCH  10  11
ATOM     11  C   UNL     1      47.135   4.105  16.191  0.00  0.00    +0.000 C 
ATOM     12  C   UNL     1      47.167   4.867  17.533  0.00  0.00    +0.000 C 
ATOM     13  N   UNL     1      47.254   3.586  18.261  0.00  0.00    +0.000 NA
ATOM     14  C   UNL     1      47.663   2.910  17.017  0.00  0.00    +0.000 C 
ATOM     15  H   UNL     1      46.363   3.257  18.632  0.00  0.00    +0.000 HD
ENDBRANCH  10  11
ENDBRANCH   8  10
ENDBRANCH   1   4
BRANCH   1  16
ATOM     16  C   UNL     1      44.590   5.707  11.880  0.00  0.00    +0.000 C 
BRANCH  16  17
ATOM     17  N   UNL     1      44.034   5.378  10.554  0.00  0.00    +0.000 N 
ATOM     18  H   UNL     1      43.015   5.440  10.502  0.00  0.00    +0.000 HD
BRANCH  17  22
ATOM     19  C   UNL     1      45.949   2.440   8.210  0.00  0.00    +0.000 A 
ATOM     20  C   UNL     1      45.045   2.051   9.203  0.00  0.00    +0.000 A 
ATOM     21  C   UNL     1      44.384   3.015   9.972  0.00  0.00    +0.000 A 
ATOM     22  C   UNL     1      44.585   4.383   9.754  0.00  0.00    +0.000 A 
ATOM     23  C   UNL     1      45.505   4.754   8.764  0.00  0.00    +0.000 A 
ATOM     24  C   UNL     1      46.179   3.798   7.995  0.00  0.00    +0.000 A 
BRANCH  19  26
ATOM     25  N   UNL     1      47.197   0.645   6.817  0.00  0.00    +0.000 NA
ATOM     26  C   UNL     1      46.641   1.450   7.441  0.00  0.00    +0.000 C 
ENDBRANCH  19  26
ENDBRANCH  17  22
ENDBRANCH  16  17
ENDBRANCH   1  16
TORSDOF 7
ENDMDL
MODEL 7
REMARK VINA RESULT:    -6.280      2.841      7.848
REMARK INTER + INTRA:          -9.890
REMARK INTER:                  -9.480
REMARK INTRA:                  -0.410
REMARK UNBOUND:                -1.039
REMARK  Name = 
REMARK  7 active torsions:
REMARK  status: ('A' for Active; 'I' for Inactive)
REMARK    1  A    between atoms: C_2  and  C_3
REMARK    2  A    between atoms: C_6  and  N_7
REMARK    3  A    between atoms: N_7  and  C_8
REMARK    4  A    between atoms: C_8  and  C_9
REMARK    5  A    between atoms: C_9  and  C_12
REMARK    6  A    between atoms: C_16  and  O_17
REMARK    7  A    between atoms: O_17  and  C_18
REMARK                            x       y       z     vdW  Elec       q    Type
REMARK                         _______ _______ _______ _____ _____    ______ ____
ROOT
ATOM      1  C   UNL     1      46.799   4.234  13.653  0.00  0.00    +0.000 C 
ATOM      2  F   UNL     1      47.729   5.013  13.023  0.00  0.00    +0.000 F 
ATOM      3  F   UNL     1      47.353   2.982  13.690  0.00  0.00    +0.000 F 
ENDROOT
BRANCH   1   4
ATOM      4  C   UNL     1      45.472   4.248  12.920  0.00  0.00    +0.000 A 
ATOM      5  C   UNL     1      44.461   5.147  13.285  0.00  0.00    +0.000 A 
ATOM      6  C   UNL     1      43.254   5.178  12.580  0.00  0.00    +0.000 A 
ATOM      7  C   UNL     1      43.038   4.308  11.508  0.00  0.00    +0.000 A 
ATOM      8  C   UNL     1      44.029   3.398  11.149  0.00  0.00    +0.000 A 
ATOM      9  C   UNL     1      45.237   3.370  11.851  0.00  0.00    +0.000 A 
BRANCH   8  10
ATOM     10  O   UNL     1      43.954   2.520  10.098  0.00  0.00    +0.000 OA
BRANCH  10  11
ATOM     11  C   UNL     1      44.364   2.945   8.779  0.00  0.00    +0.000 C 
ATOM     12  C   UNL     1      45.769   2.534   8.291  0.00  0.00    +0.000 C 
ATOM     13  N   UNL     1      46.035   3.925   7.876  0.00  0.00    +0.000 NA
ATOM     14  C   UNL     1      44.918   4.387   8.719  0.00  0.00    +0.000 C 
ATOM     15  H   UNL     1      45.893   4.097   6.880  0.00  0.00    +0.000 HD
ENDBRANCH  10  11
ENDBRANCH   8  10
ENDBRANCH   1   4
BRANCH   1  16
ATOM     16  C   UNL     1      46.645   4.726  15.116  0.00  0.00    +0.000 C 
BRANCH  16  17
ATOM     17  N   UNL     1      46.939   3.674  16.108  0.00  0.00    +0.000 N 
ATOM     18  H   UNL     1      46.166   3.473  16.745  0.00  0.00    +0.000 HD
BRANCH  17  22
ATOM     19  C   UNL     1      50.850   3.184  17.609  0.00  0.00    +0.000 A 
ATOM     20  C   UNL     1      50.244   4.442  17.659  0.00  0.00    +0.000 A 
ATOM     21  C   UNL     1      48.938   4.615  17.187  0.00  0.00    +0.000 A 
ATOM     22  C   UNL     1      48.199   3.538  16.682  0.00  0.00    +0.000 A 
ATOM     23  C   UNL     1      48.828   2.288  16.627  0.00  0.00    +0.000 A 
ATOM     24  C   UNL     1      50.138   2.106  17.086  0.00  0.00    +0.000 A 
BRANCH  19  26
ATOM     25  N   UNL     1      53.288   2.883  18.441  0.00  0.00    +0.000 NA
ATOM     26  C   UNL     1      52.195   3.016  18.071  0.00  0.00    +0.000 C 
ENDBRANCH  19  26
ENDBRANCH  17  22
ENDBRANCH  16  17
ENDBRANCH   1  16
TORSDOF 7
ENDMDL
MODEL 8
REMARK VINA RESULT:    -5.979      2.823      4.206
REMARK INTER + INTRA:          -9.464
REMARK INTER:                  -8.547
REMARK INTRA:                  -0.917
REMARK UNBOUND:                -1.039
REMARK  Name = 
REMARK  7 active torsions:
REMARK  status: ('A' for Active; 'I' for Inactive)
REMARK    1  A    between atoms: C_2  and  C_3
REMARK    2  A    between atoms: C_6  and  N_7
REMARK    3  A    between atoms: N_7  and  C_8
REMARK    4  A    between atoms: C_8  and  C_9
REMARK    5  A    between atoms: C_9  and  C_12
REMARK    6  A    between atoms: C_16  and  O_17
REMARK    7  A    between atoms: O_17  and  C_18
REMARK                            x       y       z     vdW  Elec       q    Type
REMARK                         _______ _______ _______ _____ _____    ______ ____
ROOT
ATOM      1  C   UNL     1      47.956   8.105  12.830  0.00  0.00    +0.000 C 
ATOM      2  F   UNL     1      48.415   7.072  12.063  0.00  0.00    +0.000 F 
ATOM      3  F   UNL     1      48.506   9.230  12.273  0.00  0.00    +0.000 F 
ENDROOT
BRANCH   1   4
ATOM      4  C   UNL     1      48.351   7.939  14.284  0.00  0.00    +0.000 A 
ATOM      5  C   UNL     1      48.482   9.053  15.124  0.00  0.00    +0.000 A 
ATOM      6  C   UNL     1      48.810   8.888  16.472  0.00  0.00    +0.000 A 
ATOM      7  C   UNL     1      49.020   7.610  16.999  0.00  0.00    +0.000 A 
ATOM      8  C   UNL     1      48.911   6.497  16.168  0.00  0.00    +0.000 A 
ATOM      9  C   UNL     1      48.579   6.663  14.822  0.00  0.00    +0.000 A 
BRANCH   8  10
ATOM     10  O   UNL     1      49.058   5.194  16.569  0.00  0.00    +0.000 OA
BRANCH  10  11
ATOM     11  C   UNL     1      48.098   4.613  17.480  0.00  0.00    +0.000 C 
ATOM     12  C   UNL     1      48.370   3.187  18.006  0.00  0.00    +0.000 C 
ATOM     13  N   UNL     1      46.988   2.797  17.668  0.00  0.00    +0.000 NA
ATOM     14  C   UNL     1      46.872   3.973  16.789  0.00  0.00    +0.000 C 
ATOM     15  H   UNL     1      46.345   2.814  18.461  0.00  0.00    +0.000 HD
ENDBRANCH  10  11
ENDBRANCH   8  10
ENDBRANCH   1   4
BRANCH   1  16
ATOM     16  C   UNL     1      46.416   8.202  12.668  0.00  0.00    +0.000 C 
BRANCH  16  17
ATOM     17  N   UNL     1      45.709   7.021  13.198  0.00  0.00    +0.000 N 
ATOM     18  H   UNL     1      45.970   6.772  14.153  0.00  0.00    +0.000 HD
BRANCH  17  22
ATOM     19  C   UNL     1      44.991   3.751  10.631  0.00  0.00    +0.000 A 
ATOM     20  C   UNL     1      45.021   3.550  12.014  0.00  0.00    +0.000 A 
ATOM     21  C   UNL     1      45.235   4.629  12.879  0.00  0.00    +0.000 A 
ATOM     22  C   UNL     1      45.394   5.932  12.391  0.00  0.00    +0.000 A 
ATOM     23  C   UNL     1      45.374   6.112  11.002  0.00  0.00    +0.000 A 
ATOM     24  C   UNL     1      45.171   5.038  10.127  0.00  0.00    +0.000 A 
BRANCH  19  26
ATOM     25  N   UNL     1      44.634   1.744   9.029  0.00  0.00    +0.000 NA
ATOM     26  C   UNL     1      44.796   2.641   9.748  0.00  0.00    +0.000 C 
ENDBRANCH  19  26
ENDBRANCH  17  22
ENDBRANCH  16  17
ENDBRANCH   1  16
TORSDOF 7
ENDMDL
MODEL 9
REMARK VINA RESULT:    -5.973      3.265      6.820
REMARK INTER + INTRA:          -9.456
REMARK INTER:                  -8.750
REMARK INTRA:                  -0.706
REMARK UNBOUND:                -1.039
REMARK  Name = 
REMARK  7 active torsions:
REMARK  status: ('A' for Active; 'I' for Inactive)
REMARK    1  A    between atoms: C_2  and  C_3
REMARK    2  A    between atoms: C_6  and  N_7
REMARK    3  A    between atoms: N_7  and  C_8
REMARK    4  A    between atoms: C_8  and  C_9
REMARK    5  A    between atoms: C_9  and  C_12
REMARK    6  A    between atoms: C_16  and  O_17
REMARK    7  A    between atoms: O_17  and  C_18
REMARK                            x       y       z     vdW  Elec       q    Type
REMARK                         _______ _______ _______ _____ _____    ______ ____
ROOT
ATOM      1  C   UNL     1      46.622   4.446  13.914  0.00  0.00    +0.000 C 
ATOM      2  F   UNL     1      47.546   3.478  13.638  0.00  0.00    +0.000 F 
ATOM      3  F   UNL     1      46.375   4.326  15.257  0.00  0.00    +0.000 F 
ENDROOT
BRANCH   1   4
ATOM      4  C   UNL     1      45.363   4.269  13.087  0.00  0.00    +0.000 A 
ATOM      5  C   UNL     1      44.183   4.944  13.423  0.00  0.00    +0.000 A 
ATOM      6  C   UNL     1      43.038   4.804  12.634  0.00  0.00    +0.000 A 
ATOM      7  C   UNL     1      43.054   3.983  11.503  0.00  0.00    +0.000 A 
ATOM      8  C   UNL     1      44.217   3.293  11.170  0.00  0.00    +0.000 A 
ATOM      9  C   UNL     1      45.362   3.436  11.957  0.00  0.00    +0.000 A 
BRANCH   8  10
ATOM     10  O   UNL     1      44.371   2.487  10.071  0.00  0.00    +0.000 OA
BRANCH  10  11
ATOM     11  C   UNL     1      44.572   3.083   8.770  0.00  0.00    +0.000 C 
ATOM     12  C   UNL     1      45.820   2.662   7.966  0.00  0.00    +0.000 C 
ATOM     13  N   UNL     1      46.134   4.080   7.705  0.00  0.00    +0.000 NA
ATOM     14  C   UNL     1      45.237   4.478   8.804  0.00  0.00    +0.000 C 
ATOM     15  H   UNL     1      45.830   4.412   6.789  0.00  0.00    +0.000 HD
ENDBRANCH  10  11
ENDBRANCH   8  10
ENDBRANCH   1   4
BRANCH   1  16
ATOM     16  C   UNL     1      47.267   5.836  13.674  0.00  0.00    +0.000 C 
BRANCH  16  17
ATOM     17  N   UNL     1      47.060   6.335  12.301  0.00  0.00    +0.000 N 
ATOM     18  H   UNL     1      47.882   6.255  11.700  0.00  0.00    +0.000 HD
BRANCH  17  22
ATOM     19  C   UNL     1      44.447   9.570  11.598  0.00  0.00    +0.000 A 
ATOM     20  C   UNL     1      45.541   9.739  12.450  0.00  0.00    +0.000 A 
ATOM     21  C   UNL     1      46.431   8.682  12.674  0.00  0.00    +0.000 A 
ATOM     22  C   UNL     1      46.267   7.446  12.037  0.00  0.00    +0.000 A 
ATOM     23  C   UNL     1      45.156   7.292  11.198  0.00  0.00    +0.000 A 
ATOM     24  C   UNL     1      44.255   8.338  10.974  0.00  0.00    +0.000 A 
BRANCH  19  26
ATOM     25  N   UNL     1      42.774  11.516  11.224  0.00  0.00    +0.000 NA
ATOM     26  C   UNL     1      43.525  10.646  11.390  0.00  0.00    +0.000 C 
ENDBRANCH  19  26
ENDBRANCH  17  22
ENDBRANCH  16  17
ENDBRANCH   1  16
TORSDOF 7
ENDMDL
