MODEL 1
REMARK VINA RESULT:    -7.610      0.000      0.000
REMARK INTER + INTRA:         -10.159
REMARK INTER:                  -9.612
REMARK INTRA:                  -0.547
REMARK UNBOUND:                -0.547
REMARK  Name = 
REMARK  5 active torsions:
REMARK  status: ('A' for Active; 'I' for Inactive)
REMARK    1  A    between atoms: N_1  and  C_2
REMARK    2  A    between atoms: C_2  and  C_3
REMARK    3  A    between atoms: C_3  and  C_4
REMARK    4  A    between atoms: C_7  and  C_8
REMARK    5  A    between atoms: C_8  and  N_9
REMARK                            x       y       z     vdW  Elec       q    Type
REMARK                         _______ _______ _______ _____ _____    ______ ____
ROOT
ATOM      1  C   UNL     1      46.102   2.220   7.862  0.00  0.00    +0.000 A 
ATOM      2  C   UNL     1      45.260   1.641   8.818  0.00  0.00    +0.000 A 
ATOM      3  C   UNL     1      44.483   2.441   9.660  0.00  0.00    +0.000 A 
ATOM      4  C   UNL     1      44.524   3.839   9.557  0.00  0.00    +0.000 A 
ATOM      5  C   UNL     1      45.346   4.415   8.577  0.00  0.00    +0.000 A 
ATOM      6  C   UNL     1      46.121   3.613   7.735  0.00  0.00    +0.000 A 
ENDROOT
BRANCH   1   7
ATOM      7  C   UNL     1      46.998   1.357   7.005  0.00  0.00    +0.000 C 
BRANCH   7   8
ATOM      8  C   UNL     1      48.292   2.063   6.586  0.00  0.00    +0.000 C 
BRANCH   8   9
ATOM      9  N   UNL     1      48.351   2.215   5.132  0.00  0.00    +0.000 NA
ATOM     10  H   UNL     1      49.066   2.900   4.891  0.00  0.00    +0.000 HD
ATOM     11  H   UNL     1      47.467   2.595   4.790  0.00  0.00    +0.000 HD
ENDBRANCH   8   9
ENDBRANCH   7   8
ENDBRANCH   1   7
BRANCH   4  12
ATOM     12  C   UNL     1      43.714   4.706  10.487  0.00  0.00    +0.000 C 
BRANCH  12  13
ATOM     13  N   UNL     1      44.551   5.540  11.346  0.00  0.00    +0.000 N 
ATOM     14  C   UNL     1      44.472   6.915  11.395  0.00  0.00    +0.000 A 
ATOM     15  C   UNL     1      45.319   7.356  12.391  0.00  0.00    +0.000 A 
ATOM     16  C   UNL     1      45.920   6.215  12.969  0.00  0.00    +0.000 A 
ATOM     17  N   UNL     1      46.803   6.158  13.995  0.00  0.00    +0.000 NA
ATOM     18  C   UNL     1      47.197   4.915  14.334  0.00  0.00    +0.000 A 
ATOM     19  C   UNL     1      46.777   3.742  13.724  0.00  0.00    +0.000 A 
ATOM     20  C   UNL     1      45.867   3.809  12.670  0.00  0.00    +0.000 A 
ATOM     21  C   UNL     1      45.437   5.088  12.302  0.00  0.00    +0.000 A 
ENDBRANCH  12  13
ENDBRANCH   4  12
TORSDOF 5
ENDMDL
MODEL 2
REMARK VINA RESULT:    -7.575      1.424      2.074
REMARK INTER + INTRA:         -10.114
REMARK INTER:                  -9.504
REMARK INTRA:                  -0.611
REMARK UNBOUND:                -0.547
REMARK  Name = 
REMARK  5 active torsions:
REMARK  status: ('A' for Active; 'I' for Inactive)
REMARK    1  A    between atoms: N_1  and  C_2
REMARK    2  A    between atoms: C_2  and  C_3
REMARK    3  A    between atoms: C_3  and  C_4
REMARK    4  A    between atoms: C_7  and  C_8
REMARK    5  A    between atoms: C_8  and  N_9
REMARK                            x       y       z     vdW  Elec       q    Type
REMARK                         _______ _______ _______ _____ _____    ______ ____
ROOT
ATOM      1  C   UNL     1      45.939   2.653   7.980  0.00  0.00    +0.000 A 
ATOM      2  C   UNL     1      45.251   2.139   9.085  0.00  0.00    +0.000 A 
ATOM      3  C   UNL     1      44.800   2.986  10.100  0.00  0.00    +0.000 A 
ATOM      4  C   UNL     1      45.019   4.369  10.028  0.00  0.00    +0.000 A 
ATOM      5  C   UNL     1      45.682   4.885   8.905  0.00  0.00    +0.000 A 
ATOM      6  C   UNL     1      46.131   4.036   7.889  0.00  0.00    +0.000 A 
ENDROOT
BRANCH   1   7
ATOM      7  C   UNL     1      46.492   1.729   6.921  0.00  0.00    +0.000 C 
BRANCH   7   8
ATOM      8  C   UNL     1      47.284   2.464   5.835  0.00  0.00    +0.000 C 
BRANCH   8   9
ATOM      9  N   UNL     1      48.594   1.842   5.639  0.00  0.00    +0.000 NA
ATOM     10  H   UNL     1      48.830   1.283   6.458  0.00  0.00    +0.000 HD
ATOM     11  H   UNL     1      49.311   2.565   5.573  0.00  0.00    +0.000 HD
ENDBRANCH   8   9
ENDBRANCH   7   8
ENDBRANCH   1   7
BRANCH   4  12
ATOM     12  C   UNL     1      44.565   5.282  11.139  0.00  0.00    +0.000 C 
BRANCH  12  13
ATOM     13  N   UNL     1      45.496   5.299  12.265  0.00  0.00    +0.000 N 
ATOM     14  C   UNL     1      45.386   4.477  13.366  0.00  0.00    +0.000 A 
ATOM     15  C   UNL     1      46.493   4.682  14.163  0.00  0.00    +0.000 A 
ATOM     16  C   UNL     1      47.301   5.647  13.523  0.00  0.00    +0.000 A 
ATOM     17  N   UNL     1      48.496   6.145  13.924  0.00  0.00    +0.000 NA
ATOM     18  C   UNL     1      49.039   7.056  13.092  0.00  0.00    +0.000 A 
ATOM     19  C   UNL     1      48.474   7.500  11.905  0.00  0.00    +0.000 A 
ATOM     20  C   UNL     1      47.245   6.982  11.499  0.00  0.00    +0.000 A 
ATOM     21  C   UNL     1      46.663   6.029  12.341  0.00  0.00    +0.000 A 
ENDBRANCH  12  13
ENDBRANCH   4  12
TORSDOF 5
ENDMDL
MODEL 3
REMARK VINA RESULT:    -7.249      0.955      2.301
REMARK INTER + INTRA:          -9.703
REMARK INTER:                  -9.132
REMARK INTRA:                  -0.571
REMARK UNBOUND:                -0.547
REMARK  Name = 
REMARK  5 active torsions:
REMARK  status: ('A' for Active; 'I' for Inactive)
REMARK    1  A    between atoms: N_1  and  C_2
REMARK    2  A    between atoms: C_2  and  C_3
REMARK    3  A    between atoms: C_3  and  C_4
REMARK    4  A    between atoms: C_7  and  C_8
REMARK    5  A    between atoms: C_8  and  N_9
REMARK                            x       y       z     vdW  Elec       q    Type
REMARK                         _______ _______ _______ _____ _____    ______ ____
ROOT
ATOM      1  C   UNL     1      45.939   2.440   7.936  0.00  0.00    +0.000 A 
ATOM      2  C   UNL     1      45.161   1.786   8.898  0.00  0.00    +0.000 A 
ATOM      3  C   UNL     1      44.458   2.516   9.861  0.00  0.00    +0.000 A 
ATOM      4  C   UNL     1      44.513   3.917   9.877  0.00  0.00    +0.000 A 
ATOM      5  C   UNL     1      45.270   4.570   8.893  0.00  0.00    +0.000 A 
ATOM      6  C   UNL     1      45.970   3.839   7.929  0.00  0.00    +0.000 A 
ENDROOT
BRANCH   1   7
ATOM      7  C   UNL     1      46.757   1.648   6.943  0.00  0.00    +0.000 C 
BRANCH   7   8
ATOM      8  C   UNL     1      47.204   2.477   5.734  0.00  0.00    +0.000 C 
BRANCH   8   9
ATOM      9  N   UNL     1      48.593   2.176   5.385  0.00  0.00    +0.000 NA
ATOM     10  H   UNL     1      48.620   1.685   4.493  0.00  0.00    +0.000 HD
ATOM     11  H   UNL     1      48.989   1.535   6.074  0.00  0.00    +0.000 HD
ENDBRANCH   8   9
ENDBRANCH   7   8
ENDBRANCH   1   7
BRANCH   4  12
ATOM     12  C   UNL     1      43.785   4.706  10.937  0.00  0.00    +0.000 C 
BRANCH  12  13
ATOM     13  N   UNL     1      44.696   5.328  11.895  0.00  0.00    +0.000 N 
ATOM     14  C   UNL     1      45.519   4.620  12.745  0.00  0.00    +0.000 A 
ATOM     15  C   UNL     1      46.317   5.522  13.416  0.00  0.00    +0.000 A 
ATOM     16  C   UNL     1      45.977   6.813  12.952  0.00  0.00    +0.000 A 
ATOM     17  N   UNL     1      46.513   8.005  13.311  0.00  0.00    +0.000 NA
ATOM     18  C   UNL     1      45.984   9.075  12.684  0.00  0.00    +0.000 A 
ATOM     19  C   UNL     1      44.968   9.035  11.742  0.00  0.00    +0.000 A 
ATOM     20  C   UNL     1      44.422   7.805  11.377  0.00  0.00    +0.000 A 
ATOM     21  C   UNL     1      44.958   6.677  12.007  0.00  0.00    +0.000 A 
ENDBRANCH  12  13
ENDBRANCH   4  12
TORSDOF 5
ENDMDL
MODEL 4
REMARK VINA RESULT:    -5.964      2.519      5.853
REMARK INTER + INTRA:          -8.080
REMARK INTER:                  -7.484
REMARK INTRA:                  -0.595
REMARK UNBOUND:                -0.547
REMARK  Name = 
REMARK  5 active torsions:
REMARK  status: ('A' for Active; 'I' for Inactive)
REMARK    1  A    between atoms: N_1  and  C_2
REMARK    2  A    between atoms: C_2  and  C_3
REMARK    3  A    between atoms: C_3  and  C_4
REMARK    4  A    between atoms: C_7  and  C_8
REMARK    5  A    between atoms: C_8  and  N_9
REMARK                            x       y       z     vdW  Elec       q    Type
REMARK                         _______ _______ _______ _____ _____    ______ ____
ROOT
ATOM      1  C   UNL     1      48.417   7.385  12.959  0.00  0.00    +0.000 A 
ATOM      2  C   UNL     1      47.902   6.168  13.420  0.00  0.00    +0.000 A 
ATOM      3  C   UNL     1      46.581   5.804  13.145  0.00  0.00    +0.000 A 
ATOM      4  C   UNL     1      45.748   6.646  12.396  0.00  0.00    +0.000 A 
ATOM      5  C   UNL     1      46.276   7.851  11.910  0.00  0.00    +0.000 A 
ATOM      6  C   UNL     1      47.598   8.213  12.184  0.00  0.00    +0.000 A 
ENDROOT
BRANCH   1   7
ATOM      7  C   UNL     1      49.820   7.812  13.320  0.00  0.00    +0.000 C 
BRANCH   7   8
ATOM      8  C   UNL     1      50.600   8.383  12.132  0.00  0.00    +0.000 C 
BRANCH   8   9
ATOM      9  N   UNL     1      51.053   7.310  11.246  0.00  0.00    +0.000 NA
ATOM     10  H   UNL     1      50.995   6.418  11.736  0.00  0.00    +0.000 HD
ATOM     11  H   UNL     1      52.039   7.445  11.019  0.00  0.00    +0.000 HD
ENDBRANCH   8   9
ENDBRANCH   7   8
ENDBRANCH   1   7
BRANCH   4  12
ATOM     12  C   UNL     1      44.312   6.272  12.129  0.00  0.00    +0.000 C 
BRANCH  12  13
ATOM     13  N   UNL     1      44.164   4.880  11.713  0.00  0.00    +0.000 N 
ATOM     14  C   UNL     1      43.461   3.934  12.428  0.00  0.00    +0.000 A 
ATOM     15  C   UNL     1      43.432   2.772  11.685  0.00  0.00    +0.000 A 
ATOM     16  C   UNL     1      44.127   3.024  10.481  0.00  0.00    +0.000 A 
ATOM     17  N   UNL     1      44.336   2.184   9.438  0.00  0.00    +0.000 NA
ATOM     18  C   UNL     1      45.033   2.715   8.414  0.00  0.00    +0.000 A 
ATOM     19  C   UNL     1      45.532   4.008   8.365  0.00  0.00    +0.000 A 
ATOM     20  C   UNL     1      45.312   4.866   9.440  0.00  0.00    +0.000 A 
ATOM     21  C   UNL     1      44.584   4.342  10.514  0.00  0.00    +0.000 A 
ENDBRANCH  12  13
ENDBRANCH   4  12
TORSDOF 5
ENDMDL
MODEL 5
REMARK VINA RESULT:    -5.870      2.124      6.653
REMARK INTER + INTRA:          -7.961
REMARK INTER:                  -7.561
REMARK INTRA:                  -0.401
REMARK UNBOUND:                -0.547
REMARK  Name = 
REMARK  5 active torsions:
REMARK  status: ('A' for Active; 'I' for Inactive)
REMARK    1  A    between atoms: N_1  and  C_2
REMARK    2  A    between atoms: C_2  and  C_3
REMARK    3  A    between atoms: C_3  and  C_4
REMARK    4  A    between atoms: C_7  and  C_8
REMARK    5  A    between atoms: C_8  and  N_9
REMARK                            x       y       z     vdW  Elec       q    Type
REMARK                         _______ _______ _______ _____ _____    ______ ____
ROOT
ATOM      1  C   UNL     1      47.529   7.891  13.399  0.00  0.00    +0.000 A 
ATOM      2  C   UNL     1      46.447   8.746  13.164  0.00  0.00    +0.000 A 
ATOM      3  C   UNL     1      45.303   8.284  12.507  0.00  0.00    +0.000 A 
ATOM      4  C   UNL     1      45.214   6.952  12.078  0.00  0.00    +0.000 A 
ATOM      5  C   UNL     1      46.287   6.089  12.342  0.00  0.00    +0.000 A 
ATOM      6  C   UNL     1      47.430   6.553  13.001  0.00  0.00    +0.000 A 
ENDROOT
BRANCH   1   7
ATOM      7  C   UNL     1      48.794   8.410  14.041  0.00  0.00    +0.000 C 
BRANCH   7   8
ATOM      8  C   UNL     1      48.562   9.000  15.436  0.00  0.00    +0.000 C 
BRANCH   8   9
ATOM      9  N   UNL     1      48.238   7.944  16.396  0.00  0.00    +0.000 NA
ATOM     10  H   UNL     1      47.915   8.364  17.267  0.00  0.00    +0.000 HD
ATOM     11  H   UNL     1      49.083   7.421  16.630  0.00  0.00    +0.000 HD
ENDBRANCH   8   9
ENDBRANCH   7   8
ENDBRANCH   1   7
BRANCH   4  12
ATOM     12  C   UNL     1      43.996   6.460  11.337  0.00  0.00    +0.000 C 
BRANCH  12  13
ATOM     13  N   UNL     1      44.008   5.013  11.140  0.00  0.00    +0.000 N 
ATOM     14  C   UNL     1      43.319   4.122  11.936  0.00  0.00    +0.000 A 
ATOM     15  C   UNL     1      43.463   2.864  11.391  0.00  0.00    +0.000 A 
ATOM     16  C   UNL     1      44.252   2.995  10.227  0.00  0.00    +0.000 A 
ATOM     17  N   UNL     1      44.635   2.030   9.356  0.00  0.00    +0.000 NA
ATOM     18  C   UNL     1      45.385   2.464   8.324  0.00  0.00    +0.000 A 
ATOM     19  C   UNL     1      45.776   3.777   8.108  0.00  0.00    +0.000 A 
ATOM     20  C   UNL     1      45.377   4.764   9.008  0.00  0.00    +0.000 A 
ATOM     21  C   UNL     1      44.591   4.342  10.086  0.00  0.00    +0.000 A 
ENDBRANCH  12  13
ENDBRANCH   4  12
TORSDOF 5
ENDMDL
MODEL 6
REMARK VINA RESULT:    -5.721      1.220      2.086
REMARK INTER + INTRA:          -7.773
REMARK INTER:                  -8.468
REMARK INTRA:                   0.695
REMARK UNBOUND:                -0.547
REMARK  Name = 
REMARK  5 active torsions:
REMARK  status: ('A' for Active; 'I' for Inactive)
REMARK    1  A    between atoms: N_1  and  C_2
REMARK    2  A    between atoms: C_2  and  C_3
REMARK    3  A    between atoms: C_3  and  C_4
REMARK    4  A    between atoms: C_7  and  C_8
REMARK    5  A    between atoms: C_8  and  N_9
REMARK                            x       y       z     vdW  Elec       q    Type
REMARK                         _______ _______ _______ _____ _____    ______ ____
ROOT
ATOM      1  C   UNL     1      46.829   2.392   7.488  0.00  0.00    +0.000 A 
ATOM      2  C   UNL     1      46.730   3.787   7.453  0.00  0.00    +0.000 A 
ATOM      3  C   UNL     1      45.749   4.450   8.195  0.00  0.00    +0.000 A 
ATOM      4  C   UNL     1      44.849   3.731   8.994  0.00  0.00    +0.000 A 
ATOM      5  C   UNL     1      44.969   2.335   9.050  0.00  0.00    +0.000 A 
ATOM      6  C   UNL     1      45.952   1.674   8.309  0.00  0.00    +0.000 A 
ENDROOT
BRANCH   1   7
ATOM      7  C   UNL     1      47.840   1.671   6.628  0.00  0.00    +0.000 C 
BRANCH   7   8
ATOM      8  C   UNL     1      47.785   2.090   5.155  0.00  0.00    +0.000 C 
BRANCH   8   9
ATOM      9  N   UNL     1      47.118   3.385   5.010  0.00  0.00    +0.000 NA
ATOM     10  H   UNL     1      46.337   3.439   5.662  0.00  0.00    +0.000 HD
ATOM     11  H   UNL     1      46.714   3.460   4.076  0.00  0.00    +0.000 HD
ENDBRANCH   8   9
ENDBRANCH   7   8
ENDBRANCH   1   7
BRANCH   4  12
ATOM     12  C   UNL     1      43.766   4.441   9.767  0.00  0.00    +0.000 C 
BRANCH  12  13
ATOM     13  N   UNL     1      44.058   4.520  11.196  0.00  0.00    +0.000 N 
ATOM     14  C   UNL     1      43.356   3.833  12.164  0.00  0.00    +0.000 A 
ATOM     15  C   UNL     1      43.976   4.050  13.376  0.00  0.00    +0.000 A 
ATOM     16  C   UNL     1      45.092   4.883  13.136  0.00  0.00    +0.000 A 
ATOM     17  N   UNL     1      46.007   5.341  14.025  0.00  0.00    +0.000 NA
ATOM     18  C   UNL     1      46.972   6.117  13.493  0.00  0.00    +0.000 A 
ATOM     19  C   UNL     1      47.081   6.465  12.155  0.00  0.00    +0.000 A 
ATOM     20  C   UNL     1      46.137   5.988  11.247  0.00  0.00    +0.000 A 
ATOM     21  C   UNL     1      45.127   5.174  11.771  0.00  0.00    +0.000 A 
ENDBRANCH  12  13
ENDBRANCH   4  12
TORSDOF 5
ENDMDL
MODEL 7
REMARK VINA RESULT:    -5.434      2.944      4.601
REMARK INTER + INTRA:          -7.410
REMARK INTER:                  -6.850
REMARK INTRA:                  -0.560
REMARK UNBOUND:                -0.547
REMARK  Name = 
REMARK  5 active torsions:
REMARK  status: ('A' for Active; 'I' for Inactive)
REMARK    1  A    between atoms: N_1  and  C_2
REMARK    2  A    between atoms: C_2  and  C_3
REMARK    3  A    between atoms: C_3  and  C_4
REMARK    4  A    between atoms: C_7  and  C_8
REMARK    5  A    between atoms: C_8  and  N_9
REMARK                            x       y       z     vdW  Elec       q    Type
REMARK                         _______ _______ _______ _____ _____    ______ ____
ROOT
ATOM      1  C   UNL     1      44.934   3.670  10.712  0.00  0.00    +0.000 A 
ATOM      2  C   UNL     1      45.180   3.478  12.076  0.00  0.00    +0.000 A 
ATOM      3  C   UNL     1      45.604   4.541  12.879  0.00  0.00    +0.000 A 
ATOM      4  C   UNL     1      45.782   5.821  12.336  0.00  0.00    +0.000 A 
ATOM      5  C   UNL     1      45.505   6.017  10.975  0.00  0.00    +0.000 A 
ATOM      6  C   UNL     1      45.079   4.954  10.174  0.00  0.00    +0.000 A 
ENDROOT
BRANCH   1   7
ATOM      7  C   UNL     1      44.549   2.506   9.830  0.00  0.00    +0.000 C 
BRANCH   7   8
ATOM      8  C   UNL     1      45.350   2.449   8.525  0.00  0.00    +0.000 C 
BRANCH   8   9
ATOM      9  N   UNL     1      46.064   1.176   8.412  0.00  0.00    +0.000 NA
ATOM     10  H   UNL     1      46.980   1.336   7.995  0.00  0.00    +0.000 HD
ATOM     11  H   UNL     1      45.565   0.558   7.771  0.00  0.00    +0.000 HD
ENDBRANCH   8   9
ENDBRANCH   7   8
ENDBRANCH   1   7
BRANCH   4  12
ATOM     12  C   UNL     1      46.274   6.961  13.192  0.00  0.00    +0.000 C 
BRANCH  12  13
ATOM     13  N   UNL     1      47.559   7.487  12.739  0.00  0.00    +0.000 N 
ATOM     14  C   UNL     1      48.715   6.739  12.668  0.00  0.00    +0.000 A 
ATOM     15  C   UNL     1      49.694   7.520  12.090  0.00  0.00    +0.000 A 
ATOM     16  C   UNL     1      49.113   8.772  11.791  0.00  0.00    +0.000 A 
ATOM     17  N   UNL     1      49.688   9.847  11.197  0.00  0.00    +0.000 NA
ATOM     18  C   UNL     1      48.872  10.907  11.036  0.00  0.00    +0.000 A 
ATOM     19  C   UNL     1      47.542  10.968  11.426  0.00  0.00    +0.000 A 
ATOM     20  C   UNL     1      46.959   9.859  12.034  0.00  0.00    +0.000 A 
ATOM     21  C   UNL     1      47.781   8.741  12.208  0.00  0.00    +0.000 A 
ENDBRANCH  12  13
ENDBRANCH   4  12
TORSDOF 5
ENDMDL
MODEL 8
REMARK VINA RESULT:    -5.107      3.933      7.705
REMARK INTER + INTRA:          -6.998
REMARK INTER:                  -6.451
REMARK INTRA:                  -0.547
REMARK UNBOUND:                -0.547
REMARK  Name = 
REMARK  5 active torsions:
REMARK  status: ('A' for Active; 'I' for Inactive)
REMARK    1  A    between atoms: N_1  and  C_2
REMARK    2  A    between atoms: C_2  and  C_3
REMARK    3  A    between atoms: C_3  and  C_4
REMARK    4  A    between atoms: C_7  and  C_8
REMARK    5  A    between atoms: C_8  and  N_9
REMARK                            x       y       z     vdW  Elec       q    Type
REMARK                         _______ _______ _______ _____ _____    ______ ____
ROOT
ATOM      1  C   UNL     1      48.093   5.595  17.512  0.00  0.00    +0.000 A 
ATOM      2  C   UNL     1      48.625   6.581  16.674  0.00  0.00    +0.000 A 
ATOM      3  C   UNL     1      48.462   6.502  15.288  0.00  0.00    +0.000 A 
ATOM      4  C   UNL     1      47.756   5.438  14.711  0.00  0.00    +0.000 A 
ATOM      5  C   UNL     1      47.198   4.467  15.555  0.00  0.00    +0.000 A 
ATOM      6  C   UNL     1      47.361   4.548  16.941  0.00  0.00    +0.000 A 
ENDROOT
BRANCH   1   7
ATOM      7  C   UNL     1      48.335   5.641  19.002  0.00  0.00    +0.000 C 
BRANCH   7   8
ATOM      8  C   UNL     1      49.175   4.466  19.512  0.00  0.00    +0.000 C 
BRANCH   8   9
ATOM      9  N   UNL     1      48.478   3.759  20.587  0.00  0.00    +0.000 NA
ATOM     10  H   UNL     1      48.639   2.757  20.495  0.00  0.00    +0.000 HD
ATOM     11  H   UNL     1      47.471   3.894  20.491  0.00  0.00    +0.000 HD
ENDBRANCH   8   9
ENDBRANCH   7   8
ENDBRANCH   1   7
BRANCH   4  12
ATOM     12  C   UNL     1      47.609   5.331  13.213  0.00  0.00    +0.000 C 
BRANCH  12  13
ATOM     13  N   UNL     1      46.409   6.001  12.719  0.00  0.00    +0.000 N 
ATOM     14  C   UNL     1      46.367   7.328  12.348  0.00  0.00    +0.000 A 
ATOM     15  C   UNL     1      45.117   7.585  11.826  0.00  0.00    +0.000 A 
ATOM     16  C   UNL     1      44.384   6.379  11.871  0.00  0.00    +0.000 A 
ATOM     17  N   UNL     1      43.118   6.146  11.446  0.00  0.00    +0.000 NA
ATOM     18  C   UNL     1      42.689   4.880  11.613  0.00  0.00    +0.000 A 
ATOM     19  C   UNL     1      43.426   3.846  12.173  0.00  0.00    +0.000 A 
ATOM     20  C   UNL     1      44.727   4.094  12.607  0.00  0.00    +0.000 A 
ATOM     21  C   UNL     1      45.201   5.399  12.438  0.00  0.00    +0.000 A 
ENDBRANCH  12  13
ENDBRANCH   4  12
TORSDOF 5
ENDMDL
MODEL 9
REMARK VINA RESULT:    -5.094      2.835      6.997
REMARK INTER + INTRA:          -6.981
REMARK INTER:                  -6.643
REMARK INTRA:                  -0.338
REMARK UNBOUND:                -0.547
REMARK  Name = 
REMARK  5 active torsions:
REMARK  status: ('A' for Active; 'I' for Inactive)
REMARK    1  A    between atoms: N_1  and  C_2
REMARK    2  A    between atoms: C_2  and  C_3
REMARK    3  A    between atoms: C_3  and  C_4
REMARK    4  A    between atoms: C_7  and  C_8
REMARK    5  A    between atoms: C_8  and  N_9
REMARK                            x       y       z     vdW  Elec       q    Type
REMARK                         _______ _______ _______ _____ _____    ______ ____
ROOT
ATOM      1  C   UNL     1      43.462  10.051  10.993  0.00  0.00    +0.000 A 
ATOM      2  C   UNL     1      43.012   8.738  10.812  0.00  0.00    +0.000 A 
ATOM      3  C   UNL     1      43.818   7.654  11.170  0.00  0.00    +0.000 A 
ATOM      4  C   UNL     1      45.088   7.859  11.726  0.00  0.00    +0.000 A 
ATOM      5  C   UNL     1      45.524   9.176  11.934  0.00  0.00    +0.000 A 
ATOM      6  C   UNL     1      44.717  10.260  11.577  0.00  0.00    +0.000 A 
ENDROOT
BRANCH   1   7
ATOM      7  C   UNL     1      42.623  11.221  10.535  0.00  0.00    +0.000 C 
BRANCH   7   8
ATOM      8  C   UNL     1      41.284  11.325  11.273  0.00  0.00    +0.000 C 
BRANCH   8   9
ATOM      9  N   UNL     1      41.495  11.414  12.718  0.00  0.00    +0.000 NA
ATOM     10  H   UNL     1      41.812  10.512  13.071  0.00  0.00    +0.000 HD
ATOM     11  H   UNL     1      40.607  11.604  13.184  0.00  0.00    +0.000 HD
ENDBRANCH   8   9
ENDBRANCH   7   8
ENDBRANCH   1   7
BRANCH   4  12
ATOM     12  C   UNL     1      45.974   6.691  12.080  0.00  0.00    +0.000 C 
BRANCH  12  13
ATOM     13  N   UNL     1      45.311   5.405  11.881  0.00  0.00    +0.000 N 
ATOM     14  C   UNL     1      44.608   4.741  12.863  0.00  0.00    +0.000 A 
ATOM     15  C   UNL     1      44.023   3.630  12.293  0.00  0.00    +0.000 A 
ATOM     16  C   UNL     1      44.372   3.625  10.925  0.00  0.00    +0.000 A 
ATOM     17  N   UNL     1      44.008   2.738   9.966  0.00  0.00    +0.000 NA
ATOM     18  C   UNL     1      44.494   3.002   8.737  0.00  0.00    +0.000 A 
ATOM     19  C   UNL     1      45.310   4.074   8.406  0.00  0.00    +0.000 A 
ATOM     20  C   UNL     1      45.679   4.982   9.397  0.00  0.00    +0.000 A 
ATOM     21  C   UNL     1      45.182   4.736  10.682  0.00  0.00    +0.000 A 
ENDBRANCH  12  13
ENDBRANCH   4  12
TORSDOF 5
ENDMDL
