MODEL 1
REMARK VINA RESULT:    -7.133      0.000      0.000
REMARK INTER + INTRA:          -9.496
REMARK INTER:                  -8.801
REMARK INTRA:                  -0.695
REMARK UNBOUND:                -0.695
REMARK  Name = 
REMARK  4 active torsions:
REMARK  status: ('A' for Active; 'I' for Inactive)
REMARK    1  A    between atoms: C_2  and  C_4
REMARK    2  A    between atoms: C_4  and  C_5
REMARK    3  A    between atoms: N_7  and  C_8
REMARK    4  A    between atoms: C_8  and  C_9
REMARK                            x       y       z     vdW  Elec       q    Type
REMARK                         _______ _______ _______ _____ _____    ______ ____
ROOT
ATOM      1  C   UNL     1      45.941   5.979  11.065  0.00  0.00    +0.000 A 
ATOM      2  C   UNL     1      45.864   5.727   9.709  0.00  0.00    +0.000 A 
ATOM      3  N   UNL     1      45.050   4.639   9.514  0.00  0.00    +0.000 N 
ATOM      4  C   UNL     1      44.535   4.211  10.720  0.00  0.00    +0.000 A 
ATOM      5  C   UNL     1      43.654   3.162  11.036  0.00  0.00    +0.000 A 
ATOM      6  C   UNL     1      43.333   2.948  12.379  0.00  0.00    +0.000 A 
ATOM      7  C   UNL     1      43.855   3.760  13.378  0.00  0.00    +0.000 A 
ATOM      8  C   UNL     1      44.721   4.810  13.057  0.00  0.00    +0.000 A 
ATOM      9  C   UNL     1      45.074   5.041  11.709  0.00  0.00    +0.000 A 
ENDROOT
BRANCH   1  10
ATOM     10  C   UNL     1      46.787   7.022  11.731  0.00  0.00    +0.000 C 
BRANCH  10  12
ATOM     11  N   UNL     1      46.258   8.554  13.595  0.00  0.00    +0.000 N 
ATOM     12  C   UNL     1      45.984   8.177  12.311  0.00  0.00    +0.000 C 
ATOM     13  O   UNL     1      45.060   8.712  11.701  0.00  0.00    +0.000 OA
ATOM     14  H   UNL     1      45.769   9.360  13.959  0.00  0.00    +0.000 HD
ATOM     15  H   UNL     1      47.090   8.243  14.081  0.00  0.00    +0.000 HD
ENDBRANCH  10  12
ENDBRANCH   1  10
BRANCH   3  16
ATOM     16  C   UNL     1      44.791   4.038   8.209  0.00  0.00    +0.000 C 
BRANCH  16  17
ATOM     17  C   UNL     1      45.802   2.986   7.887  0.00  0.00    +0.000 A 
ATOM     18  C   UNL     1      46.907   3.231   7.101  0.00  0.00    +0.000 A 
ATOM     19  N   UNL     1      47.821   2.295   6.770  0.00  0.00    +0.000 NA
ATOM     20  C   UNL     1      47.592   1.064   7.247  0.00  0.00    +0.000 A 
ATOM     21  N   UNL     1      46.558   0.702   8.022  0.00  0.00    +0.000 NA
ATOM     22  C   UNL     1      45.679   1.680   8.319  0.00  0.00    +0.000 A 
ENDBRANCH  16  17
ENDBRANCH   3  16
TORSDOF 4
ENDMDL
MODEL 2
REMARK VINA RESULT:    -6.892      2.502      3.878
REMARK INTER + INTRA:          -9.199
REMARK INTER:                  -8.677
REMARK INTRA:                  -0.522
REMARK UNBOUND:                -0.695
REMARK  Name = 
REMARK  4 active torsions:
REMARK  status: ('A' for Active; 'I' for Inactive)
REMARK    1  A    between atoms: C_2  and  C_4
REMARK    2  A    between atoms: C_4  and  C_5
REMARK    3  A    between atoms: N_7  and  C_8
REMARK    4  A    between atoms: C_8  and  C_9
REMARK                            x       y       z     vdW  Elec       q    Type
REMARK                         _______ _______ _______ _____ _____    ______ ____
ROOT
ATOM      1  C   UNL     1      46.369   5.806  13.060  0.00  0.00    +0.000 A 
ATOM      2  C   UNL     1      45.738   4.842  12.299  0.00  0.00    +0.000 A 
ATOM      3  N   UNL     1      44.831   5.462  11.476  0.00  0.00    +0.000 N 
ATOM      4  C   UNL     1      44.904   6.831  11.637  0.00  0.00    +0.000 A 
ATOM      5  C   UNL     1      44.203   7.880  11.018  0.00  0.00    +0.000 A 
ATOM      6  C   UNL     1      44.478   9.189  11.420  0.00  0.00    +0.000 A 
ATOM      7  C   UNL     1      45.433   9.452  12.395  0.00  0.00    +0.000 A 
ATOM      8  C   UNL     1      46.136   8.406  12.999  0.00  0.00    +0.000 A 
ATOM      9  C   UNL     1      45.869   7.072  12.622  0.00  0.00    +0.000 A 
ENDROOT
BRANCH   1  10
ATOM     10  C   UNL     1      47.371   5.565  14.149  0.00  0.00    +0.000 C 
BRANCH  10  12
ATOM     11  N   UNL     1      46.674   4.327  16.169  0.00  0.00    +0.000 N 
ATOM     12  C   UNL     1      47.158   4.256  14.894  0.00  0.00    +0.000 C 
ATOM     13  O   UNL     1      47.481   3.167  14.423  0.00  0.00    +0.000 OA
ATOM     14  H   UNL     1      46.474   3.456  16.641  0.00  0.00    +0.000 HD
ATOM     15  H   UNL     1      46.267   5.175  16.544  0.00  0.00    +0.000 HD
ENDBRANCH  10  12
ENDBRANCH   1  10
BRANCH   3  16
ATOM     16  C   UNL     1      43.926   4.753  10.577  0.00  0.00    +0.000 C 
BRANCH  16  17
ATOM     17  C   UNL     1      44.683   3.958   9.563  0.00  0.00    +0.000 A 
ATOM     18  C   UNL     1      44.719   2.580   9.572  0.00  0.00    +0.000 A 
ATOM     19  N   UNL     1      45.416   1.836   8.688  0.00  0.00    +0.000 NA
ATOM     20  C   UNL     1      46.110   2.524   7.770  0.00  0.00    +0.000 A 
ATOM     21  N   UNL     1      46.153   3.860   7.656  0.00  0.00    +0.000 NA
ATOM     22  C   UNL     1      45.436   4.548   8.567  0.00  0.00    +0.000 A 
ENDBRANCH  16  17
ENDBRANCH   3  16
TORSDOF 4
ENDMDL
MODEL 3
REMARK VINA RESULT:    -6.666      2.948      4.511
REMARK INTER + INTRA:          -8.920
REMARK INTER:                  -8.267
REMARK INTRA:                  -0.653
REMARK UNBOUND:                -0.695
REMARK  Name = 
REMARK  4 active torsions:
REMARK  status: ('A' for Active; 'I' for Inactive)
REMARK    1  A    between atoms: C_2  and  C_4
REMARK    2  A    between atoms: C_4  and  C_5
REMARK    3  A    between atoms: N_7  and  C_8
REMARK    4  A    between atoms: C_8  and  C_9
REMARK                            x       y       z     vdW  Elec       q    Type
REMARK                         _______ _______ _______ _____ _____    ______ ____
ROOT
ATOM      1  C   UNL     1      47.020   4.379  14.065  0.00  0.00    +0.000 A 
ATOM      2  C   UNL     1      45.964   3.924  13.300  0.00  0.00    +0.000 A 
ATOM      3  N   UNL     1      45.592   4.921  12.433  0.00  0.00    +0.000 N 
ATOM      4  C   UNL     1      46.435   6.005  12.569  0.00  0.00    +0.000 A 
ATOM      5  C   UNL     1      46.474   7.243  11.905  0.00  0.00    +0.000 A 
ATOM      6  C   UNL     1      47.444   8.172  12.290  0.00  0.00    +0.000 A 
ATOM      7  C   UNL     1      48.359   7.877  13.294  0.00  0.00    +0.000 A 
ATOM      8  C   UNL     1      48.323   6.639  13.944  0.00  0.00    +0.000 A 
ATOM      9  C   UNL     1      47.345   5.686  13.583  0.00  0.00    +0.000 A 
ENDROOT
BRANCH   1  10
ATOM     10  C   UNL     1      47.683   3.648  15.193  0.00  0.00    +0.000 C 
BRANCH  10  12
ATOM     11  N   UNL     1      47.437   5.210  17.091  0.00  0.00    +0.000 N 
ATOM     12  C   UNL     1      47.112   3.994  16.561  0.00  0.00    +0.000 C 
ATOM     13  O   UNL     1      46.451   3.196  17.222  0.00  0.00    +0.000 OA
ATOM     14  H   UNL     1      47.009   5.465  17.971  0.00  0.00    +0.000 HD
ATOM     15  H   UNL     1      47.855   5.945  16.535  0.00  0.00    +0.000 HD
ENDBRANCH  10  12
ENDBRANCH   1  10
BRANCH   3  16
ATOM     16  C   UNL     1      44.461   4.825  11.515  0.00  0.00    +0.000 C 
BRANCH  16  17
ATOM     17  C   UNL     1      44.862   4.182  10.227  0.00  0.00    +0.000 A 
ATOM     18  C   UNL     1      44.713   2.832   9.990  0.00  0.00    +0.000 A 
ATOM     19  N   UNL     1      45.091   2.219   8.849  0.00  0.00    +0.000 NA
ATOM     20  C   UNL     1      45.651   3.010   7.923  0.00  0.00    +0.000 A 
ATOM     21  N   UNL     1      45.846   4.333   8.033  0.00  0.00    +0.000 NA
ATOM     22  C   UNL     1      45.448   4.888   9.195  0.00  0.00    +0.000 A 
ENDBRANCH  16  17
ENDBRANCH   3  16
TORSDOF 4
ENDMDL
MODEL 4
REMARK VINA RESULT:    -6.307      1.757      2.304
REMARK INTER + INTRA:          -8.477
REMARK INTER:                  -7.972
REMARK INTRA:                  -0.505
REMARK UNBOUND:                -0.695
REMARK  Name = 
REMARK  4 active torsions:
REMARK  status: ('A' for Active; 'I' for Inactive)
REMARK    1  A    between atoms: C_2  and  C_4
REMARK    2  A    between atoms: C_4  and  C_5
REMARK    3  A    between atoms: N_7  and  C_8
REMARK    4  A    between atoms: C_8  and  C_9
REMARK                            x       y       z     vdW  Elec       q    Type
REMARK                         _______ _______ _______ _____ _____    ______ ____
ROOT
ATOM      1  C   UNL     1      45.282   7.082  12.456  0.00  0.00    +0.000 A 
ATOM      2  C   UNL     1      44.426   6.669  11.454  0.00  0.00    +0.000 A 
ATOM      3  N   UNL     1      44.509   5.302  11.346  0.00  0.00    +0.000 N 
ATOM      4  C   UNL     1      45.360   4.803  12.312  0.00  0.00    +0.000 A 
ATOM      5  C   UNL     1      45.753   3.488  12.615  0.00  0.00    +0.000 A 
ATOM      6  C   UNL     1      46.671   3.293  13.650  0.00  0.00    +0.000 A 
ATOM      7  C   UNL     1      47.172   4.368  14.374  0.00  0.00    +0.000 A 
ATOM      8  C   UNL     1      46.769   5.673  14.075  0.00  0.00    +0.000 A 
ATOM      9  C   UNL     1      45.852   5.901  13.026  0.00  0.00    +0.000 A 
ENDROOT
BRANCH   1  10
ATOM     10  C   UNL     1      45.569   8.499  12.853  0.00  0.00    +0.000 C 
BRANCH  10  12
ATOM     11  N   UNL     1      47.535   9.770  13.640  0.00  0.00    +0.000 N 
ATOM     12  C   UNL     1      47.037   8.879  12.733  0.00  0.00    +0.000 C 
ATOM     13  O   UNL     1      47.749   8.481  11.813  0.00  0.00    +0.000 OA
ATOM     14  H   UNL     1      48.524   9.975  13.598  0.00  0.00    +0.000 HD
ATOM     15  H   UNL     1      47.034  10.013  14.485  0.00  0.00    +0.000 HD
ENDBRANCH  10  12
ENDBRANCH   1  10
BRANCH   3  16
ATOM     16  C   UNL     1      43.797   4.518  10.343  0.00  0.00    +0.000 C 
BRANCH  16  17
ATOM     17  C   UNL     1      44.746   3.882   9.379  0.00  0.00    +0.000 A 
ATOM     18  C   UNL     1      45.529   4.613   8.511  0.00  0.00    +0.000 A 
ATOM     19  N   UNL     1      46.372   4.066   7.612  0.00  0.00    +0.000 NA
ATOM     20  C   UNL     1      46.409   2.727   7.589  0.00  0.00    +0.000 A 
ATOM     21  N   UNL     1      45.701   1.907   8.381  0.00  0.00    +0.000 NA
ATOM     22  C   UNL     1      44.876   2.512   9.259  0.00  0.00    +0.000 A 
ENDBRANCH  16  17
ENDBRANCH   3  16
TORSDOF 4
ENDMDL
MODEL 5
REMARK VINA RESULT:    -6.057      1.811      2.245
REMARK INTER + INTRA:          -8.168
REMARK INTER:                  -7.905
REMARK INTRA:                  -0.264
REMARK UNBOUND:                -0.695
REMARK  Name = 
REMARK  4 active torsions:
REMARK  status: ('A' for Active; 'I' for Inactive)
REMARK    1  A    between atoms: C_2  and  C_4
REMARK    2  A    between atoms: C_4  and  C_5
REMARK    3  A    between atoms: N_7  and  C_8
REMARK    4  A    between atoms: C_8  and  C_9
REMARK                            x       y       z     vdW  Elec       q    Type
REMARK                         _______ _______ _______ _____ _____    ______ ____
ROOT
ATOM      1  C   UNL     1      43.730   5.741  11.372  0.00  0.00    +0.000 A 
ATOM      2  C   UNL     1      43.449   4.785  10.415  0.00  0.00    +0.000 A 
ATOM      3  N   UNL     1      44.264   3.701  10.630  0.00  0.00    +0.000 N 
ATOM      4  C   UNL     1      45.032   3.903  11.759  0.00  0.00    +0.000 A 
ATOM      5  C   UNL     1      45.990   3.091  12.389  0.00  0.00    +0.000 A 
ATOM      6  C   UNL     1      46.639   3.589  13.522  0.00  0.00    +0.000 A 
ATOM      7  C   UNL     1      46.334   4.848  14.025  0.00  0.00    +0.000 A 
ATOM      8  C   UNL     1      45.371   5.646  13.401  0.00  0.00    +0.000 A 
ATOM      9  C   UNL     1      44.709   5.174  12.247  0.00  0.00    +0.000 A 
ENDROOT
BRANCH   1  10
ATOM     10  C   UNL     1      43.134   7.113  11.462  0.00  0.00    +0.000 C 
BRANCH  10  12
ATOM     11  N   UNL     1      43.614   9.288  10.394  0.00  0.00    +0.000 N 
ATOM     12  C   UNL     1      44.107   8.224  11.093  0.00  0.00    +0.000 C 
ATOM     13  O   UNL     1      45.311   8.152  11.328  0.00  0.00    +0.000 OA
ATOM     14  H   UNL     1      44.245  10.054  10.204  0.00  0.00    +0.000 HD
ATOM     15  H   UNL     1      42.620   9.458  10.302  0.00  0.00    +0.000 HD
ENDBRANCH  10  12
ENDBRANCH   1  10
BRANCH   3  16
ATOM     16  C   UNL     1      44.298   2.523   9.769  0.00  0.00    +0.000 C 
BRANCH  16  17
ATOM     17  C   UNL     1      45.376   2.635   8.740  0.00  0.00    +0.000 A 
ATOM     18  C   UNL     1      45.683   3.821   8.108  0.00  0.00    +0.000 A 
ATOM     19  N   UNL     1      46.630   3.947   7.156  0.00  0.00    +0.000 NA
ATOM     20  C   UNL     1      47.278   2.820   6.828  0.00  0.00    +0.000 A 
ATOM     21  N   UNL     1      47.073   1.610   7.371  0.00  0.00    +0.000 NA
ATOM     22  C   UNL     1      46.115   1.548   8.317  0.00  0.00    +0.000 A 
ENDBRANCH  16  17
ENDBRANCH   3  16
TORSDOF 4
ENDMDL
MODEL 6
REMARK VINA RESULT:    -5.739      3.902      5.911
REMARK INTER + INTRA:          -7.776
REMARK INTER:                  -7.322
REMARK INTRA:                  -0.454
REMARK UNBOUND:                -0.695
REMARK  Name = 
REMARK  4 active torsions:
REMARK  status: ('A' for Active; 'I' for Inactive)
REMARK    1  A    between atoms: C_2  and  C_4
REMARK    2  A    between atoms: C_4  and  C_5
REMARK    3  A    between atoms: N_7  and  C_8
REMARK    4  A    between atoms: C_8  and  C_9
REMARK                            x       y       z     vdW  Elec       q    Type
REMARK                         _______ _______ _______ _____ _____    ______ ____
ROOT
ATOM      1  C   UNL     1      47.818   5.237  15.347  0.00  0.00    +0.000 A 
ATOM      2  C   UNL     1      47.140   4.168  14.795  0.00  0.00    +0.000 A 
ATOM      3  N   UNL     1      46.776   4.498  13.513  0.00  0.00    +0.000 N 
ATOM      4  C   UNL     1      47.266   5.747  13.189  0.00  0.00    +0.000 A 
ATOM      5  C   UNL     1      47.176   6.505  12.009  0.00  0.00    +0.000 A 
ATOM      6  C   UNL     1      47.757   7.775  11.990  0.00  0.00    +0.000 A 
ATOM      7  C   UNL     1      48.423   8.273  13.104  0.00  0.00    +0.000 A 
ATOM      8  C   UNL     1      48.520   7.510  14.271  0.00  0.00    +0.000 A 
ATOM      9  C   UNL     1      47.930   6.228  14.322  0.00  0.00    +0.000 A 
ENDROOT
BRANCH   1  10
ATOM     10  C   UNL     1      48.321   5.340  16.755  0.00  0.00    +0.000 C 
BRANCH  10  12
ATOM     11  N   UNL     1      46.578   5.322  18.505  0.00  0.00    +0.000 N 
ATOM     12  C   UNL     1      47.463   4.592  17.764  0.00  0.00    +0.000 C 
ATOM     13  O   UNL     1      47.600   3.391  17.986  0.00  0.00    +0.000 OA
ATOM     14  H   UNL     1      45.965   4.818  19.131  0.00  0.00    +0.000 HD
ATOM     15  H   UNL     1      46.332   6.274  18.264  0.00  0.00    +0.000 HD
ENDBRANCH  10  12
ENDBRANCH   1  10
BRANCH   3  16
ATOM     16  C   UNL     1      45.980   3.638  12.642  0.00  0.00    +0.000 C 
BRANCH  16  17
ATOM     17  C   UNL     1      44.666   4.269  12.312  0.00  0.00    +0.000 A 
ATOM     18  C   UNL     1      44.296   4.586  11.023  0.00  0.00    +0.000 A 
ATOM     19  N   UNL     1      43.130   5.181  10.697  0.00  0.00    +0.000 NA
ATOM     20  C   UNL     1      42.319   5.472  11.724  0.00  0.00    +0.000 A 
ATOM     21  N   UNL     1      42.564   5.211  13.017  0.00  0.00    +0.000 NA
ATOM     22  C   UNL     1      43.745   4.616  13.280  0.00  0.00    +0.000 A 
ENDBRANCH  16  17
ENDBRANCH   3  16
TORSDOF 4
ENDMDL
MODEL 7
REMARK VINA RESULT:    -5.735      4.359      6.545
REMARK INTER + INTRA:          -7.772
REMARK INTER:                  -7.331
REMARK INTRA:                  -0.440
REMARK UNBOUND:                -0.695
REMARK  Name = 
REMARK  4 active torsions:
REMARK  status: ('A' for Active; 'I' for Inactive)
REMARK    1  A    between atoms: C_2  and  C_4
REMARK    2  A    between atoms: C_4  and  C_5
REMARK    3  A    between atoms: N_7  and  C_8
REMARK    4  A    between atoms: C_8  and  C_9
REMARK                            x       y       z     vdW  Elec       q    Type
REMARK                         _______ _______ _______ _____ _____    ______ ____
ROOT
ATOM      1  C   UNL     1      47.580   4.505  15.604  0.00  0.00    +0.000 A 
ATOM      2  C   UNL     1      46.984   4.466  14.359  0.00  0.00    +0.000 A 
ATOM      3  N   UNL     1      47.266   5.639  13.704  0.00  0.00    +0.000 N 
ATOM      4  C   UNL     1      48.100   6.423  14.476  0.00  0.00    +0.000 A 
ATOM      5  C   UNL     1      48.673   7.684  14.239  0.00  0.00    +0.000 A 
ATOM      6  C   UNL     1      49.464   8.251  15.242  0.00  0.00    +0.000 A 
ATOM      7  C   UNL     1      49.695   7.580  16.436  0.00  0.00    +0.000 A 
ATOM      8  C   UNL     1      49.132   6.320  16.661  0.00  0.00    +0.000 A 
ATOM      9  C   UNL     1      48.318   5.729  15.671  0.00  0.00    +0.000 A 
ENDROOT
BRANCH   1  10
ATOM     10  C   UNL     1      47.461   3.470  16.682  0.00  0.00    +0.000 C 
BRANCH  10  12
ATOM     11  N   UNL     1      49.422   2.812  18.031  0.00  0.00    +0.000 N 
ATOM     12  C   UNL     1      48.722   2.640  16.872  0.00  0.00    +0.000 C 
ATOM     13  O   UNL     1      49.163   1.899  15.996  0.00  0.00    +0.000 OA
ATOM     14  H   UNL     1      50.225   2.218  18.185  0.00  0.00    +0.000 HD
ATOM     15  H   UNL     1      49.031   3.297  18.829  0.00  0.00    +0.000 HD
ENDBRANCH  10  12
ENDBRANCH   1  10
BRANCH   3  16
ATOM     16  C   UNL     1      46.743   5.984  12.386  0.00  0.00    +0.000 C 
BRANCH  16  17
ATOM     17  C   UNL     1      45.377   5.415  12.179  0.00  0.00    +0.000 A 
ATOM     18  C   UNL     1      44.297   5.765  12.961  0.00  0.00    +0.000 A 
ATOM     19  N   UNL     1      43.060   5.248  12.816  0.00  0.00    +0.000 NA
ATOM     20  C   UNL     1      42.923   4.331  11.848  0.00  0.00    +0.000 A 
ATOM     21  N   UNL     1      43.893   3.910  11.022  0.00  0.00    +0.000 NA
ATOM     22  C   UNL     1      45.107   4.464  11.215  0.00  0.00    +0.000 A 
ENDBRANCH  16  17
ENDBRANCH   3  16
TORSDOF 4
ENDMDL
MODEL 8
REMARK VINA RESULT:    -5.700      4.611      7.230
REMARK INTER + INTRA:          -7.728
REMARK INTER:                  -7.120
REMARK INTRA:                  -0.608
REMARK UNBOUND:                -0.695
REMARK  Name = 
REMARK  4 active torsions:
REMARK  status: ('A' for Active; 'I' for Inactive)
REMARK    1  A    between atoms: C_2  and  C_4
REMARK    2  A    between atoms: C_4  and  C_5
REMARK    3  A    between atoms: N_7  and  C_8
REMARK    4  A    between atoms: C_8  and  C_9
REMARK                            x       y       z     vdW  Elec       q    Type
REMARK                         _______ _______ _______ _____ _____    ______ ____
ROOT
ATOM      1  C   UNL     1      46.296   4.909  13.229  0.00  0.00    +0.000 A 
ATOM      2  C   UNL     1      46.270   4.427  14.524  0.00  0.00    +0.000 A 
ATOM      3  N   UNL     1      47.257   5.054  15.243  0.00  0.00    +0.000 N 
ATOM      4  C   UNL     1      47.891   5.994  14.455  0.00  0.00    +0.000 A 
ATOM      5  C   UNL     1      48.937   6.889  14.736  0.00  0.00    +0.000 A 
ATOM      6  C   UNL     1      49.398   7.714  13.706  0.00  0.00    +0.000 A 
ATOM      7  C   UNL     1      48.826   7.665  12.441  0.00  0.00    +0.000 A 
ATOM      8  C   UNL     1      47.776   6.782  12.171  0.00  0.00    +0.000 A 
ATOM      9  C   UNL     1      47.300   5.927  13.189  0.00  0.00    +0.000 A 
ENDROOT
BRANCH   1  10
ATOM     10  C   UNL     1      45.448   4.439  12.087  0.00  0.00    +0.000 C 
BRANCH  10  12
ATOM     11  N   UNL     1      43.921   2.543  12.502  0.00  0.00    +0.000 N 
ATOM     12  C   UNL     1      44.093   3.897  12.517  0.00  0.00    +0.000 C 
ATOM     13  O   UNL     1      43.145   4.630  12.791  0.00  0.00    +0.000 OA
ATOM     14  H   UNL     1      43.043   2.180  12.846  0.00  0.00    +0.000 HD
ATOM     15  H   UNL     1      44.701   1.902  12.422  0.00  0.00    +0.000 HD
ENDBRANCH  10  12
ENDBRANCH   1  10
BRANCH   3  16
ATOM     16  C   UNL     1      47.574   4.747  16.634  0.00  0.00    +0.000 C 
BRANCH  16  17
ATOM     17  C   UNL     1      48.703   3.772  16.730  0.00  0.00    +0.000 A 
ATOM     18  C   UNL     1      48.620   2.486  16.240  0.00  0.00    +0.000 A 
ATOM     19  N   UNL     1      49.610   1.575  16.337  0.00  0.00    +0.000 NA
ATOM     20  C   UNL     1      50.719   1.988  16.967  0.00  0.00    +0.000 A 
ATOM     21  N   UNL     1      50.922   3.211  17.481  0.00  0.00    +0.000 NA
ATOM     22  C   UNL     1      49.897   4.076  17.353  0.00  0.00    +0.000 A 
ENDBRANCH  16  17
ENDBRANCH   3  16
TORSDOF 4
ENDMDL
MODEL 9
REMARK VINA RESULT:    -5.653      3.192      6.557
REMARK INTER + INTRA:          -7.669
REMARK INTER:                  -7.310
REMARK INTRA:                  -0.359
REMARK UNBOUND:                -0.695
REMARK  Name = 
REMARK  4 active torsions:
REMARK  status: ('A' for Active; 'I' for Inactive)
REMARK    1  A    between atoms: C_2  and  C_4
REMARK    2  A    between atoms: C_4  and  C_5
REMARK    3  A    between atoms: N_7  and  C_8
REMARK    4  A    between atoms: C_8  and  C_9
REMARK                            x       y       z     vdW  Elec       q    Type
REMARK                         _______ _______ _______ _____ _____    ______ ____
ROOT
ATOM      1  C   UNL     1      44.634   6.080  11.681  0.00  0.00    +0.000 A 
ATOM      2  C   UNL     1      45.684   5.390  12.255  0.00  0.00    +0.000 A 
ATOM      3  N   UNL     1      46.668   6.288  12.584  0.00  0.00    +0.000 N 
ATOM      4  C   UNL     1      46.252   7.573  12.296  0.00  0.00    +0.000 A 
ATOM      5  C   UNL     1      46.886   8.816  12.464  0.00  0.00    +0.000 A 
ATOM      6  C   UNL     1      46.214   9.965  12.039  0.00  0.00    +0.000 A 
ATOM      7  C   UNL     1      44.944   9.886  11.480  0.00  0.00    +0.000 A 
ATOM      8  C   UNL     1      44.314   8.647  11.326  0.00  0.00    +0.000 A 
ATOM      9  C   UNL     1      44.975   7.469  11.734  0.00  0.00    +0.000 A 
ENDROOT
BRANCH   1  10
ATOM     10  C   UNL     1      43.389   5.484  11.098  0.00  0.00    +0.000 C 
BRANCH  10  12
ATOM     11  N   UNL     1      44.004   4.424   8.953  0.00  0.00    +0.000 N 
ATOM     12  C   UNL     1      43.645   4.241  10.258  0.00  0.00    +0.000 C 
ATOM     13  O   UNL     1      43.461   3.104  10.687  0.00  0.00    +0.000 OA
ATOM     14  H   UNL     1      44.234   3.602   8.412  0.00  0.00    +0.000 HD
ATOM     15  H   UNL     1      44.300   5.324   8.598  0.00  0.00    +0.000 HD
ENDBRANCH  10  12
ENDBRANCH   1  10
BRANCH   3  16
ATOM     16  C   UNL     1      47.961   5.913  13.149  0.00  0.00    +0.000 C 
BRANCH  16  17
ATOM     17  C   UNL     1      47.825   5.482  14.573  0.00  0.00    +0.000 A 
ATOM     18  C   UNL     1      48.414   6.162  15.617  0.00  0.00    +0.000 A 
ATOM     19  N   UNL     1      48.333   5.781  16.909  0.00  0.00    +0.000 NA
ATOM     20  C   UNL     1      47.636   4.660  17.141  0.00  0.00    +0.000 A 
ATOM     21  N   UNL     1      47.016   3.914  16.214  0.00  0.00    +0.000 NA
ATOM     22  C   UNL     1      47.133   4.345  14.943  0.00  0.00    +0.000 A 
ENDBRANCH  16  17
ENDBRANCH   3  16
TORSDOF 4
ENDMDL
