MODEL 1
REMARK VINA RESULT:    -7.767      0.000      0.000
REMARK INTER + INTRA:         -11.890
REMARK INTER:                 -10.945
REMARK INTRA:                  -0.945
REMARK UNBOUND:                -0.945
REMARK  Name = 
REMARK  10 active torsions:
REMARK  status: ('A' for Active; 'I' for Inactive)
REMARK    1  A    between atoms: C_1  and  O_2
REMARK    2  A    between atoms: O_2  and  C_3
REMARK    3  A    between atoms: C_5  and  C_6
REMARK    4  A    between atoms: C_11  and  N_12
REMARK    5  A    between atoms: N_12  and  C_13
REMARK    6  A    between atoms: C_13  and  C_14
REMARK    7  A    between atoms: C_18  and  C_19
REMARK    8  A    between atoms: N_22  and  C_23
REMARK    9  A    between atoms: C_23  and  C_24
REMARK   10  A    between atoms: C_23  and  C_25
REMARK                            x       y       z     vdW  Elec       q    Type
REMARK                         _______ _______ _______ _____ _____    ______ ____
ROOT
ATOM      1  C   UNL     1      43.774   5.817  11.645  0.00  0.00    +0.000 C 
ENDROOT
BRANCH   1   2
ATOM      2  C   UNL     1      45.163   5.937  12.213  0.00  0.00    +0.000 A 
ATOM      3  C   UNL     1      45.586   5.086  13.237  0.00  0.00    +0.000 A 
ATOM      4  C   UNL     1      46.895   5.155  13.699  0.00  0.00    +0.000 A 
ATOM      5  C   UNL     1      47.784   6.083  13.152  0.00  0.00    +0.000 A 
ATOM      6  C   UNL     1      47.377   6.977  12.153  0.00  0.00    +0.000 A 
ATOM      7  C   UNL     1      46.052   6.892  11.699  0.00  0.00    +0.000 A 
BRANCH   6   8
ATOM      8  C   UNL     1      48.277   8.053  11.559  0.00  0.00    +0.000 C 
ATOM      9  C   UNL     1      49.778   7.789  11.680  0.00  0.00    +0.000 C 
ATOM     10  C   UNL     1      50.385   8.212  13.017  0.00  0.00    +0.000 C 
ATOM     11  N   UNL     1      50.038   9.589  13.416  0.00  0.00    +0.000 NA
ATOM     12  C   UNL     1      48.577   9.793  13.405  0.00  0.00    +0.000 C 
ATOM     13  C   UNL     1      47.934   9.454  12.063  0.00  0.00    +0.000 C 
BRANCH  11  14
ATOM     14  C   UNL     1      50.632   9.936  14.738  0.00  0.00    +0.000 C 
ATOM     15  C   UNL     1      49.660  10.748  15.611  0.00  0.00    +0.000 C 
ATOM     16  C   UNL     1      51.041   8.694  15.548  0.00  0.00    +0.000 C 
ENDBRANCH  11  14
ENDBRANCH   6   8
ENDBRANCH   1   2
BRANCH   1  17
ATOM     17  N   UNL     1      43.813   5.529  10.238  0.00  0.00    +0.000 N 
ATOM     18  H   UNL     1      43.445   6.199   9.573  0.00  0.00    +0.000 HD
BRANCH  17  24
ATOM     19  C   UNL     1      44.204   3.103   9.988  0.00  0.00    +0.000 A 
ATOM     20  C   UNL     1      44.937   2.116   9.325  0.00  0.00    +0.000 A 
ATOM     21  C   UNL     1      45.899   2.469   8.379  0.00  0.00    +0.000 A 
ATOM     22  C   UNL     1      46.089   3.817   8.143  0.00  0.00    +0.000 A 
ATOM     23  N   UNL     1      45.401   4.804   8.773  0.00  0.00    +0.000 NA
ATOM     24  C   UNL     1      44.461   4.456   9.682  0.00  0.00    +0.000 A 
BRANCH  21  25
ATOM     25  C   UNL     1      46.638   1.386   7.687  0.00  0.00    +0.000 C 
ATOM     26  N   UNL     1      47.508   1.704   6.684  0.00  0.00    +0.000 N 
ATOM     27  O   UNL     1      46.474   0.211   8.001  0.00  0.00    +0.000 OA
ATOM     28  H   UNL     1      47.695   2.627   6.326  0.00  0.00    +0.000 HD
ATOM     29  H   UNL     1      47.974   0.925   6.234  0.00  0.00    +0.000 HD
ENDBRANCH  21  25
BRANCH  19  31
ATOM     30  C   UNL     1      43.593   2.304  12.152  0.00  0.00    +0.000 C 
ATOM     31  O   UNL     1      43.208   2.804  10.879  0.00  0.00    +0.000 OA
ENDBRANCH  19  31
ENDBRANCH  17  24
ENDBRANCH   1  17
TORSDOF 7
ENDMDL
MODEL 2
REMARK VINA RESULT:    -7.623      1.413      1.962
REMARK INTER + INTRA:         -11.687
REMARK INTER:                 -10.746
REMARK INTRA:                  -0.941
REMARK UNBOUND:                -0.945
REMARK  Name = 
REMARK  10 active torsions:
REMARK  status: ('A' for Active; 'I' for Inactive)
REMARK    1  A    between atoms: C_1  and  O_2
REMARK    2  A    between atoms: O_2  and  C_3
REMARK    3  A    between atoms: C_5  and  C_6
REMARK    4  A    between atoms: C_11  and  N_12
REMARK    5  A    between atoms: N_12  and  C_13
REMARK    6  A    between atoms: C_13  and  C_14
REMARK    7  A    between atoms: C_18  and  C_19
REMARK    8  A    between atoms: N_22  and  C_23
REMARK    9  A    between atoms: C_23  and  C_24
REMARK   10  A    between atoms: C_23  and  C_25
REMARK                            x       y       z     vdW  Elec       q    Type
REMARK                         _______ _______ _______ _____ _____    ______ ____
ROOT
ATOM      1  C   UNL     1      44.081   5.822  11.483  0.00  0.00    +0.000 C 
ENDROOT
BRANCH   1   2
ATOM      2  C   UNL     1      44.880   7.094  11.582  0.00  0.00    +0.000 A 
ATOM      3  C   UNL     1      44.260   8.335  11.418  0.00  0.00    +0.000 A 
ATOM      4  C   UNL     1      44.991   9.504  11.588  0.00  0.00    +0.000 A 
ATOM      5  C   UNL     1      46.350   9.440  11.909  0.00  0.00    +0.000 A 
ATOM      6  C   UNL     1      47.008   8.211  12.039  0.00  0.00    +0.000 A 
ATOM      7  C   UNL     1      46.252   7.041  11.864  0.00  0.00    +0.000 A 
BRANCH   6   8
ATOM      8  C   UNL     1      48.498   8.072  12.325  0.00  0.00    +0.000 C 
ATOM      9  C   UNL     1      48.897   6.828  13.119  0.00  0.00    +0.000 C 
ATOM     10  C   UNL     1      48.758   6.977  14.634  0.00  0.00    +0.000 C 
ATOM     11  N   UNL     1      49.395   8.195  15.169  0.00  0.00    +0.000 NA
ATOM     12  C   UNL     1      48.912   9.400  14.468  0.00  0.00    +0.000 C 
ATOM     13  C   UNL     1      49.098   9.327  12.955  0.00  0.00    +0.000 C 
BRANCH  11  14
ATOM     14  C   UNL     1      49.204   8.303  16.643  0.00  0.00    +0.000 C 
ATOM     15  C   UNL     1      48.121   9.332  17.010  0.00  0.00    +0.000 C 
ATOM     16  C   UNL     1      48.798   6.966  17.288  0.00  0.00    +0.000 C 
ENDBRANCH  11  14
ENDBRANCH   6   8
ENDBRANCH   1   2
BRANCH   1  17
ATOM     17  N   UNL     1      43.947   5.399  10.116  0.00  0.00    +0.000 N 
ATOM     18  H   UNL     1      43.422   5.964   9.460  0.00  0.00    +0.000 HD
BRANCH  17  24
ATOM     19  C   UNL     1      44.368   2.979   9.854  0.00  0.00    +0.000 A 
ATOM     20  C   UNL     1      45.123   2.005   9.196  0.00  0.00    +0.000 A 
ATOM     21  C   UNL     1      46.098   2.376   8.270  0.00  0.00    +0.000 A 
ATOM     22  C   UNL     1      46.278   3.728   8.048  0.00  0.00    +0.000 A 
ATOM     23  N   UNL     1      45.569   4.703   8.674  0.00  0.00    +0.000 NA
ATOM     24  C   UNL     1      44.617   4.337   9.564  0.00  0.00    +0.000 A 
BRANCH  21  25
ATOM     25  C   UNL     1      46.860   1.307   7.583  0.00  0.00    +0.000 C 
ATOM     26  N   UNL     1      47.778   1.645   6.630  0.00  0.00    +0.000 N 
ATOM     27  O   UNL     1      46.673   0.125   7.855  0.00  0.00    +0.000 OA
ATOM     28  H   UNL     1      47.988   2.576   6.308  0.00  0.00    +0.000 HD
ATOM     29  H   UNL     1      48.259   0.875   6.180  0.00  0.00    +0.000 HD
ENDBRANCH  21  25
BRANCH  19  31
ATOM     30  C   UNL     1      43.705   2.474  12.090  0.00  0.00    +0.000 C 
ATOM     31  O   UNL     1      43.359   2.663  10.724  0.00  0.00    +0.000 OA
ENDBRANCH  19  31
ENDBRANCH  17  24
ENDBRANCH   1  17
TORSDOF 7
ENDMDL
MODEL 3
REMARK VINA RESULT:    -7.408      1.320      2.426
REMARK INTER + INTRA:         -11.384
REMARK INTER:                 -10.862
REMARK INTRA:                  -0.521
REMARK UNBOUND:                -0.945
REMARK  Name = 
REMARK  10 active torsions:
REMARK  status: ('A' for Active; 'I' for Inactive)
REMARK    1  A    between atoms: C_1  and  O_2
REMARK    2  A    between atoms: O_2  and  C_3
REMARK    3  A    between atoms: C_5  and  C_6
REMARK    4  A    between atoms: C_11  and  N_12
REMARK    5  A    between atoms: N_12  and  C_13
REMARK    6  A    between atoms: C_13  and  C_14
REMARK    7  A    between atoms: C_18  and  C_19
REMARK    8  A    between atoms: N_22  and  C_23
REMARK    9  A    between atoms: C_23  and  C_24
REMARK   10  A    between atoms: C_23  and  C_25
REMARK                            x       y       z     vdW  Elec       q    Type
REMARK                         _______ _______ _______ _____ _____    ______ ____
ROOT
ATOM      1  C   UNL     1      43.840   5.406  11.298  0.00  0.00    +0.000 C 
ENDROOT
BRANCH   1   2
ATOM      2  C   UNL     1      44.616   6.642  11.665  0.00  0.00    +0.000 A 
ATOM      3  C   UNL     1      44.201   7.899  11.218  0.00  0.00    +0.000 A 
ATOM      4  C   UNL     1      44.879   9.040  11.627  0.00  0.00    +0.000 A 
ATOM      5  C   UNL     1      45.986   8.933  12.473  0.00  0.00    +0.000 A 
ATOM      6  C   UNL     1      46.451   7.684  12.905  0.00  0.00    +0.000 A 
ATOM      7  C   UNL     1      45.752   6.542  12.481  0.00  0.00    +0.000 A 
BRANCH   6   8
ATOM      8  C   UNL     1      47.686   7.492  13.775  0.00  0.00    +0.000 C 
ATOM      9  C   UNL     1      48.319   8.780  14.303  0.00  0.00    +0.000 C 
ATOM     10  C   UNL     1      49.280   9.455  13.325  0.00  0.00    +0.000 C 
ATOM     11  N   UNL     1      50.291   8.540  12.761  0.00  0.00    +0.000 NA
ATOM     12  C   UNL     1      49.655   7.356  12.153  0.00  0.00    +0.000 C 
ATOM     13  C   UNL     1      48.741   6.605  13.117  0.00  0.00    +0.000 C 
BRANCH  11  14
ATOM     14  C   UNL     1      51.179   9.245  11.795  0.00  0.00    +0.000 C 
ATOM     15  C   UNL     1      51.753   8.288  10.736  0.00  0.00    +0.000 C 
ATOM     16  C   UNL     1      50.458  10.377  11.043  0.00  0.00    +0.000 C 
ENDBRANCH  11  14
ENDBRANCH   6   8
ENDBRANCH   1   2
BRANCH   1  17
ATOM     17  N   UNL     1      43.890   5.165   9.882  0.00  0.00    +0.000 N 
ATOM     18  H   UNL     1      43.412   5.790   9.244  0.00  0.00    +0.000 HD
BRANCH  17  24
ATOM     19  C   UNL     1      44.563   2.823   9.478  0.00  0.00    +0.000 A 
ATOM     20  C   UNL     1      45.431   1.976   8.783  0.00  0.00    +0.000 A 
ATOM     21  C   UNL     1      46.384   2.505   7.913  0.00  0.00    +0.000 A 
ATOM     22  C   UNL     1      46.429   3.880   7.784  0.00  0.00    +0.000 A 
ATOM     23  N   UNL     1      45.609   4.734   8.449  0.00  0.00    +0.000 NA
ATOM     24  C   UNL     1      44.678   4.215   9.284  0.00  0.00    +0.000 A 
BRANCH  21  25
ATOM     25  C   UNL     1      47.268   1.567   7.182  0.00  0.00    +0.000 C 
ATOM     26  N   UNL     1      48.312   2.060   6.453  0.00  0.00    +0.000 N 
ATOM     27  O   UNL     1      47.072   0.356   7.222  0.00  0.00    +0.000 OA
ATOM     28  H   UNL     1      48.545   3.032   6.327  0.00  0.00    +0.000 HD
ATOM     29  H   UNL     1      48.875   1.377   5.960  0.00  0.00    +0.000 HD
ENDBRANCH  21  25
BRANCH  19  31
ATOM     30  C   UNL     1      43.839   2.297  11.691  0.00  0.00    +0.000 C 
ATOM     31  O   UNL     1      43.572   2.349  10.295  0.00  0.00    +0.000 OA
ENDBRANCH  19  31
ENDBRANCH  17  24
ENDBRANCH   1  17
TORSDOF 7
ENDMDL
MODEL 4
REMARK VINA RESULT:    -7.211      4.341      8.709
REMARK INTER + INTRA:         -11.107
REMARK INTER:                 -10.132
REMARK INTRA:                  -0.975
REMARK UNBOUND:                -0.945
REMARK  Name = 
REMARK  10 active torsions:
REMARK  status: ('A' for Active; 'I' for Inactive)
REMARK    1  A    between atoms: C_1  and  O_2
REMARK    2  A    between atoms: O_2  and  C_3
REMARK    3  A    between atoms: C_5  and  C_6
REMARK    4  A    between atoms: C_11  and  N_12
REMARK    5  A    between atoms: N_12  and  C_13
REMARK    6  A    between atoms: C_13  and  C_14
REMARK    7  A    between atoms: C_18  and  C_19
REMARK    8  A    between atoms: N_22  and  C_23
REMARK    9  A    between atoms: C_23  and  C_24
REMARK   10  A    between atoms: C_23  and  C_25
REMARK                            x       y       z     vdW  Elec       q    Type
REMARK                         _______ _______ _______ _____ _____    ______ ____
ROOT
ATOM      1  C   UNL     1      46.746   4.009  14.550  0.00  0.00    +0.000 C 
ENDROOT
BRANCH   1   2
ATOM      2  C   UNL     1      46.261   4.813  13.374  0.00  0.00    +0.000 A 
ATOM      3  C   UNL     1      46.586   6.166  13.258  0.00  0.00    +0.000 A 
ATOM      4  C   UNL     1      46.198   6.879  12.130  0.00  0.00    +0.000 A 
ATOM      5  C   UNL     1      45.471   6.247  11.118  0.00  0.00    +0.000 A 
ATOM      6  C   UNL     1      45.094   4.902  11.225  0.00  0.00    +0.000 A 
ATOM      7  C   UNL     1      45.496   4.199  12.372  0.00  0.00    +0.000 A 
BRANCH   6   8
ATOM      8  C   UNL     1      44.250   4.172  10.189  0.00  0.00    +0.000 C 
ATOM      9  C   UNL     1      44.362   2.648  10.213  0.00  0.00    +0.000 C 
ATOM     10  C   UNL     1      45.553   2.092   9.434  0.00  0.00    +0.000 C 
ATOM     11  N   UNL     1      45.667   2.627   8.064  0.00  0.00    +0.000 NA
ATOM     12  C   UNL     1      45.673   4.102   8.068  0.00  0.00    +0.000 C 
ATOM     13  C   UNL     1      44.461   4.704   8.773  0.00  0.00    +0.000 C 
BRANCH  11  14
ATOM     14  C   UNL     1      46.860   2.074   7.364  0.00  0.00    +0.000 C 
ATOM     15  C   UNL     1      46.905   0.538   7.429  0.00  0.00    +0.000 C 
ATOM     16  C   UNL     1      46.914   2.469   5.878  0.00  0.00    +0.000 C 
ENDBRANCH  11  14
ENDBRANCH   6   8
ENDBRANCH   1   2
BRANCH   1  17
ATOM     17  N   UNL     1      47.119   4.864  15.644  0.00  0.00    +0.000 N 
ATOM     18  H   UNL     1      46.444   5.510  16.035  0.00  0.00    +0.000 HD
BRANCH  17  24
ATOM     19  C   UNL     1      49.160   5.861  16.614  0.00  0.00    +0.000 A 
ATOM     20  C   UNL     1      50.330   5.618  17.338  0.00  0.00    +0.000 A 
ATOM     21  C   UNL     1      50.636   4.327  17.768  0.00  0.00    +0.000 A 
ATOM     22  C   UNL     1      49.745   3.323  17.441  0.00  0.00    +0.000 A 
ATOM     23  N   UNL     1      48.603   3.520  16.733  0.00  0.00    +0.000 NA
ATOM     24  C   UNL     1      48.305   4.777  16.327  0.00  0.00    +0.000 A 
BRANCH  21  25
ATOM     25  C   UNL     1      51.879   4.121  18.550  0.00  0.00    +0.000 C 
ATOM     26  N   UNL     1      51.817   4.102  19.914  0.00  0.00    +0.000 N 
ATOM     27  O   UNL     1      52.959   3.972  17.987  0.00  0.00    +0.000 OA
ATOM     28  H   UNL     1      50.993   4.244  20.475  0.00  0.00    +0.000 HD
ATOM     29  H   UNL     1      52.697   3.974  20.398  0.00  0.00    +0.000 HD
ENDBRANCH  21  25
BRANCH  19  31
ATOM     30  C   UNL     1      49.463   7.691  15.112  0.00  0.00    +0.000 C 
ATOM     31  O   UNL     1      48.786   7.120  16.224  0.00  0.00    +0.000 OA
ENDBRANCH  19  31
ENDBRANCH  17  24
ENDBRANCH   1  17
TORSDOF 7
ENDMDL
MODEL 5
REMARK VINA RESULT:    -6.913      4.454      8.864
REMARK INTER + INTRA:         -10.686
REMARK INTER:                  -9.903
REMARK INTRA:                  -0.783
REMARK UNBOUND:                -0.945
REMARK  Name = 
REMARK  10 active torsions:
REMARK  status: ('A' for Active; 'I' for Inactive)
REMARK    1  A    between atoms: C_1  and  O_2
REMARK    2  A    between atoms: O_2  and  C_3
REMARK    3  A    between atoms: C_5  and  C_6
REMARK    4  A    between atoms: C_11  and  N_12
REMARK    5  A    between atoms: N_12  and  C_13
REMARK    6  A    between atoms: C_13  and  C_14
REMARK    7  A    between atoms: C_18  and  C_19
REMARK    8  A    between atoms: N_22  and  C_23
REMARK    9  A    between atoms: C_23  and  C_24
REMARK   10  A    between atoms: C_23  and  C_25
REMARK                            x       y       z     vdW  Elec       q    Type
REMARK                         _______ _______ _______ _____ _____    ______ ____
ROOT
ATOM      1  C   UNL     1      47.335   3.635  14.178  0.00  0.00    +0.000 C 
ENDROOT
BRANCH   1   2
ATOM      2  C   UNL     1      46.397   4.476  13.355  0.00  0.00    +0.000 A 
ATOM      3  C   UNL     1      46.276   5.846  13.598  0.00  0.00    +0.000 A 
ATOM      4  C   UNL     1      45.465   6.626  12.782  0.00  0.00    +0.000 A 
ATOM      5  C   UNL     1      44.760   6.040  11.728  0.00  0.00    +0.000 A 
ATOM      6  C   UNL     1      44.829   4.662  11.486  0.00  0.00    +0.000 A 
ATOM      7  C   UNL     1      45.654   3.891  12.320  0.00  0.00    +0.000 A 
BRANCH   6   8
ATOM      8  C   UNL     1      44.039   3.951  10.395  0.00  0.00    +0.000 C 
ATOM      9  C   UNL     1      44.311   2.453  10.263  0.00  0.00    +0.000 C 
ATOM     10  C   UNL     1      45.533   2.108   9.413  0.00  0.00    +0.000 C 
ATOM     11  N   UNL     1      45.553   2.785   8.102  0.00  0.00    +0.000 NA
ATOM     12  C   UNL     1      45.405   4.244   8.256  0.00  0.00    +0.000 C 
ATOM     13  C   UNL     1      44.154   4.641   9.037  0.00  0.00    +0.000 C 
BRANCH  11  14
ATOM     14  C   UNL     1      46.779   2.435   7.331  0.00  0.00    +0.000 C 
ATOM     15  C   UNL     1      47.053   0.921   7.340  0.00  0.00    +0.000 C 
ATOM     16  C   UNL     1      46.700   2.874   5.859  0.00  0.00    +0.000 C 
ENDBRANCH  11  14
ENDBRANCH   6   8
ENDBRANCH   1   2
BRANCH   1  17
ATOM     17  N   UNL     1      46.919   3.588  15.553  0.00  0.00    +0.000 N 
ATOM     18  H   UNL     1      46.053   3.125  15.804  0.00  0.00    +0.000 HD
BRANCH  17  24
ATOM     19  C   UNL     1      48.799   3.297  17.128  0.00  0.00    +0.000 A 
ATOM     20  C   UNL     1      49.498   3.851  18.204  0.00  0.00    +0.000 A 
ATOM     21  C   UNL     1      49.102   5.073  18.747  0.00  0.00    +0.000 A 
ATOM     22  C   UNL     1      48.001   5.689  18.183  0.00  0.00    +0.000 A 
ATOM     23  N   UNL     1      47.292   5.177  17.142  0.00  0.00    +0.000 NA
ATOM     24  C   UNL     1      47.688   3.997  16.612  0.00  0.00    +0.000 A 
BRANCH  21  25
ATOM     25  C   UNL     1      49.885   5.630  19.875  0.00  0.00    +0.000 C 
ATOM     26  N   UNL     1      49.561   6.859  20.373  0.00  0.00    +0.000 N 
ATOM     27  O   UNL     1      50.822   5.004  20.361  0.00  0.00    +0.000 OA
ATOM     28  H   UNL     1      48.836   7.469  20.032  0.00  0.00    +0.000 HD
ATOM     29  H   UNL     1      50.139   7.199  21.132  0.00  0.00    +0.000 HD
ENDBRANCH  21  25
BRANCH  19  31
ATOM     30  C   UNL     1      50.502   1.660  16.785  0.00  0.00    +0.000 C 
ATOM     31  O   UNL     1      49.187   2.132  16.521  0.00  0.00    +0.000 OA
ENDBRANCH  19  31
ENDBRANCH  17  24
ENDBRANCH   1  17
TORSDOF 7
ENDMDL
MODEL 6
REMARK VINA RESULT:    -6.577      2.619      4.557
REMARK INTER + INTRA:         -10.213
REMARK INTER:                  -9.019
REMARK INTRA:                  -1.194
REMARK UNBOUND:                -0.945
REMARK  Name = 
REMARK  10 active torsions:
REMARK  status: ('A' for Active; 'I' for Inactive)
REMARK    1  A    between atoms: C_1  and  O_2
REMARK    2  A    between atoms: O_2  and  C_3
REMARK    3  A    between atoms: C_5  and  C_6
REMARK    4  A    between atoms: C_11  and  N_12
REMARK    5  A    between atoms: N_12  and  C_13
REMARK    6  A    between atoms: C_13  and  C_14
REMARK    7  A    between atoms: C_18  and  C_19
REMARK    8  A    between atoms: N_22  and  C_23
REMARK    9  A    between atoms: C_23  and  C_24
REMARK   10  A    between atoms: C_23  and  C_25
REMARK                            x       y       z     vdW  Elec       q    Type
REMARK                         _______ _______ _______ _____ _____    ______ ____
ROOT
ATOM      1  C   UNL     1      47.095   4.175  15.586  0.00  0.00    +0.000 C 
ENDROOT
BRANCH   1   2
ATOM      2  C   UNL     1      48.262   4.724  16.362  0.00  0.00    +0.000 A 
ATOM      3  C   UNL     1      48.983   3.903  17.233  0.00  0.00    +0.000 A 
ATOM      4  C   UNL     1      50.105   4.399  17.885  0.00  0.00    +0.000 A 
ATOM      5  C   UNL     1      50.506   5.722  17.682  0.00  0.00    +0.000 A 
ATOM      6  C   UNL     1      49.780   6.581  16.847  0.00  0.00    +0.000 A 
ATOM      7  C   UNL     1      48.649   6.061  16.197  0.00  0.00    +0.000 A 
BRANCH   6   8
ATOM      8  C   UNL     1      50.125   8.048  16.631  0.00  0.00    +0.000 C 
ATOM      9  C   UNL     1      48.987   8.915  16.092  0.00  0.00    +0.000 C 
ATOM     10  C   UNL     1      48.827   8.870  14.573  0.00  0.00    +0.000 C 
ATOM     11  N   UNL     1      50.086   9.101  13.838  0.00  0.00    +0.000 NA
ATOM     12  C   UNL     1      51.143   8.177  14.291  0.00  0.00    +0.000 C 
ATOM     13  C   UNL     1      51.390   8.241  15.796  0.00  0.00    +0.000 C 
BRANCH  11  14
ATOM     14  C   UNL     1      49.876   9.016  12.366  0.00  0.00    +0.000 C 
ATOM     15  C   UNL     1      49.721   7.562  11.888  0.00  0.00    +0.000 C 
ATOM     16  C   UNL     1      48.626   9.783  11.899  0.00  0.00    +0.000 C 
ENDBRANCH  11  14
ENDBRANCH   6   8
ENDBRANCH   1   2
BRANCH   1  17
ATOM     17  N   UNL     1      46.590   5.145  14.654  0.00  0.00    +0.000 N 
ATOM     18  H   UNL     1      46.726   6.134  14.828  0.00  0.00    +0.000 HD
BRANCH  17  24
ATOM     19  C   UNL     1      45.874   5.751  12.369  0.00  0.00    +0.000 A 
ATOM     20  C   UNL     1      45.327   5.285  11.171  0.00  0.00    +0.000 A 
ATOM     21  C   UNL     1      44.972   3.943  11.033  0.00  0.00    +0.000 A 
ATOM     22  C   UNL     1      45.178   3.119  12.124  0.00  0.00    +0.000 A 
ATOM     23  N   UNL     1      45.700   3.538  13.306  0.00  0.00    +0.000 NA
ATOM     24  C   UNL     1      46.053   4.839  13.430  0.00  0.00    +0.000 A 
BRANCH  21  25
ATOM     25  C   UNL     1      44.414   3.491   9.737  0.00  0.00    +0.000 C 
ATOM     26  N   UNL     1      44.092   4.417   8.786  0.00  0.00    +0.000 N 
ATOM     27  O   UNL     1      44.234   2.299   9.510  0.00  0.00    +0.000 OA
ATOM     28  H   UNL     1      44.170   5.417   8.877  0.00  0.00    +0.000 HD
ATOM     29  H   UNL     1      43.700   4.055   7.925  0.00  0.00    +0.000 HD
ENDBRANCH  21  25
BRANCH  19  31
ATOM     30  C   UNL     1      45.321   8.072  12.409  0.00  0.00    +0.000 C 
ATOM     31  O   UNL     1      46.295   7.044  12.530  0.00  0.00    +0.000 OA
ENDBRANCH  19  31
ENDBRANCH  17  24
ENDBRANCH   1  17
TORSDOF 7
ENDMDL
MODEL 7
REMARK VINA RESULT:    -6.485      3.305      5.236
REMARK INTER + INTRA:         -10.084
REMARK INTER:                  -9.187
REMARK INTRA:                  -0.897
REMARK UNBOUND:                -0.945
REMARK  Name = 
REMARK  10 active torsions:
REMARK  status: ('A' for Active; 'I' for Inactive)
REMARK    1  A    between atoms: C_1  and  O_2
REMARK    2  A    between atoms: O_2  and  C_3
REMARK    3  A    between atoms: C_5  and  C_6
REMARK    4  A    between atoms: C_11  and  N_12
REMARK    5  A    between atoms: N_12  and  C_13
REMARK    6  A    between atoms: C_13  and  C_14
REMARK    7  A    between atoms: C_18  and  C_19
REMARK    8  A    between atoms: N_22  and  C_23
REMARK    9  A    between atoms: C_23  and  C_24
REMARK   10  A    between atoms: C_23  and  C_25
REMARK                            x       y       z     vdW  Elec       q    Type
REMARK                         _______ _______ _______ _____ _____    ______ ____
ROOT
ATOM      1  C   UNL     1      47.102   4.207  16.180  0.00  0.00    +0.000 C 
ENDROOT
BRANCH   1   2
ATOM      2  C   UNL     1      48.474   3.908  16.723  0.00  0.00    +0.000 A 
ATOM      3  C   UNL     1      48.884   2.588  16.924  0.00  0.00    +0.000 A 
ATOM      4  C   UNL     1      50.179   2.322  17.352  0.00  0.00    +0.000 A 
ATOM      5  C   UNL     1      51.067   3.373  17.595  0.00  0.00    +0.000 A 
ATOM      6  C   UNL     1      50.672   4.708  17.443  0.00  0.00    +0.000 A 
ATOM      7  C   UNL     1      49.360   4.957  17.009  0.00  0.00    +0.000 A 
BRANCH   6   8
ATOM      8  C   UNL     1      51.568   5.899  17.751  0.00  0.00    +0.000 C 
ATOM      9  C   UNL     1      50.959   6.954  18.675  0.00  0.00    +0.000 C 
ATOM     10  C   UNL     1      50.074   7.977  17.964  0.00  0.00    +0.000 C 
ATOM     11  N   UNL     1      50.708   8.588  16.780  0.00  0.00    +0.000 NA
ATOM     12  C   UNL     1      51.189   7.556  15.843  0.00  0.00    +0.000 C 
ATOM     13  C   UNL     1      52.137   6.552  16.492  0.00  0.00    +0.000 C 
BRANCH  11  14
ATOM     14  C   UNL     1      49.790   9.553  16.113  0.00  0.00    +0.000 C 
ATOM     15  C   UNL     1      50.400  10.133  14.825  0.00  0.00    +0.000 C 
ATOM     16  C   UNL     1      48.440   8.921  15.732  0.00  0.00    +0.000 C 
ENDBRANCH  11  14
ENDBRANCH   6   8
ENDBRANCH   1   2
BRANCH   1  17
ATOM     17  N   UNL     1      47.175   5.084  15.043  0.00  0.00    +0.000 N 
ATOM     18  H   UNL     1      47.853   5.835  15.025  0.00  0.00    +0.000 HD
BRANCH  17  24
ATOM     19  C   UNL     1      46.150   5.912  12.953  0.00  0.00    +0.000 A 
ATOM     20  C   UNL     1      45.456   5.562  11.792  0.00  0.00    +0.000 A 
ATOM     21  C   UNL     1      45.108   4.233  11.553  0.00  0.00    +0.000 A 
ATOM     22  C   UNL     1      45.471   3.302  12.508  0.00  0.00    +0.000 A 
ATOM     23  N   UNL     1      46.138   3.606  13.652  0.00  0.00    +0.000 NA
ATOM     24  C   UNL     1      46.484   4.896  13.873  0.00  0.00    +0.000 A 
BRANCH  21  25
ATOM     25  C   UNL     1      44.389   3.907  10.299  0.00  0.00    +0.000 C 
ATOM     26  N   UNL     1      44.455   4.772   9.244  0.00  0.00    +0.000 N 
ATOM     27  O   UNL     1      43.732   2.875  10.199  0.00  0.00    +0.000 OA
ATOM     28  H   UNL     1      44.937   5.656   9.228  0.00  0.00    +0.000 HD
ATOM     29  H   UNL     1      43.933   4.509   8.418  0.00  0.00    +0.000 HD
ENDBRANCH  21  25
BRANCH  19  31
ATOM     30  C   UNL     1      45.661   8.247  12.910  0.00  0.00    +0.000 C 
ATOM     31  O   UNL     1      46.568   7.192  13.202  0.00  0.00    +0.000 OA
ENDBRANCH  19  31
ENDBRANCH  17  24
ENDBRANCH   1  17
TORSDOF 7
ENDMDL
MODEL 8
REMARK VINA RESULT:    -6.413      2.783      4.638
REMARK INTER + INTRA:          -9.982
REMARK INTER:                  -8.709
REMARK INTRA:                  -1.272
REMARK UNBOUND:                -0.945
REMARK  Name = 
REMARK  10 active torsions:
REMARK  status: ('A' for Active; 'I' for Inactive)
REMARK    1  A    between atoms: C_1  and  O_2
REMARK    2  A    between atoms: O_2  and  C_3
REMARK    3  A    between atoms: C_5  and  C_6
REMARK    4  A    between atoms: C_11  and  N_12
REMARK    5  A    between atoms: N_12  and  C_13
REMARK    6  A    between atoms: C_13  and  C_14
REMARK    7  A    between atoms: C_18  and  C_19
REMARK    8  A    between atoms: N_22  and  C_23
REMARK    9  A    between atoms: C_23  and  C_24
REMARK   10  A    between atoms: C_23  and  C_25
REMARK                            x       y       z     vdW  Elec       q    Type
REMARK                         _______ _______ _______ _____ _____    ______ ____
ROOT
ATOM      1  C   UNL     1      46.327   8.613  12.554  0.00  0.00    +0.000 C 
ENDROOT
BRANCH   1   2
ATOM      2  C   UNL     1      47.800   8.406  12.783  0.00  0.00    +0.000 A 
ATOM      3  C   UNL     1      48.649   8.111  11.713  0.00  0.00    +0.000 A 
ATOM      4  C   UNL     1      50.018   7.999  11.925  0.00  0.00    +0.000 A 
ATOM      5  C   UNL     1      50.545   8.165  13.208  0.00  0.00    +0.000 A 
ATOM      6  C   UNL     1      49.715   8.421  14.307  0.00  0.00    +0.000 A 
ATOM      7  C   UNL     1      48.335   8.531  14.073  0.00  0.00    +0.000 A 
BRANCH   6   8
ATOM      8  C   UNL     1      50.217   8.551  15.738  0.00  0.00    +0.000 C 
ATOM      9  C   UNL     1      51.462   7.727  16.071  0.00  0.00    +0.000 C 
ATOM     10  C   UNL     1      51.173   6.275  16.449  0.00  0.00    +0.000 C 
ATOM     11  N   UNL     1      50.128   6.128  17.480  0.00  0.00    +0.000 NA
ATOM     12  C   UNL     1      48.893   6.834  17.090  0.00  0.00    +0.000 C 
ATOM     13  C   UNL     1      49.120   8.310  16.774  0.00  0.00    +0.000 C 
BRANCH  11  14
ATOM     14  C   UNL     1      49.868   4.693  17.786  0.00  0.00    +0.000 C 
ATOM     15  C   UNL     1      51.128   3.830  17.611  0.00  0.00    +0.000 C 
ATOM     16  C   UNL     1      49.362   4.475  19.222  0.00  0.00    +0.000 C 
ENDBRANCH  11  14
ENDBRANCH   6   8
ENDBRANCH   1   2
BRANCH   1  17
ATOM     17  N   UNL     1      45.550   7.627  13.254  0.00  0.00    +0.000 N 
ATOM     18  H   UNL     1      45.106   7.863  14.133  0.00  0.00    +0.000 HD
BRANCH  17  24
ATOM     19  C   UNL     1      45.946   5.206  12.965  0.00  0.00    +0.000 A 
ATOM     20  C   UNL     1      45.474   4.021  12.394  0.00  0.00    +0.000 A 
ATOM     21  C   UNL     1      44.308   4.023  11.630  0.00  0.00    +0.000 A 
ATOM     22  C   UNL     1      43.661   5.233  11.465  0.00  0.00    +0.000 A 
ATOM     23  N   UNL     1      44.094   6.406  11.997  0.00  0.00    +0.000 NA
ATOM     24  C   UNL     1      45.220   6.396  12.747  0.00  0.00    +0.000 A 
BRANCH  21  25
ATOM     25  C   UNL     1      43.836   2.738  11.062  0.00  0.00    +0.000 C 
ATOM     26  N   UNL     1      44.463   2.220   9.965  0.00  0.00    +0.000 N 
ATOM     27  O   UNL     1      42.888   2.138  11.560  0.00  0.00    +0.000 OA
ATOM     28  H   UNL     1      45.226   2.641   9.460  0.00  0.00    +0.000 HD
ATOM     29  H   UNL     1      44.090   1.349   9.607  0.00  0.00    +0.000 HD
ENDBRANCH  21  25
BRANCH  19  31
ATOM     30  C   UNL     1      47.022   4.465  14.962  0.00  0.00    +0.000 C 
ATOM     31  O   UNL     1      47.051   5.244  13.773  0.00  0.00    +0.000 OA
ENDBRANCH  19  31
ENDBRANCH  17  24
ENDBRANCH   1  17
TORSDOF 7
ENDMDL
MODEL 9
REMARK VINA RESULT:    -6.346      3.139      4.746
REMARK INTER + INTRA:          -9.887
REMARK INTER:                  -8.782
REMARK INTRA:                  -1.105
REMARK UNBOUND:                -0.945
REMARK  Name = 
REMARK  10 active torsions:
REMARK  status: ('A' for Active; 'I' for Inactive)
REMARK    1  A    between atoms: C_1  and  O_2
REMARK    2  A    between atoms: O_2  and  C_3
REMARK    3  A    between atoms: C_5  and  C_6
REMARK    4  A    between atoms: C_11  and  N_12
REMARK    5  A    between atoms: N_12  and  C_13
REMARK    6  A    between atoms: C_13  and  C_14
REMARK    7  A    between atoms: C_18  and  C_19
REMARK    8  A    between atoms: N_22  and  C_23
REMARK    9  A    between atoms: C_23  and  C_24
REMARK   10  A    between atoms: C_23  and  C_25
REMARK                            x       y       z     vdW  Elec       q    Type
REMARK                         _______ _______ _______ _____ _____    ______ ____
ROOT
ATOM      1  C   UNL     1      46.671   7.952  13.176  0.00  0.00    +0.000 C 
ENDROOT
BRANCH   1   2
ATOM      2  C   UNL     1      48.078   7.819  13.694  0.00  0.00    +0.000 A 
ATOM      3  C   UNL     1      49.166   7.919  12.823  0.00  0.00    +0.000 A 
ATOM      4  C   UNL     1      50.461   7.873  13.324  0.00  0.00    +0.000 A 
ATOM      5  C   UNL     1      50.678   7.712  14.695  0.00  0.00    +0.000 A 
ATOM      6  C   UNL     1      49.608   7.568  15.587  0.00  0.00    +0.000 A 
ATOM      7  C   UNL     1      48.306   7.618  15.063  0.00  0.00    +0.000 A 
BRANCH   6   8
ATOM      8  C   UNL     1      49.775   7.328  17.082  0.00  0.00    +0.000 C 
ATOM      9  C   UNL     1      50.897   6.364  17.467  0.00  0.00    +0.000 C 
ATOM     10  C   UNL     1      50.506   4.888  17.412  0.00  0.00    +0.000 C 
ATOM     11  N   UNL     1      49.252   4.581  18.126  0.00  0.00    +0.000 NA
ATOM     12  C   UNL     1      48.150   5.443  17.661  0.00  0.00    +0.000 C 
ATOM     13  C   UNL     1      48.468   6.933  17.767  0.00  0.00    +0.000 C 
BRANCH  11  14
ATOM     14  C   UNL     1      48.906   3.137  18.014  0.00  0.00    +0.000 C 
ATOM     15  C   UNL     1      47.484   2.926  17.465  0.00  0.00    +0.000 C 
ATOM     16  C   UNL     1      49.868   2.365  17.094  0.00  0.00    +0.000 C 
ENDBRANCH  11  14
ENDBRANCH   6   8
ENDBRANCH   1   2
BRANCH   1  17
ATOM     17  N   UNL     1      45.985   6.689  13.211  0.00  0.00    +0.000 N 
ATOM     18  H   UNL     1      45.540   6.378  14.066  0.00  0.00    +0.000 HD
BRANCH  17  24
ATOM     19  C   UNL     1      45.042   4.683  12.122  0.00  0.00    +0.000 A 
ATOM     20  C   UNL     1      44.857   4.007  10.914  0.00  0.00    +0.000 A 
ATOM     21  C   UNL     1      45.352   4.541   9.725  0.00  0.00    +0.000 A 
ATOM     22  C   UNL     1      46.028   5.744   9.805  0.00  0.00    +0.000 A 
ATOM     23  N   UNL     1      46.234   6.426  10.962  0.00  0.00    +0.000 NA
ATOM     24  C   UNL     1      45.741   5.908  12.111  0.00  0.00    +0.000 A 
BRANCH  21  25
ATOM     25  C   UNL     1      45.114   3.798   8.464  0.00  0.00    +0.000 C 
ATOM     26  N   UNL     1      44.254   2.738   8.464  0.00  0.00    +0.000 N 
ATOM     27  O   UNL     1      45.684   4.120   7.426  0.00  0.00    +0.000 OA
ATOM     28  H   UNL     1      43.760   2.371   9.261  0.00  0.00    +0.000 HD
ATOM     29  H   UNL     1      44.140   2.255   7.580  0.00  0.00    +0.000 HD
ENDBRANCH  21  25
BRANCH  19  31
ATOM     30  C   UNL     1      43.108   4.273  13.461  0.00  0.00    +0.000 C 
ATOM     31  O   UNL     1      44.521   4.229  13.305  0.00  0.00    +0.000 OA
ENDBRANCH  19  31
ENDBRANCH  17  24
ENDBRANCH   1  17
TORSDOF 7
ENDMDL
