MODEL 1
REMARK VINA RESULT:    -7.889      0.000      0.000
REMARK INTER + INTRA:         -10.449
REMARK INTER:                  -9.733
REMARK INTRA:                  -0.715
REMARK UNBOUND:                -0.715
REMARK  Name = 
REMARK  4 active torsions:
REMARK  status: ('A' for Active; 'I' for Inactive)
REMARK    1  A    between atoms: C_2  and  C_3
REMARK    2  A    between atoms: C_11  and  C_12
REMARK    3  A    between atoms: C_12  and  N_13
REMARK    4  A    between atoms: C_17  and  C_18
REMARK                            x       y       z     vdW  Elec       q    Type
REMARK                         _______ _______ _______ _____ _____    ______ ____
ROOT
ATOM      1  C   UNL     1      44.080   4.889  11.694  0.00  0.00    +0.000 C 
ATOM      2  C   UNL     1      43.262   6.093  11.259  0.00  0.00    +0.000 C 
ATOM      3  C   UNL     1      42.654   5.138  12.233  0.00  0.00    +0.000 C 
ENDROOT
BRANCH   1  12
ATOM      4  C   UNL     1      48.831  10.214  12.793  0.00  0.00    +0.000 C 
ATOM      5  C   UNL     1      49.210   9.216  13.896  0.00  0.00    +0.000 C 
ATOM      6  C   UNL     1      49.112   7.769  13.412  0.00  0.00    +0.000 C 
ATOM      7  N   UNL     1      47.794   7.591  12.850  0.00  0.00    +0.000 N 
ATOM      8  C   UNL     1      47.070   6.464  13.147  0.00  0.00    +0.000 A 
ATOM      9  N   UNL     1      47.536   5.592  14.053  0.00  0.00    +0.000 NA
ATOM     10  C   UNL     1      46.798   4.496  14.284  0.00  0.00    +0.000 A 
ATOM     11  C   UNL     1      45.636   4.217  13.615  0.00  0.00    +0.000 A 
ATOM     12  C   UNL     1      45.240   5.137  12.661  0.00  0.00    +0.000 A 
ATOM     13  N   UNL     1      45.924   6.281  12.497  0.00  0.00    +0.000 NA
ATOM     14  C   UNL     1      47.422   8.403  11.703  0.00  0.00    +0.000 C 
ATOM     15  C   UNL     1      47.484   9.865  12.144  0.00  0.00    +0.000 C 
BRANCH   4  17
ATOM     16  N   UNL     1      50.725  10.358  10.972  0.00  0.00    +0.000 NA
ATOM     17  C   UNL     1      49.896  10.290  11.773  0.00  0.00    +0.000 C 
ENDBRANCH   4  17
ENDBRANCH   1  12
BRANCH   1  18
ATOM     18  N   UNL     1      44.192   3.656  10.920  0.00  0.00    +0.000 N 
ATOM     19  C   UNL     1      44.993   3.405   9.818  0.00  0.00    +0.000 A 
ATOM     20  C   UNL     1      45.680   4.388   9.120  0.00  0.00    +0.000 A 
ATOM     21  C   UNL     1      46.394   4.039   7.970  0.00  0.00    +0.000 A 
ATOM     22  C   UNL     1      46.408   2.714   7.533  0.00  0.00    +0.000 A 
ATOM     23  C   UNL     1      45.716   1.797   8.302  0.00  0.00    +0.000 A 
ATOM     24  N   UNL     1      45.017   2.115   9.421  0.00  0.00    +0.000 NA
ATOM     25  H   UNL     1      43.904   2.782  11.348  0.00  0.00    +0.000 HD
BRANCH  22  26
ATOM     26  C   UNL     1      47.145   2.359   6.298  0.00  0.00    +0.000 C 
ATOM     27  N   UNL     1      47.060   3.186   5.212  0.00  0.00    +0.000 N 
ATOM     28  O   UNL     1      47.833   1.345   6.243  0.00  0.00    +0.000 OA
ATOM     29  H   UNL     1      46.556   4.057   5.164  0.00  0.00    +0.000 HD
ATOM     30  H   UNL     1      47.597   2.915   4.398  0.00  0.00    +0.000 HD
ENDBRANCH  22  26
ENDBRANCH   1  18
TORSDOF 4
ENDMDL
MODEL 2
REMARK VINA RESULT:    -7.592      1.926      3.889
REMARK INTER + INTRA:         -10.082
REMARK INTER:                  -9.755
REMARK INTRA:                  -0.327
REMARK UNBOUND:                -0.715
REMARK  Name = 
REMARK  4 active torsions:
REMARK  status: ('A' for Active; 'I' for Inactive)
REMARK    1  A    between atoms: C_2  and  C_3
REMARK    2  A    between atoms: C_11  and  C_12
REMARK    3  A    between atoms: C_12  and  N_13
REMARK    4  A    between atoms: C_17  and  C_18
REMARK                            x       y       z     vdW  Elec       q    Type
REMARK                         _______ _______ _______ _____ _____    ______ ____
ROOT
ATOM      1  C   UNL     1      44.263   4.999  11.613  0.00  0.00    +0.000 C 
ATOM      2  C   UNL     1      43.037   5.874  11.413  0.00  0.00    +0.000 C 
ATOM      3  C   UNL     1      43.077   4.972  12.601  0.00  0.00    +0.000 C 
ENDROOT
BRANCH   1  12
ATOM      4  C   UNL     1      48.904   4.037  17.061  0.00  0.00    +0.000 C 
ATOM      5  C   UNL     1      49.537   5.216  16.307  0.00  0.00    +0.000 C 
ATOM      6  C   UNL     1      48.480   6.187  15.781  0.00  0.00    +0.000 C 
ATOM      7  N   UNL     1      47.524   5.416  15.022  0.00  0.00    +0.000 N 
ATOM      8  C   UNL     1      47.080   5.879  13.810  0.00  0.00    +0.000 A 
ATOM      9  N   UNL     1      47.624   6.983  13.277  0.00  0.00    +0.000 NA
ATOM     10  C   UNL     1      47.132   7.403  12.103  0.00  0.00    +0.000 A 
ATOM     11  C   UNL     1      46.090   6.788  11.461  0.00  0.00    +0.000 A 
ATOM     12  C   UNL     1      45.546   5.683  12.090  0.00  0.00    +0.000 A 
ATOM     13  N   UNL     1      46.099   5.204  13.216  0.00  0.00    +0.000 NA
ATOM     14  C   UNL     1      46.778   4.378  15.713  0.00  0.00    +0.000 C 
ATOM     15  C   UNL     1      47.792   3.365  16.242  0.00  0.00    +0.000 C 
BRANCH   4  17
ATOM     16  N   UNL     1      47.991   4.830  19.398  0.00  0.00    +0.000 NA
ATOM     17  C   UNL     1      48.389   4.477  18.374  0.00  0.00    +0.000 C 
ENDBRANCH   4  17
ENDBRANCH   1  12
BRANCH   1  18
ATOM     18  N   UNL     1      44.474   3.723  10.936  0.00  0.00    +0.000 N 
ATOM     19  C   UNL     1      45.211   3.470   9.791  0.00  0.00    +0.000 A 
ATOM     20  C   UNL     1      45.706   4.461   8.955  0.00  0.00    +0.000 A 
ATOM     21  C   UNL     1      46.365   4.098   7.777  0.00  0.00    +0.000 A 
ATOM     22  C   UNL     1      46.518   2.750   7.452  0.00  0.00    +0.000 A 
ATOM     23  C   UNL     1      46.016   1.830   8.353  0.00  0.00    +0.000 A 
ATOM     24  N   UNL     1      45.373   2.162   9.501  0.00  0.00    +0.000 NA
ATOM     25  H   UNL     1      44.338   2.864  11.459  0.00  0.00    +0.000 HD
BRANCH  22  26
ATOM     26  C   UNL     1      47.196   2.375   6.188  0.00  0.00    +0.000 C 
ATOM     27  N   UNL     1      46.981   3.131   5.069  0.00  0.00    +0.000 N 
ATOM     28  O   UNL     1      47.947   1.407   6.139  0.00  0.00    +0.000 OA
ATOM     29  H   UNL     1      46.415   3.963   5.011  0.00  0.00    +0.000 HD
ATOM     30  H   UNL     1      47.480   2.851   4.235  0.00  0.00    +0.000 HD
ENDBRANCH  22  26
ENDBRANCH   1  18
TORSDOF 4
ENDMDL
MODEL 3
REMARK VINA RESULT:    -6.991      4.835      8.512
REMARK INTER + INTRA:          -9.341
REMARK INTER:                  -9.104
REMARK INTRA:                  -0.237
REMARK UNBOUND:                -0.715
REMARK  Name = 
REMARK  4 active torsions:
REMARK  status: ('A' for Active; 'I' for Inactive)
REMARK    1  A    between atoms: C_2  and  C_3
REMARK    2  A    between atoms: C_11  and  C_12
REMARK    3  A    between atoms: C_12  and  N_13
REMARK    4  A    between atoms: C_17  and  C_18
REMARK                            x       y       z     vdW  Elec       q    Type
REMARK                         _______ _______ _______ _____ _____    ______ ____
ROOT
ATOM      1  C   UNL     1      48.208   4.637  16.837  0.00  0.00    +0.000 C 
ATOM      2  C   UNL     1      47.229   3.504  17.101  0.00  0.00    +0.000 C 
ATOM      3  C   UNL     1      47.150   4.724  17.959  0.00  0.00    +0.000 C 
ENDROOT
BRANCH   1  12
ATOM      4  C   UNL     1      43.801   4.343  11.124  0.00  0.00    +0.000 C 
ATOM      5  C   UNL     1      44.569   5.648  10.869  0.00  0.00    +0.000 C 
ATOM      6  C   UNL     1      46.041   5.529  11.263  0.00  0.00    +0.000 C 
ATOM      7  N   UNL     1      46.086   5.047  12.623  0.00  0.00    +0.000 N 
ATOM      8  C   UNL     1      46.950   5.619  13.523  0.00  0.00    +0.000 A 
ATOM      9  N   UNL     1      47.660   6.700  13.171  0.00  0.00    +0.000 NA
ATOM     10  C   UNL     1      48.506   7.200  14.083  0.00  0.00    +0.000 A 
ATOM     11  C   UNL     1      48.702   6.637  15.316  0.00  0.00    +0.000 A 
ATOM     12  C   UNL     1      47.971   5.497  15.594  0.00  0.00    +0.000 A 
ATOM     13  N   UNL     1      47.053   5.051  14.721  0.00  0.00    +0.000 NA
ATOM     14  C   UNL     1      45.507   3.745  12.909  0.00  0.00    +0.000 C 
ATOM     15  C   UNL     1      44.024   3.819  12.550  0.00  0.00    +0.000 C 
BRANCH   4  17
ATOM     16  N   UNL     1      44.466   2.509   9.359  0.00  0.00    +0.000 NA
ATOM     17  C   UNL     1      44.175   3.318  10.129  0.00  0.00    +0.000 C 
ENDBRANCH   4  17
ENDBRANCH   1  12
BRANCH   1  18
ATOM     18  N   UNL     1      49.579   4.663  17.339  0.00  0.00    +0.000 N 
ATOM     19  C   UNL     1      50.490   3.622  17.403  0.00  0.00    +0.000 A 
ATOM     20  C   UNL     1      50.159   2.291  17.193  0.00  0.00    +0.000 A 
ATOM     21  C   UNL     1      51.137   1.307  17.364  0.00  0.00    +0.000 A 
ATOM     22  C   UNL     1      52.430   1.669  17.746  0.00  0.00    +0.000 A 
ATOM     23  C   UNL     1      52.677   3.019  17.912  0.00  0.00    +0.000 A 
ATOM     24  N   UNL     1      51.742   3.989  17.750  0.00  0.00    +0.000 NA
ATOM     25  H   UNL     1      50.063   5.554  17.390  0.00  0.00    +0.000 HD
BRANCH  22  26
ATOM     26  C   UNL     1      53.452   0.616  17.952  0.00  0.00    +0.000 C 
ATOM     27  N   UNL     1      53.069  -0.594  18.460  0.00  0.00    +0.000 N 
ATOM     28  O   UNL     1      54.628   0.815  17.664  0.00  0.00    +0.000 OA
ATOM     29  H   UNL     1      52.128  -0.871  18.694  0.00  0.00    +0.000 HD
ATOM     30  H   UNL     1      53.796  -1.289  18.564  0.00  0.00    +0.000 HD
ENDBRANCH  22  26
ENDBRANCH   1  18
TORSDOF 4
ENDMDL
MODEL 4
REMARK VINA RESULT:    -6.275      4.096      8.609
REMARK INTER + INTRA:          -8.458
REMARK INTER:                  -7.874
REMARK INTRA:                  -0.584
REMARK UNBOUND:                -0.715
REMARK  Name = 
REMARK  4 active torsions:
REMARK  status: ('A' for Active; 'I' for Inactive)
REMARK    1  A    between atoms: C_2  and  C_3
REMARK    2  A    between atoms: C_11  and  C_12
REMARK    3  A    between atoms: C_12  and  N_13
REMARK    4  A    between atoms: C_17  and  C_18
REMARK                            x       y       z     vdW  Elec       q    Type
REMARK                         _______ _______ _______ _____ _____    ______ ____
ROOT
ATOM      1  C   UNL     1      48.735   7.899  14.050  0.00  0.00    +0.000 C 
ATOM      2  C   UNL     1      49.471   9.199  14.329  0.00  0.00    +0.000 C 
ATOM      3  C   UNL     1      49.906   8.375  13.162  0.00  0.00    +0.000 C 
ENDROOT
BRANCH   1  12
ATOM      4  C   UNL     1      43.830   3.208  11.584  0.00  0.00    +0.000 C 
ATOM      5  C   UNL     1      43.100   4.549  11.421  0.00  0.00    +0.000 C 
ATOM      6  C   UNL     1      44.044   5.659  10.959  0.00  0.00    +0.000 C 
ATOM      7  N   UNL     1      45.165   5.678  11.870  0.00  0.00    +0.000 N 
ATOM      8  C   UNL     1      45.640   6.874  12.345  0.00  0.00    +0.000 A 
ATOM      9  N   UNL     1      44.989   8.010  12.060  0.00  0.00    +0.000 NA
ATOM     10  C   UNL     1      45.514   9.151  12.530  0.00  0.00    +0.000 A 
ATOM     11  C   UNL     1      46.687   9.205  13.236  0.00  0.00    +0.000 A 
ATOM     12  C   UNL     1      47.329   7.999  13.453  0.00  0.00    +0.000 A 
ATOM     13  N   UNL     1      46.756   6.847  13.068  0.00  0.00    +0.000 NA
ATOM     14  C   UNL     1      45.992   4.486  11.964  0.00  0.00    +0.000 C 
ATOM     15  C   UNL     1      45.094   3.347  12.444  0.00  0.00    +0.000 C 
BRANCH   4  17
ATOM     16  N   UNL     1      44.419   2.173   9.238  0.00  0.00    +0.000 NA
ATOM     17  C   UNL     1      44.159   2.632  10.264  0.00  0.00    +0.000 C 
ENDBRANCH   4  17
ENDBRANCH   1  12
BRANCH   1  18
ATOM     18  N   UNL     1      49.012   6.641  14.737  0.00  0.00    +0.000 N 
ATOM     19  C   UNL     1      48.800   6.327  16.069  0.00  0.00    +0.000 A 
ATOM     20  C   UNL     1      48.481   7.262  17.044  0.00  0.00    +0.000 A 
ATOM     21  C   UNL     1      48.371   6.853  18.376  0.00  0.00    +0.000 A 
ATOM     22  C   UNL     1      48.585   5.516  18.714  0.00  0.00    +0.000 A 
ATOM     23  C   UNL     1      48.875   4.649  17.677  0.00  0.00    +0.000 A 
ATOM     24  N   UNL     1      48.986   5.026  16.378  0.00  0.00    +0.000 NA
ATOM     25  H   UNL     1      49.095   5.792  14.187  0.00  0.00    +0.000 HD
BRANCH  22  26
ATOM     26  C   UNL     1      48.492   5.097  20.132  0.00  0.00    +0.000 C 
ATOM     27  N   UNL     1      48.588   3.768  20.441  0.00  0.00    +0.000 N 
ATOM     28  O   UNL     1      48.341   5.924  21.025  0.00  0.00    +0.000 OA
ATOM     29  H   UNL     1      48.748   3.015  19.790  0.00  0.00    +0.000 HD
ATOM     30  H   UNL     1      48.540   3.530  21.423  0.00  0.00    +0.000 HD
ENDBRANCH  22  26
ENDBRANCH   1  18
TORSDOF 4
ENDMDL
MODEL 5
REMARK VINA RESULT:    -6.245      3.240      6.028
REMARK INTER + INTRA:          -8.420
REMARK INTER:                  -8.008
REMARK INTRA:                  -0.413
REMARK UNBOUND:                -0.715
REMARK  Name = 
REMARK  4 active torsions:
REMARK  status: ('A' for Active; 'I' for Inactive)
REMARK    1  A    between atoms: C_2  and  C_3
REMARK    2  A    between atoms: C_11  and  C_12
REMARK    3  A    between atoms: C_12  and  N_13
REMARK    4  A    between atoms: C_17  and  C_18
REMARK                            x       y       z     vdW  Elec       q    Type
REMARK                         _______ _______ _______ _____ _____    ______ ____
ROOT
ATOM      1  C   UNL     1      47.698   8.538  13.019  0.00  0.00    +0.000 C 
ATOM      2  C   UNL     1      47.850   9.363  11.752  0.00  0.00    +0.000 C 
ATOM      3  C   UNL     1      47.422  10.057  13.002  0.00  0.00    +0.000 C 
ENDROOT
BRANCH   1  12
ATOM      4  C   UNL     1      49.341   3.684  18.107  0.00  0.00    +0.000 C 
ATOM      5  C   UNL     1      50.723   4.251  17.748  0.00  0.00    +0.000 C 
ATOM      6  C   UNL     1      50.671   5.756  17.491  0.00  0.00    +0.000 C 
ATOM      7  N   UNL     1      49.638   5.991  16.509  0.00  0.00    +0.000 N 
ATOM      8  C   UNL     1      49.867   6.856  15.469  0.00  0.00    +0.000 A 
ATOM      9  N   UNL     1      51.086   7.384  15.297  0.00  0.00    +0.000 NA
ATOM     10  C   UNL     1      51.245   8.242  14.279  0.00  0.00    +0.000 A 
ATOM     11  C   UNL     1      50.222   8.625  13.452  0.00  0.00    +0.000 A 
ATOM     12  C   UNL     1      48.980   8.076  13.716  0.00  0.00    +0.000 A 
ATOM     13  N   UNL     1      48.841   7.144  14.674  0.00  0.00    +0.000 NA
ATOM     14  C   UNL     1      48.275   5.615  16.845  0.00  0.00    +0.000 C 
ATOM     15  C   UNL     1      48.269   4.107  17.092  0.00  0.00    +0.000 C 
BRANCH   4  17
ATOM     16  N   UNL     1      48.660   4.408  20.544  0.00  0.00    +0.000 NA
ATOM     17  C   UNL     1      48.953   4.091  19.473  0.00  0.00    +0.000 C 
ENDBRANCH   4  17
ENDBRANCH   1  12
BRANCH   1  18
ATOM     18  N   UNL     1      46.516   7.744  13.339  0.00  0.00    +0.000 N 
ATOM     19  C   UNL     1      45.967   6.695  12.620  0.00  0.00    +0.000 A 
ATOM     20  C   UNL     1      46.342   6.363  11.326  0.00  0.00    +0.000 A 
ATOM     21  C   UNL     1      45.666   5.339  10.657  0.00  0.00    +0.000 A 
ATOM     22  C   UNL     1      44.622   4.664  11.292  0.00  0.00    +0.000 A 
ATOM     23  C   UNL     1      44.330   5.044  12.588  0.00  0.00    +0.000 A 
ATOM     24  N   UNL     1      44.975   6.035  13.255  0.00  0.00    +0.000 NA
ATOM     25  H   UNL     1      46.192   7.715  14.301  0.00  0.00    +0.000 HD
BRANCH  22  26
ATOM     26  C   UNL     1      43.893   3.598  10.565  0.00  0.00    +0.000 C 
ATOM     27  N   UNL     1      44.145   3.408   9.234  0.00  0.00    +0.000 N 
ATOM     28  O   UNL     1      43.081   2.883  11.142  0.00  0.00    +0.000 OA
ATOM     29  H   UNL     1      44.816   3.913   8.677  0.00  0.00    +0.000 HD
ATOM     30  H   UNL     1      43.640   2.656   8.784  0.00  0.00    +0.000 HD
ENDBRANCH  22  26
ENDBRANCH   1  18
TORSDOF 4
ENDMDL
MODEL 6
REMARK VINA RESULT:    -5.745      4.980      7.902
REMARK INTER + INTRA:          -7.804
REMARK INTER:                  -7.368
REMARK INTRA:                  -0.436
REMARK UNBOUND:                -0.715
REMARK  Name = 
REMARK  4 active torsions:
REMARK  status: ('A' for Active; 'I' for Inactive)
REMARK    1  A    between atoms: C_2  and  C_3
REMARK    2  A    between atoms: C_11  and  C_12
REMARK    3  A    between atoms: C_12  and  N_13
REMARK    4  A    between atoms: C_17  and  C_18
REMARK                            x       y       z     vdW  Elec       q    Type
REMARK                         _______ _______ _______ _____ _____    ______ ____
ROOT
ATOM      1  C   UNL     1      48.665   5.504  17.945  0.00  0.00    +0.000 C 
ATOM      2  C   UNL     1      47.489   5.434  18.905  0.00  0.00    +0.000 C 
ATOM      3  C   UNL     1      48.119   6.763  18.653  0.00  0.00    +0.000 C 
ENDROOT
BRANCH   1  12
ATOM      4  C   UNL     1      50.979   8.697  11.895  0.00  0.00    +0.000 C 
ATOM      5  C   UNL     1      49.995   7.652  11.349  0.00  0.00    +0.000 C 
ATOM      6  C   UNL     1      48.762   7.510  12.241  0.00  0.00    +0.000 C 
ATOM      7  N   UNL     1      49.228   7.269  13.586  0.00  0.00    +0.000 N 
ATOM      8  C   UNL     1      48.631   6.301  14.353  0.00  0.00    +0.000 A 
ATOM      9  N   UNL     1      47.702   5.500  13.813  0.00  0.00    +0.000 NA
ATOM     10  C   UNL     1      47.135   4.589  14.617  0.00  0.00    +0.000 A 
ATOM     11  C   UNL     1      47.430   4.475  15.950  0.00  0.00    +0.000 A 
ATOM     12  C   UNL     1      48.364   5.364  16.451  0.00  0.00    +0.000 A 
ATOM     13  N   UNL     1      49.002   6.212  15.628  0.00  0.00    +0.000 NA
ATOM     14  C   UNL     1      50.044   8.290  14.223  0.00  0.00    +0.000 C 
ATOM     15  C   UNL     1      51.306   8.455  13.376  0.00  0.00    +0.000 C 
BRANCH   4  17
ATOM     16  N   UNL     1      50.037  11.129  11.550  0.00  0.00    +0.000 NA
ATOM     17  C   UNL     1      50.450  10.061  11.696  0.00  0.00    +0.000 C 
ENDBRANCH   4  17
ENDBRANCH   1  12
BRANCH   1  18
ATOM     18  N   UNL     1      50.041   5.189  18.316  0.00  0.00    +0.000 N 
ATOM     19  C   UNL     1      50.761   4.038  18.045  0.00  0.00    +0.000 A 
ATOM     20  C   UNL     1      50.198   2.873  17.545  0.00  0.00    +0.000 A 
ATOM     21  C   UNL     1      50.999   1.738  17.385  0.00  0.00    +0.000 A 
ATOM     22  C   UNL     1      52.350   1.785  17.729  0.00  0.00    +0.000 A 
ATOM     23  C   UNL     1      52.833   2.993  18.197  0.00  0.00    +0.000 A 
ATOM     24  N   UNL     1      52.072   4.105  18.360  0.00  0.00    +0.000 NA
ATOM     25  H   UNL     1      50.673   5.951  18.541  0.00  0.00    +0.000 HD
BRANCH  22  26
ATOM     26  C   UNL     1      53.185   0.570  17.581  0.00  0.00    +0.000 C 
ATOM     27  N   UNL     1      52.957  -0.498  18.405  0.00  0.00    +0.000 N 
ATOM     28  O   UNL     1      54.064   0.509  16.728  0.00  0.00    +0.000 OA
ATOM     29  H   UNL     1      52.240  -0.565  19.110  0.00  0.00    +0.000 HD
ATOM     30  H   UNL     1      53.537  -1.313  18.254  0.00  0.00    +0.000 HD
ENDBRANCH  22  26
ENDBRANCH   1  18
TORSDOF 4
ENDMDL
MODEL 7
REMARK VINA RESULT:    -5.590      3.107      7.295
REMARK INTER + INTRA:          -7.613
REMARK INTER:                  -6.951
REMARK INTRA:                  -0.661
REMARK UNBOUND:                -0.715
REMARK  Name = 
REMARK  4 active torsions:
REMARK  status: ('A' for Active; 'I' for Inactive)
REMARK    1  A    between atoms: C_2  and  C_3
REMARK    2  A    between atoms: C_11  and  C_12
REMARK    3  A    between atoms: C_12  and  N_13
REMARK    4  A    between atoms: C_17  and  C_18
REMARK                            x       y       z     vdW  Elec       q    Type
REMARK                         _______ _______ _______ _____ _____    ______ ____
ROOT
ATOM      1  C   UNL     1      48.476   8.915  13.768  0.00  0.00    +0.000 C 
ATOM      2  C   UNL     1      48.720   7.788  14.758  0.00  0.00    +0.000 C 
ATOM      3  C   UNL     1      48.507   9.166  15.292  0.00  0.00    +0.000 C 
ENDROOT
BRANCH   1  12
ATOM      4  C   UNL     1      43.172   4.193  12.463  0.00  0.00    +0.000 C 
ATOM      5  C   UNL     1      42.595   5.490  11.879  0.00  0.00    +0.000 C 
ATOM      6  C   UNL     1      43.667   6.323  11.176  0.00  0.00    +0.000 C 
ATOM      7  N   UNL     1      44.755   6.501  12.108  0.00  0.00    +0.000 N 
ATOM      8  C   UNL     1      45.341   7.733  12.247  0.00  0.00    +0.000 A 
ATOM      9  N   UNL     1      44.825   8.794  11.611  0.00  0.00    +0.000 NA
ATOM     10  C   UNL     1      45.455   9.967  11.764  0.00  0.00    +0.000 A 
ATOM     11  C   UNL     1      46.605  10.114  12.493  0.00  0.00    +0.000 A 
ATOM     12  C   UNL     1      47.108   8.969  13.085  0.00  0.00    +0.000 A 
ATOM     13  N   UNL     1      46.426   7.814  13.013  0.00  0.00    +0.000 NA
ATOM     14  C   UNL     1      45.447   5.317  12.589  0.00  0.00    +0.000 C 
ATOM     15  C   UNL     1      44.418   4.456  13.321  0.00  0.00    +0.000 C 
BRANCH   4  17
ATOM     16  N   UNL     1      43.708   2.481  10.537  0.00  0.00    +0.000 NA
ATOM     17  C   UNL     1      43.476   3.229  11.386  0.00  0.00    +0.000 C 
ENDBRANCH   4  17
ENDBRANCH   1  12
BRANCH   1  18
ATOM     18  N   UNL     1      49.538   9.614  13.051  0.00  0.00    +0.000 N 
ATOM     19  C   UNL     1      50.335   9.140  12.022  0.00  0.00    +0.000 A 
ATOM     20  C   UNL     1      50.398   7.807  11.643  0.00  0.00    +0.000 A 
ATOM     21  C   UNL     1      51.299   7.419  10.648  0.00  0.00    +0.000 A 
ATOM     22  C   UNL     1      52.126   8.370  10.048  0.00  0.00    +0.000 A 
ATOM     23  C   UNL     1      51.980   9.678  10.469  0.00  0.00    +0.000 A 
ATOM     24  N   UNL     1      51.112  10.075  11.434  0.00  0.00    +0.000 NA
ATOM     25  H   UNL     1      49.547  10.630  13.060  0.00  0.00    +0.000 HD
BRANCH  22  26
ATOM     26  C   UNL     1      53.096   7.945   9.012  0.00  0.00    +0.000 C 
ATOM     27  N   UNL     1      54.428   8.181   9.212  0.00  0.00    +0.000 N 
ATOM     28  O   UNL     1      52.721   7.380   7.990  0.00  0.00    +0.000 OA
ATOM     29  H   UNL     1      54.843   8.602  10.028  0.00  0.00    +0.000 HD
ATOM     30  H   UNL     1      55.056   7.855   8.488  0.00  0.00    +0.000 HD
ENDBRANCH  22  26
ENDBRANCH   1  18
TORSDOF 4
ENDMDL
MODEL 8
REMARK VINA RESULT:    -5.588      3.944      6.889
REMARK INTER + INTRA:          -7.610
REMARK INTER:                  -7.112
REMARK INTRA:                  -0.498
REMARK UNBOUND:                -0.715
REMARK  Name = 
REMARK  4 active torsions:
REMARK  status: ('A' for Active; 'I' for Inactive)
REMARK    1  A    between atoms: C_2  and  C_3
REMARK    2  A    between atoms: C_11  and  C_12
REMARK    3  A    between atoms: C_12  and  N_13
REMARK    4  A    between atoms: C_17  and  C_18
REMARK                            x       y       z     vdW  Elec       q    Type
REMARK                         _______ _______ _______ _____ _____    ______ ____
ROOT
ATOM      1  C   UNL     1      46.197   7.311  12.134  0.00  0.00    +0.000 C 
ATOM      2  C   UNL     1      45.313   8.378  12.758  0.00  0.00    +0.000 C 
ATOM      3  C   UNL     1      44.940   7.846  11.414  0.00  0.00    +0.000 C 
ENDROOT
BRANCH   1  12
ATOM      4  C   UNL     1      48.324   4.112  18.248  0.00  0.00    +0.000 C 
ATOM      5  C   UNL     1      47.621   2.961  17.513  0.00  0.00    +0.000 C 
ATOM      6  C   UNL     1      47.898   2.993  16.010  0.00  0.00    +0.000 C 
ATOM      7  N   UNL     1      47.565   4.316  15.538  0.00  0.00    +0.000 N 
ATOM      8  C   UNL     1      46.854   4.468  14.374  0.00  0.00    +0.000 A 
ATOM      9  N   UNL     1      46.367   3.390  13.745  0.00  0.00    +0.000 NA
ATOM     10  C   UNL     1      45.703   3.597  12.598  0.00  0.00    +0.000 A 
ATOM     11  C   UNL     1      45.544   4.836  12.035  0.00  0.00    +0.000 A 
ATOM     12  C   UNL     1      46.113   5.898  12.715  0.00  0.00    +0.000 A 
ATOM     13  N   UNL     1      46.694   5.704  13.910  0.00  0.00    +0.000 NA
ATOM     14  C   UNL     1      48.300   5.444  16.085  0.00  0.00    +0.000 C 
ATOM     15  C   UNL     1      48.037   5.469  17.591  0.00  0.00    +0.000 C 
BRANCH   4  17
ATOM     16  N   UNL     1      50.914   3.669  18.376  0.00  0.00    +0.000 NA
ATOM     17  C   UNL     1      49.779   3.867  18.324  0.00  0.00    +0.000 C 
ENDBRANCH   4  17
ENDBRANCH   1  12
BRANCH   1  18
ATOM     18  N   UNL     1      47.435   7.596  11.414  0.00  0.00    +0.000 N 
ATOM     19  C   UNL     1      48.699   7.814  11.935  0.00  0.00    +0.000 A 
ATOM     20  C   UNL     1      48.957   8.017  13.283  0.00  0.00    +0.000 A 
ATOM     21  C   UNL     1      50.259   8.313  13.695  0.00  0.00    +0.000 A 
ATOM     22  C   UNL     1      51.284   8.405  12.753  0.00  0.00    +0.000 A 
ATOM     23  C   UNL     1      50.943   8.165  11.435  0.00  0.00    +0.000 A 
ATOM     24  N   UNL     1      49.685   7.876  11.015  0.00  0.00    +0.000 NA
ATOM     25  H   UNL     1      47.501   7.338  10.434  0.00  0.00    +0.000 HD
BRANCH  22  26
ATOM     26  C   UNL     1      52.656   8.745  13.196  0.00  0.00    +0.000 C 
ATOM     27  N   UNL     1      53.550   7.737  13.428  0.00  0.00    +0.000 N 
ATOM     28  O   UNL     1      52.998   9.913  13.348  0.00  0.00    +0.000 OA
ATOM     29  H   UNL     1      53.383   6.751  13.299  0.00  0.00    +0.000 HD
ATOM     30  H   UNL     1      54.481   8.016  13.709  0.00  0.00    +0.000 HD
ENDBRANCH  22  26
ENDBRANCH   1  18
TORSDOF 4
ENDMDL
MODEL 9
REMARK VINA RESULT:    -5.567      3.786      6.732
REMARK INTER + INTRA:          -7.584
REMARK INTER:                  -6.927
REMARK INTRA:                  -0.657
REMARK UNBOUND:                -0.715
REMARK  Name = 
REMARK  4 active torsions:
REMARK  status: ('A' for Active; 'I' for Inactive)
REMARK    1  A    between atoms: C_2  and  C_3
REMARK    2  A    between atoms: C_11  and  C_12
REMARK    3  A    between atoms: C_12  and  N_13
REMARK    4  A    between atoms: C_17  and  C_18
REMARK                            x       y       z     vdW  Elec       q    Type
REMARK                         _______ _______ _______ _____ _____    ______ ____
ROOT
ATOM      1  C   UNL     1      48.976   8.491  12.529  0.00  0.00    +0.000 C 
ATOM      2  C   UNL     1      50.130   7.726  11.902  0.00  0.00    +0.000 C 
ATOM      3  C   UNL     1      49.864   9.117  11.431  0.00  0.00    +0.000 C 
ENDROOT
BRANCH   1  12
ATOM      4  C   UNL     1      50.644   5.556  18.912  0.00  0.00    +0.000 C 
ATOM      5  C   UNL     1      50.528   7.046  19.266  0.00  0.00    +0.000 C 
ATOM      6  C   UNL     1      49.382   7.722  18.513  0.00  0.00    +0.000 C 
ATOM      7  N   UNL     1      49.562   7.438  17.109  0.00  0.00    +0.000 N 
ATOM      8  C   UNL     1      49.401   8.437  16.183  0.00  0.00    +0.000 A 
ATOM      9  N   UNL     1      49.199   9.698  16.590  0.00  0.00    +0.000 NA
ATOM     10  C   UNL     1      49.024  10.628  15.640  0.00  0.00    +0.000 A 
ATOM     11  C   UNL     1      48.999  10.340  14.301  0.00  0.00    +0.000 A 
ATOM     12  C   UNL     1      49.168   9.012  13.955  0.00  0.00    +0.000 A 
ATOM     13  N   UNL     1      49.440   8.095  14.898  0.00  0.00    +0.000 NA
ATOM     14  C   UNL     1      49.532   6.049  16.681  0.00  0.00    +0.000 C 
ATOM     15  C   UNL     1      50.677   5.330  17.394  0.00  0.00    +0.000 C 
BRANCH   4  17
ATOM     16  N   UNL     1      48.674   4.191  20.000  0.00  0.00    +0.000 NA
ATOM     17  C   UNL     1      49.541   4.789  19.528  0.00  0.00    +0.000 C 
ENDBRANCH   4  17
ENDBRANCH   1  12
BRANCH   1  18
ATOM     18  N   UNL     1      47.582   8.341  12.122  0.00  0.00    +0.000 N 
ATOM     19  C   UNL     1      46.713   7.299  12.401  0.00  0.00    +0.000 A 
ATOM     20  C   UNL     1      47.110   6.088  12.950  0.00  0.00    +0.000 A 
ATOM     21  C   UNL     1      46.167   5.069  13.114  0.00  0.00    +0.000 A 
ATOM     22  C   UNL     1      44.843   5.276  12.726  0.00  0.00    +0.000 A 
ATOM     23  C   UNL     1      44.531   6.520  12.211  0.00  0.00    +0.000 A 
ATOM     24  N   UNL     1      45.431   7.522  12.043  0.00  0.00    +0.000 NA
ATOM     25  H   UNL     1      47.058   9.170  11.858  0.00  0.00    +0.000 HD
BRANCH  22  26
ATOM     26  C   UNL     1      43.856   4.181  12.880  0.00  0.00    +0.000 C 
ATOM     27  N   UNL     1      44.236   2.899  12.596  0.00  0.00    +0.000 N 
ATOM     28  O   UNL     1      42.715   4.410  13.265  0.00  0.00    +0.000 OA
ATOM     29  H   UNL     1      45.155   2.599  12.309  0.00  0.00    +0.000 HD
ATOM     30  H   UNL     1      43.537   2.181  12.734  0.00  0.00    +0.000 HD
ENDBRANCH  22  26
ENDBRANCH   1  18
TORSDOF 4
ENDMDL
