MODEL 1
REMARK VINA RESULT:    -8.190      0.000      0.000
REMARK INTER + INTRA:         -12.499
REMARK INTER:                 -11.541
REMARK INTRA:                  -0.958
REMARK UNBOUND:                -0.958
REMARK  Name = 
REMARK  8 active torsions:
REMARK  status: ('A' for Active; 'I' for Inactive)
REMARK    1  A    between atoms: C_1  and  C_2
REMARK    2  A    between atoms: C_2  and  N_3
REMARK    3  A    between atoms: N_3  and  C_4
REMARK    4  A    between atoms: C_4  and  C_5
REMARK    5  A    between atoms: C_8  and  C_9
REMARK    6  A    between atoms: C_9  and  N_10
REMARK    7  A    between atoms: C_11  and  C_13
REMARK    8  A    between atoms: C_20  and  C_22
REMARK                            x       y       z     vdW  Elec       q    Type
REMARK                         _______ _______ _______ _____ _____    ______ ____
ROOT
ATOM      1  C   UNL     1      47.538   6.228  12.660  0.00  0.00    +0.000 C 
ENDROOT
BRANCH   1   2
ATOM      2  C   UNL     1      47.506   5.719  14.082  0.00  0.00    +0.000 A 
ATOM      3  C   UNL     1      46.794   4.545  14.379  0.00  0.00    +0.000 A 
ATOM      4  C   UNL     1      46.979   3.882  15.595  0.00  0.00    +0.000 A 
ATOM      5  C   UNL     1      47.860   4.390  16.555  0.00  0.00    +0.000 A 
ATOM      6  C   UNL     1      48.507   5.608  16.294  0.00  0.00    +0.000 A 
ATOM      7  C   UNL     1      48.327   6.271  15.072  0.00  0.00    +0.000 A 
BRANCH   5   8
ATOM      8  C   UNL     1      48.120   3.624  17.827  0.00  0.00    +0.000 C 
BRANCH   8   9
ATOM      9  N   UNL     1      49.513   3.265  17.991  0.00  0.00    +0.000 N 
ATOM     10  C   UNL     1      50.072   2.296  17.188  0.00  0.00    +0.000 C 
ATOM     11  O   UNL     1      49.416   1.711  16.328  0.00  0.00    +0.000 OA
ATOM     12  H   UNL     1      50.071   3.740  18.683  0.00  0.00    +0.000 HD
BRANCH  10  13
ATOM     13  C   UNL     1      51.474   2.001  17.402  0.00  0.00    +0.000 A 
ATOM     14  C   UNL     1      52.561   2.777  17.771  0.00  0.00    +0.000 A 
ATOM     15  C   UNL     1      53.704   1.940  17.826  0.00  0.00    +0.000 A 
ATOM     16  C   UNL     1      53.300   0.669  17.489  0.00  0.00    +0.000 A 
ATOM     17  N   UNL     1      51.957   0.716  17.238  0.00  0.00    +0.000 N 
ATOM     18  H   UNL     1      51.375  -0.069  16.966  0.00  0.00    +0.000 HD
ENDBRANCH  10  13
ENDBRANCH   8   9
ENDBRANCH   5   8
ENDBRANCH   1   2
BRANCH   1  19
ATOM     19  N   UNL     1      46.654   7.300  12.208  0.00  0.00    +0.000 N 
ATOM     20  C   UNL     1      45.328   7.060  11.787  0.00  0.00    +0.000 C 
ATOM     21  O   UNL     1      44.575   7.982  11.477  0.00  0.00    +0.000 OA
BRANCH  20  22
ATOM     22  C   UNL     1      44.814   5.682  11.757  0.00  0.00    +0.000 A 
ATOM     23  C   UNL     1      44.036   5.106  12.749  0.00  0.00    +0.000 A 
ATOM     24  S   UNL     1      43.523   3.519  12.378  0.00  0.00    +0.000 S 
ATOM     25  C   UNL     1      44.205   3.606  10.823  0.00  0.00    +0.000 A 
ATOM     26  N   UNL     1      44.037   2.602   9.923  0.00  0.00    +0.000 NA
ATOM     27  C   UNL     1      44.548   2.842   8.762  0.00  0.00    +0.000 A 
ATOM     28  N   UNL     1      45.245   3.978   8.432  0.00  0.00    +0.000 N 
ATOM     29  C   UNL     1      45.554   4.960   9.351  0.00  0.00    +0.000 A 
ATOM     30  O   UNL     1      46.370   5.837   9.090  0.00  0.00    +0.000 OA
ATOM     31  C   UNL     1      44.892   4.790  10.628  0.00  0.00    +0.000 A 
ATOM     32  H   UNL     1      45.679   4.073   7.527  0.00  0.00    +0.000 HD
ENDBRANCH  20  22
BRANCH  19  34
ATOM     33  C   UNL     1      48.420   8.988  11.787  0.00  0.00    +0.000 C 
ATOM     34  C   UNL     1      47.045   8.700  12.378  0.00  0.00    +0.000 C 
ENDBRANCH  19  34
ENDBRANCH   1  19
TORSDOF 7
ENDMDL
MODEL 2
REMARK VINA RESULT:    -7.873      3.464      8.082
REMARK INTER + INTRA:         -12.052
REMARK INTER:                 -10.586
REMARK INTRA:                  -1.465
REMARK UNBOUND:                -0.958
REMARK  Name = 
REMARK  8 active torsions:
REMARK  status: ('A' for Active; 'I' for Inactive)
REMARK    1  A    between atoms: C_1  and  C_2
REMARK    2  A    between atoms: C_2  and  N_3
REMARK    3  A    between atoms: N_3  and  C_4
REMARK    4  A    between atoms: C_4  and  C_5
REMARK    5  A    between atoms: C_8  and  C_9
REMARK    6  A    between atoms: C_9  and  N_10
REMARK    7  A    between atoms: C_11  and  C_13
REMARK    8  A    between atoms: C_20  and  C_22
REMARK                            x       y       z     vdW  Elec       q    Type
REMARK                         _______ _______ _______ _____ _____    ______ ____
ROOT
ATOM      1  C   UNL     1      47.325   7.664  13.806  0.00  0.00    +0.000 C 
ENDROOT
BRANCH   1   2
ATOM      2  C   UNL     1      46.389   6.570  13.346  0.00  0.00    +0.000 A 
ATOM      3  C   UNL     1      45.468   6.836  12.321  0.00  0.00    +0.000 A 
ATOM      4  C   UNL     1      44.802   5.796  11.667  0.00  0.00    +0.000 A 
ATOM      5  C   UNL     1      45.019   4.466  12.042  0.00  0.00    +0.000 A 
ATOM      6  C   UNL     1      45.874   4.205  13.124  0.00  0.00    +0.000 A 
ATOM      7  C   UNL     1      46.548   5.247  13.776  0.00  0.00    +0.000 A 
BRANCH   5   8
ATOM      8  C   UNL     1      44.363   3.345  11.275  0.00  0.00    +0.000 C 
BRANCH   8   9
ATOM      9  N   UNL     1      45.210   2.812  10.229  0.00  0.00    +0.000 N 
ATOM     10  C   UNL     1      45.079   3.272   8.938  0.00  0.00    +0.000 C 
ATOM     11  O   UNL     1      44.250   4.128   8.637  0.00  0.00    +0.000 OA
ATOM     12  H   UNL     1      45.903   2.116  10.456  0.00  0.00    +0.000 HD
BRANCH  10  13
ATOM     13  C   UNL     1      45.969   2.699   7.949  0.00  0.00    +0.000 A 
ATOM     14  C   UNL     1      46.518   3.185   6.773  0.00  0.00    +0.000 A 
ATOM     15  C   UNL     1      47.328   2.167   6.209  0.00  0.00    +0.000 A 
ATOM     16  C   UNL     1      47.259   1.077   7.044  0.00  0.00    +0.000 A 
ATOM     17  N   UNL     1      46.441   1.407   8.088  0.00  0.00    +0.000 N 
ATOM     18  H   UNL     1      46.199   0.806   8.868  0.00  0.00    +0.000 HD
ENDBRANCH  10  13
ENDBRANCH   8   9
ENDBRANCH   5   8
ENDBRANCH   1   2
BRANCH   1  19
ATOM     19  N   UNL     1      48.774   7.544  13.664  0.00  0.00    +0.000 N 
ATOM     20  C   UNL     1      49.658   7.717  14.751  0.00  0.00    +0.000 C 
ATOM     21  O   UNL     1      50.869   7.545  14.629  0.00  0.00    +0.000 OA
BRANCH  20  22
ATOM     22  C   UNL     1      49.120   8.070  16.075  0.00  0.00    +0.000 A 
ATOM     23  C   UNL     1      48.890   9.363  16.516  0.00  0.00    +0.000 A 
ATOM     24  S   UNL     1      48.179   9.438  18.068  0.00  0.00    +0.000 S 
ATOM     25  C   UNL     1      48.027   7.746  18.137  0.00  0.00    +0.000 A 
ATOM     26  N   UNL     1      47.393   7.137  19.173  0.00  0.00    +0.000 NA
ATOM     27  C   UNL     1      47.291   5.856  19.052  0.00  0.00    +0.000 A 
ATOM     28  N   UNL     1      47.801   5.125  18.007  0.00  0.00    +0.000 N 
ATOM     29  C   UNL     1      48.566   5.686  17.004  0.00  0.00    +0.000 A 
ATOM     30  O   UNL     1      49.200   4.983  16.224  0.00  0.00    +0.000 OA
ATOM     31  C   UNL     1      48.596   7.133  17.036  0.00  0.00    +0.000 A 
ATOM     32  H   UNL     1      47.747   4.118  18.007  0.00  0.00    +0.000 HD
ENDBRANCH  20  22
BRANCH  19  34
ATOM     33  C   UNL     1      49.544   8.123  11.380  0.00  0.00    +0.000 C 
ATOM     34  C   UNL     1      49.354   7.029  12.423  0.00  0.00    +0.000 C 
ENDBRANCH  19  34
ENDBRANCH   1  19
TORSDOF 7
ENDMDL
MODEL 3
REMARK VINA RESULT:    -7.711      1.390      2.030
REMARK INTER + INTRA:         -11.824
REMARK INTER:                 -10.512
REMARK INTRA:                  -1.311
REMARK UNBOUND:                -0.958
REMARK  Name = 
REMARK  8 active torsions:
REMARK  status: ('A' for Active; 'I' for Inactive)
REMARK    1  A    between atoms: C_1  and  C_2
REMARK    2  A    between atoms: C_2  and  N_3
REMARK    3  A    between atoms: N_3  and  C_4
REMARK    4  A    between atoms: C_4  and  C_5
REMARK    5  A    between atoms: C_8  and  C_9
REMARK    6  A    between atoms: C_9  and  N_10
REMARK    7  A    between atoms: C_11  and  C_13
REMARK    8  A    between atoms: C_20  and  C_22
REMARK                            x       y       z     vdW  Elec       q    Type
REMARK                         _______ _______ _______ _____ _____    ______ ____
ROOT
ATOM      1  C   UNL     1      47.499   6.298  12.852  0.00  0.00    +0.000 C 
ENDROOT
BRANCH   1   2
ATOM      2  C   UNL     1      47.428   5.611  14.197  0.00  0.00    +0.000 A 
ATOM      3  C   UNL     1      46.729   4.400  14.316  0.00  0.00    +0.000 A 
ATOM      4  C   UNL     1      46.884   3.590  15.444  0.00  0.00    +0.000 A 
ATOM      5  C   UNL     1      47.721   3.984  16.493  0.00  0.00    +0.000 A 
ATOM      6  C   UNL     1      48.354   5.235  16.412  0.00  0.00    +0.000 A 
ATOM      7  C   UNL     1      48.203   6.046  15.278  0.00  0.00    +0.000 A 
BRANCH   5   8
ATOM      8  C   UNL     1      47.952   3.066  17.666  0.00  0.00    +0.000 C 
BRANCH   8   9
ATOM      9  N   UNL     1      49.355   2.902  17.982  0.00  0.00    +0.000 N 
ATOM     10  C   UNL     1      50.151   2.112  17.183  0.00  0.00    +0.000 C 
ATOM     11  O   UNL     1      49.702   1.527  16.199  0.00  0.00    +0.000 OA
ATOM     12  H   UNL     1      49.745   3.380  18.779  0.00  0.00    +0.000 HD
BRANCH  10  13
ATOM     13  C   UNL     1      51.547   2.005  17.555  0.00  0.00    +0.000 A 
ATOM     14  C   UNL     1      52.553   1.113  17.219  0.00  0.00    +0.000 A 
ATOM     15  C   UNL     1      53.736   1.506  17.893  0.00  0.00    +0.000 A 
ATOM     16  C   UNL     1      53.436   2.627  18.632  0.00  0.00    +0.000 A 
ATOM     17  N   UNL     1      52.118   2.920  18.421  0.00  0.00    +0.000 N 
ATOM     18  H   UNL     1      51.607   3.694  18.830  0.00  0.00    +0.000 HD
ENDBRANCH  10  13
ENDBRANCH   8   9
ENDBRANCH   5   8
ENDBRANCH   1   2
BRANCH   1  19
ATOM     19  N   UNL     1      46.679   7.466  12.543  0.00  0.00    +0.000 N 
ATOM     20  C   UNL     1      45.608   7.417  11.625  0.00  0.00    +0.000 C 
ATOM     21  O   UNL     1      44.883   8.391  11.428  0.00  0.00    +0.000 OA
BRANCH  20  22
ATOM     22  C   UNL     1      45.316   6.161  10.915  0.00  0.00    +0.000 A 
ATOM     23  C   UNL     1      45.872   5.791   9.701  0.00  0.00    +0.000 A 
ATOM     24  S   UNL     1      45.400   4.234   9.180  0.00  0.00    +0.000 S 
ATOM     25  C   UNL     1      44.553   3.950  10.627  0.00  0.00    +0.000 A 
ATOM     26  N   UNL     1      43.984   2.744  10.885  0.00  0.00    +0.000 NA
ATOM     27  C   UNL     1      43.441   2.655  12.052  0.00  0.00    +0.000 A 
ATOM     28  N   UNL     1      43.380   3.676  12.969  0.00  0.00    +0.000 N 
ATOM     29  C   UNL     1      43.824   4.954  12.696  0.00  0.00    +0.000 A 
ATOM     30  O   UNL     1      43.545   5.891  13.434  0.00  0.00    +0.000 OA
ATOM     31  C   UNL     1      44.553   5.062  11.450  0.00  0.00    +0.000 A 
ATOM     32  H   UNL     1      42.879   3.561  13.837  0.00  0.00    +0.000 HD
ENDBRANCH  20  22
BRANCH  19  34
ATOM     33  C   UNL     1      48.179   9.333  13.184  0.00  0.00    +0.000 C 
ATOM     34  C   UNL     1      46.806   8.688  13.337  0.00  0.00    +0.000 C 
ENDBRANCH  19  34
ENDBRANCH   1  19
TORSDOF 7
ENDMDL
MODEL 4
REMARK VINA RESULT:    -7.540      2.669      8.184
REMARK INTER + INTRA:         -11.583
REMARK INTER:                 -10.249
REMARK INTRA:                  -1.334
REMARK UNBOUND:                -0.958
REMARK  Name = 
REMARK  8 active torsions:
REMARK  status: ('A' for Active; 'I' for Inactive)
REMARK    1  A    between atoms: C_1  and  C_2
REMARK    2  A    between atoms: C_2  and  N_3
REMARK    3  A    between atoms: N_3  and  C_4
REMARK    4  A    between atoms: C_4  and  C_5
REMARK    5  A    between atoms: C_8  and  C_9
REMARK    6  A    between atoms: C_9  and  N_10
REMARK    7  A    between atoms: C_11  and  C_13
REMARK    8  A    between atoms: C_20  and  C_22
REMARK                            x       y       z     vdW  Elec       q    Type
REMARK                         _______ _______ _______ _____ _____    ______ ____
ROOT
ATOM      1  C   UNL     1      48.963   6.570  14.944  0.00  0.00    +0.000 C 
ENDROOT
BRANCH   1   2
ATOM      2  C   UNL     1      47.748   6.446  14.054  0.00  0.00    +0.000 A 
ATOM      3  C   UNL     1      47.389   7.519  13.222  0.00  0.00    +0.000 A 
ATOM      4  C   UNL     1      46.471   7.345  12.183  0.00  0.00    +0.000 A 
ATOM      5  C   UNL     1      45.868   6.101  11.968  0.00  0.00    +0.000 A 
ATOM      6  C   UNL     1      46.162   5.051  12.852  0.00  0.00    +0.000 A 
ATOM      7  C   UNL     1      47.087   5.223  13.892  0.00  0.00    +0.000 A 
BRANCH   5   8
ATOM      8  C   UNL     1      44.946   5.899  10.792  0.00  0.00    +0.000 C 
BRANCH   8   9
ATOM      9  N   UNL     1      45.570   5.167   9.710  0.00  0.00    +0.000 N 
ATOM     10  C   UNL     1      45.146   3.891   9.410  0.00  0.00    +0.000 C 
ATOM     11  O   UNL     1      44.248   3.342  10.043  0.00  0.00    +0.000 OA
ATOM     12  H   UNL     1      46.302   5.603   9.171  0.00  0.00    +0.000 HD
BRANCH  10  13
ATOM     13  C   UNL     1      45.810   3.227   8.306  0.00  0.00    +0.000 A 
ATOM     14  C   UNL     1      46.252   3.661   7.066  0.00  0.00    +0.000 A 
ATOM     15  C   UNL     1      46.836   2.557   6.395  0.00  0.00    +0.000 A 
ATOM     16  C   UNL     1      46.740   1.469   7.230  0.00  0.00    +0.000 A 
ATOM     17  N   UNL     1      46.123   1.882   8.378  0.00  0.00    +0.000 N 
ATOM     18  H   UNL     1      45.912   1.303   9.183  0.00  0.00    +0.000 HD
ENDBRANCH  10  13
ENDBRANCH   8   9
ENDBRANCH   5   8
ENDBRANCH   1   2
BRANCH   1  19
ATOM     19  N   UNL     1      48.918   7.302  16.208  0.00  0.00    +0.000 N 
ATOM     20  C   UNL     1      48.736   6.656  17.450  0.00  0.00    +0.000 C 
ATOM     21  O   UNL     1      48.770   7.279  18.510  0.00  0.00    +0.000 OA
BRANCH  20  22
ATOM     22  C   UNL     1      48.543   5.198  17.489  0.00  0.00    +0.000 A 
ATOM     23  C   UNL     1      47.323   4.557  17.350  0.00  0.00    +0.000 A 
ATOM     24  S   UNL     1      47.443   2.853  17.354  0.00  0.00    +0.000 S 
ATOM     25  C   UNL     1      49.142   2.921  17.397  0.00  0.00    +0.000 A 
ATOM     26  N   UNL     1      49.894   1.792  17.314  0.00  0.00    +0.000 NA
ATOM     27  C   UNL     1      51.166   2.006  17.286  0.00  0.00    +0.000 A 
ATOM     28  N   UNL     1      51.755   3.244  17.373  0.00  0.00    +0.000 N 
ATOM     29  C   UNL     1      51.035   4.401  17.593  0.00  0.00    +0.000 A 
ATOM     30  O   UNL     1      51.597   5.447  17.900  0.00  0.00    +0.000 OA
ATOM     31  C   UNL     1      49.602   4.220  17.503  0.00  0.00    +0.000 A 
ATOM     32  H   UNL     1      52.758   3.337  17.415  0.00  0.00    +0.000 HD
ENDBRANCH  20  22
BRANCH  19  34
ATOM     33  C   UNL     1      48.045   9.622  16.222  0.00  0.00    +0.000 C 
ATOM     34  C   UNL     1      49.274   8.721  16.252  0.00  0.00    +0.000 C 
ENDBRANCH  19  34
ENDBRANCH   1  19
TORSDOF 7
ENDMDL
MODEL 5
REMARK VINA RESULT:    -7.261      3.971      8.460
REMARK INTER + INTRA:         -11.190
REMARK INTER:                  -9.778
REMARK INTRA:                  -1.412
REMARK UNBOUND:                -0.958
REMARK  Name = 
REMARK  8 active torsions:
REMARK  status: ('A' for Active; 'I' for Inactive)
REMARK    1  A    between atoms: C_1  and  C_2
REMARK    2  A    between atoms: C_2  and  N_3
REMARK    3  A    between atoms: N_3  and  C_4
REMARK    4  A    between atoms: C_4  and  C_5
REMARK    5  A    between atoms: C_8  and  C_9
REMARK    6  A    between atoms: C_9  and  N_10
REMARK    7  A    between atoms: C_11  and  C_13
REMARK    8  A    between atoms: C_20  and  C_22
REMARK                            x       y       z     vdW  Elec       q    Type
REMARK                         _______ _______ _______ _____ _____    ______ ____
ROOT
ATOM      1  C   UNL     1      47.197   8.382  13.673  0.00  0.00    +0.000 C 
ENDROOT
BRANCH   1   2
ATOM      2  C   UNL     1      46.227   7.436  13.004  0.00  0.00    +0.000 A 
ATOM      3  C   UNL     1      45.170   7.957  12.241  0.00  0.00    +0.000 A 
ATOM      4  C   UNL     1      44.440   7.141  11.374  0.00  0.00    +0.000 A 
ATOM      5  C   UNL     1      44.730   5.776  11.268  0.00  0.00    +0.000 A 
ATOM      6  C   UNL     1      45.730   5.238  12.094  0.00  0.00    +0.000 A 
ATOM      7  C   UNL     1      46.467   6.058  12.960  0.00  0.00    +0.000 A 
BRANCH   5   8
ATOM      8  C   UNL     1      43.997   4.920  10.268  0.00  0.00    +0.000 C 
BRANCH   8   9
ATOM      9  N   UNL     1      44.853   4.450   9.198  0.00  0.00    +0.000 N 
ATOM     10  C   UNL     1      45.039   3.098   9.012  0.00  0.00    +0.000 C 
ATOM     11  O   UNL     1      44.501   2.265   9.737  0.00  0.00    +0.000 OA
ATOM     12  H   UNL     1      45.295   5.117   8.586  0.00  0.00    +0.000 HD
BRANCH  10  13
ATOM     13  C   UNL     1      45.899   2.705   7.914  0.00  0.00    +0.000 A 
ATOM     14  C   UNL     1      46.255   3.315   6.722  0.00  0.00    +0.000 A 
ATOM     15  C   UNL     1      47.141   2.451   6.030  0.00  0.00    +0.000 A 
ATOM     16  C   UNL     1      47.311   1.328   6.806  0.00  0.00    +0.000 A 
ATOM     17  N   UNL     1      46.561   1.491   7.938  0.00  0.00    +0.000 N 
ATOM     18  H   UNL     1      46.485   0.829   8.702  0.00  0.00    +0.000 HD
ENDBRANCH  10  13
ENDBRANCH   8   9
ENDBRANCH   5   8
ENDBRANCH   1   2
BRANCH   1  19
ATOM     19  N   UNL     1      48.627   8.353  13.376  0.00  0.00    +0.000 N 
ATOM     20  C   UNL     1      49.588   7.937  14.323  0.00  0.00    +0.000 C 
ATOM     21  O   UNL     1      50.780   7.852  14.034  0.00  0.00    +0.000 OA
BRANCH  20  22
ATOM     22  C   UNL     1      49.156   7.554  15.676  0.00  0.00    +0.000 A 
ATOM     23  C   UNL     1      49.000   6.250  16.117  0.00  0.00    +0.000 A 
ATOM     24  S   UNL     1      48.571   6.134  17.767  0.00  0.00    +0.000 S 
ATOM     25  C   UNL     1      48.720   7.815  17.978  0.00  0.00    +0.000 A 
ATOM     26  N   UNL     1      48.587   8.385  19.203  0.00  0.00    +0.000 NA
ATOM     27  C   UNL     1      48.799   9.658  19.219  0.00  0.00    +0.000 A 
ATOM     28  N   UNL     1      49.093  10.418  18.114  0.00  0.00    +0.000 N 
ATOM     29  C   UNL     1      49.105   9.902  16.833  0.00  0.00    +0.000 A 
ATOM     30  O   UNL     1      49.136  10.640  15.855  0.00  0.00    +0.000 OA
ATOM     31  C   UNL     1      48.999   8.459  16.786  0.00  0.00    +0.000 A 
ATOM     32  H   UNL     1      49.179  11.420  18.184  0.00  0.00    +0.000 HD
ENDBRANCH  20  22
BRANCH  19  34
ATOM     33  C   UNL     1      49.042  10.019  11.588  0.00  0.00    +0.000 C 
ATOM     34  C   UNL     1      49.100   8.554  12.006  0.00  0.00    +0.000 C 
ENDBRANCH  19  34
ENDBRANCH   1  19
TORSDOF 7
ENDMDL
MODEL 6
REMARK VINA RESULT:    -7.148      1.526      1.584
REMARK INTER + INTRA:         -11.030
REMARK INTER:                  -9.757
REMARK INTRA:                  -1.273
REMARK UNBOUND:                -0.958
REMARK  Name = 
REMARK  8 active torsions:
REMARK  status: ('A' for Active; 'I' for Inactive)
REMARK    1  A    between atoms: C_1  and  C_2
REMARK    2  A    between atoms: C_2  and  N_3
REMARK    3  A    between atoms: N_3  and  C_4
REMARK    4  A    between atoms: C_4  and  C_5
REMARK    5  A    between atoms: C_8  and  C_9
REMARK    6  A    between atoms: C_9  and  N_10
REMARK    7  A    between atoms: C_11  and  C_13
REMARK    8  A    between atoms: C_20  and  C_22
REMARK                            x       y       z     vdW  Elec       q    Type
REMARK                         _______ _______ _______ _____ _____    ______ ____
ROOT
ATOM      1  C   UNL     1      47.317   6.023  12.450  0.00  0.00    +0.000 C 
ENDROOT
BRANCH   1   2
ATOM      2  C   UNL     1      47.442   5.745  13.931  0.00  0.00    +0.000 A 
ATOM      3  C   UNL     1      46.830   4.603  14.473  0.00  0.00    +0.000 A 
ATOM      4  C   UNL     1      47.162   4.150  15.752  0.00  0.00    +0.000 A 
ATOM      5  C   UNL     1      48.093   4.844  16.533  0.00  0.00    +0.000 A 
ATOM      6  C   UNL     1      48.641   6.032  16.025  0.00  0.00    +0.000 A 
ATOM      7  C   UNL     1      48.313   6.484  14.739  0.00  0.00    +0.000 A 
BRANCH   5   8
ATOM      8  C   UNL     1      48.511   4.301  17.876  0.00  0.00    +0.000 C 
BRANCH   8   9
ATOM      9  N   UNL     1      49.884   3.844  17.893  0.00  0.00    +0.000 N 
ATOM     10  C   UNL     1      50.825   4.523  18.635  0.00  0.00    +0.000 C 
ATOM     11  O   UNL     1      50.535   5.523  19.288  0.00  0.00    +0.000 OA
ATOM     12  H   UNL     1      50.141   3.019  17.373  0.00  0.00    +0.000 HD
BRANCH  10  13
ATOM     13  C   UNL     1      52.175   3.998  18.613  0.00  0.00    +0.000 A 
ATOM     14  C   UNL     1      53.242   4.162  17.744  0.00  0.00    +0.000 A 
ATOM     15  C   UNL     1      54.331   3.396  18.231  0.00  0.00    +0.000 A 
ATOM     16  C   UNL     1      53.914   2.776  19.386  0.00  0.00    +0.000 A 
ATOM     17  N   UNL     1      52.617   3.146  19.608  0.00  0.00    +0.000 N 
ATOM     18  H   UNL     1      52.039   2.850  20.386  0.00  0.00    +0.000 HD
ENDBRANCH  10  13
ENDBRANCH   8   9
ENDBRANCH   5   8
ENDBRANCH   1   2
BRANCH   1  19
ATOM     19  N   UNL     1      46.396   7.033  11.935  0.00  0.00    +0.000 N 
ATOM     20  C   UNL     1      45.112   6.708  11.446  0.00  0.00    +0.000 C 
ATOM     21  O   UNL     1      44.324   7.578  11.081  0.00  0.00    +0.000 OA
BRANCH  20  22
ATOM     22  C   UNL     1      44.684   5.301  11.411  0.00  0.00    +0.000 A 
ATOM     23  C   UNL     1      43.923   4.681  12.389  0.00  0.00    +0.000 A 
ATOM     24  S   UNL     1      43.516   3.064  12.014  0.00  0.00    +0.000 S 
ATOM     25  C   UNL     1      44.222   3.189  10.472  0.00  0.00    +0.000 A 
ATOM     26  N   UNL     1      44.135   2.175   9.573  0.00  0.00    +0.000 NA
ATOM     27  C   UNL     1      44.653   2.442   8.422  0.00  0.00    +0.000 A 
ATOM     28  N   UNL     1      45.286   3.618   8.102  0.00  0.00    +0.000 N 
ATOM     29  C   UNL     1      45.515   4.620   9.023  0.00  0.00    +0.000 A 
ATOM     30  O   UNL     1      46.281   5.544   8.776  0.00  0.00    +0.000 OA
ATOM     31  C   UNL     1      44.839   4.413  10.287  0.00  0.00    +0.000 A 
ATOM     32  H   UNL     1      45.732   3.737   7.205  0.00  0.00    +0.000 HD
ENDBRANCH  20  22
BRANCH  19  34
ATOM     33  C   UNL     1      46.003   9.047  13.326  0.00  0.00    +0.000 C 
ATOM     34  C   UNL     1      46.693   8.456  12.102  0.00  0.00    +0.000 C 
ENDBRANCH  19  34
ENDBRANCH   1  19
TORSDOF 7
ENDMDL
MODEL 7
REMARK VINA RESULT:    -6.667      3.207      8.470
REMARK INTER + INTRA:         -10.353
REMARK INTER:                  -8.632
REMARK INTRA:                  -1.721
REMARK UNBOUND:                -0.958
REMARK  Name = 
REMARK  8 active torsions:
REMARK  status: ('A' for Active; 'I' for Inactive)
REMARK    1  A    between atoms: C_1  and  C_2
REMARK    2  A    between atoms: C_2  and  N_3
REMARK    3  A    between atoms: N_3  and  C_4
REMARK    4  A    between atoms: C_4  and  C_5
REMARK    5  A    between atoms: C_8  and  C_9
REMARK    6  A    between atoms: C_9  and  N_10
REMARK    7  A    between atoms: C_11  and  C_13
REMARK    8  A    between atoms: C_20  and  C_22
REMARK                            x       y       z     vdW  Elec       q    Type
REMARK                         _______ _______ _______ _____ _____    ______ ____
ROOT
ATOM      1  C   UNL     1      49.842   7.997  17.792  0.00  0.00    +0.000 C 
ENDROOT
BRANCH   1   2
ATOM      2  C   UNL     1      49.133   7.903  16.460  0.00  0.00    +0.000 A 
ATOM      3  C   UNL     1      48.364   8.988  16.010  0.00  0.00    +0.000 A 
ATOM      4  C   UNL     1      47.945   9.067  14.679  0.00  0.00    +0.000 A 
ATOM      5  C   UNL     1      48.260   8.049  13.773  0.00  0.00    +0.000 A 
ATOM      6  C   UNL     1      48.955   6.924  14.243  0.00  0.00    +0.000 A 
ATOM      7  C   UNL     1      49.381   6.846  15.577  0.00  0.00    +0.000 A 
BRANCH   5   8
ATOM      8  C   UNL     1      47.879   8.182  12.320  0.00  0.00    +0.000 C 
BRANCH   8   9
ATOM      9  N   UNL     1      46.928   7.177  11.895  0.00  0.00    +0.000 N 
ATOM     10  C   UNL     1      45.579   7.396  12.059  0.00  0.00    +0.000 C 
ATOM     11  O   UNL     1      45.148   8.429  12.567  0.00  0.00    +0.000 OA
ATOM     12  H   UNL     1      47.260   6.327  11.467  0.00  0.00    +0.000 HD
BRANCH  10  13
ATOM     13  C   UNL     1      44.688   6.350  11.599  0.00  0.00    +0.000 A 
ATOM     14  C   UNL     1      44.856   5.265  10.753  0.00  0.00    +0.000 A 
ATOM     15  C   UNL     1      43.621   4.575  10.668  0.00  0.00    +0.000 A 
ATOM     16  C   UNL     1      42.718   5.247  11.459  0.00  0.00    +0.000 A 
ATOM     17  N   UNL     1      43.370   6.313  12.015  0.00  0.00    +0.000 N 
ATOM     18  H   UNL     1      42.965   6.993  12.647  0.00  0.00    +0.000 HD
ENDBRANCH  10  13
ENDBRANCH   8   9
ENDBRANCH   5   8
ENDBRANCH   1   2
BRANCH   1  19
ATOM     19  N   UNL     1      49.181   7.625  19.041  0.00  0.00    +0.000 N 
ATOM     20  C   UNL     1      49.226   6.313  19.559  0.00  0.00    +0.000 C 
ATOM     21  O   UNL     1      48.724   6.033  20.646  0.00  0.00    +0.000 OA
BRANCH  20  22
ATOM     22  C   UNL     1      49.926   5.259  18.807  0.00  0.00    +0.000 A 
ATOM     23  C   UNL     1      51.270   4.951  18.941  0.00  0.00    +0.000 A 
ATOM     24  S   UNL     1      51.763   3.618  17.993  0.00  0.00    +0.000 S 
ATOM     25  C   UNL     1      50.167   3.323  17.485  0.00  0.00    +0.000 A 
ATOM     26  N   UNL     1      49.859   2.242  16.723  0.00  0.00    +0.000 NA
ATOM     27  C   UNL     1      48.599   2.109  16.478  0.00  0.00    +0.000 A 
ATOM     28  N   UNL     1      47.624   2.982  16.893  0.00  0.00    +0.000 N 
ATOM     29  C   UNL     1      47.907   4.162  17.552  0.00  0.00    +0.000 A 
ATOM     30  O   UNL     1      47.050   5.026  17.698  0.00  0.00    +0.000 OA
ATOM     31  C   UNL     1      49.292   4.284  17.957  0.00  0.00    +0.000 A 
ATOM     32  H   UNL     1      46.665   2.858  16.608  0.00  0.00    +0.000 HD
ENDBRANCH  20  22
BRANCH  19  34
ATOM     33  C   UNL     1      47.198   9.034  19.520  0.00  0.00    +0.000 C 
ATOM     34  C   UNL     1      48.621   8.656  19.915  0.00  0.00    +0.000 C 
ENDBRANCH  19  34
ENDBRANCH   1  19
TORSDOF 7
ENDMDL
MODEL 8
REMARK VINA RESULT:    -6.604      3.876      8.300
REMARK INTER + INTRA:         -10.265
REMARK INTER:                  -9.212
REMARK INTRA:                  -1.052
REMARK UNBOUND:                -0.958
REMARK  Name = 
REMARK  8 active torsions:
REMARK  status: ('A' for Active; 'I' for Inactive)
REMARK    1  A    between atoms: C_1  and  C_2
REMARK    2  A    between atoms: C_2  and  N_3
REMARK    3  A    between atoms: N_3  and  C_4
REMARK    4  A    between atoms: C_4  and  C_5
REMARK    5  A    between atoms: C_8  and  C_9
REMARK    6  A    between atoms: C_9  and  N_10
REMARK    7  A    between atoms: C_11  and  C_13
REMARK    8  A    between atoms: C_20  and  C_22
REMARK                            x       y       z     vdW  Elec       q    Type
REMARK                         _______ _______ _______ _____ _____    ______ ____
ROOT
ATOM      1  C   UNL     1      47.470   8.253  13.773  0.00  0.00    +0.000 C 
ENDROOT
BRANCH   1   2
ATOM      2  C   UNL     1      46.587   7.654  12.702  0.00  0.00    +0.000 A 
ATOM      3  C   UNL     1      47.163   6.857  11.699  0.00  0.00    +0.000 A 
ATOM      4  C   UNL     1      46.369   6.051  10.878  0.00  0.00    +0.000 A 
ATOM      5  C   UNL     1      44.977   6.044  11.022  0.00  0.00    +0.000 A 
ATOM      6  C   UNL     1      44.396   6.904  11.966  0.00  0.00    +0.000 A 
ATOM      7  C   UNL     1      45.192   7.708  12.794  0.00  0.00    +0.000 A 
BRANCH   5   8
ATOM      8  C   UNL     1      44.135   5.108  10.193  0.00  0.00    +0.000 C 
BRANCH   8   9
ATOM      9  N   UNL     1      44.859   4.545   9.072  0.00  0.00    +0.000 N 
ATOM     10  C   UNL     1      45.280   3.235   9.115  0.00  0.00    +0.000 C 
ATOM     11  O   UNL     1      45.065   2.517  10.089  0.00  0.00    +0.000 OA
ATOM     12  H   UNL     1      45.037   5.114   8.259  0.00  0.00    +0.000 HD
BRANCH  10  13
ATOM     13  C   UNL     1      45.987   2.740   7.951  0.00  0.00    +0.000 A 
ATOM     14  C   UNL     1      46.307   3.302   6.725  0.00  0.00    +0.000 A 
ATOM     15  C   UNL     1      47.020   2.338   5.969  0.00  0.00    +0.000 A 
ATOM     16  C   UNL     1      47.123   1.204   6.740  0.00  0.00    +0.000 A 
ATOM     17  N   UNL     1      46.500   1.456   7.931  0.00  0.00    +0.000 N 
ATOM     18  H   UNL     1      46.413   0.809   8.706  0.00  0.00    +0.000 HD
ENDBRANCH  10  13
ENDBRANCH   8   9
ENDBRANCH   5   8
ENDBRANCH   1   2
BRANCH   1  19
ATOM     19  N   UNL     1      48.079   9.571  13.617  0.00  0.00    +0.000 N 
ATOM     20  C   UNL     1      48.850  10.173  14.634  0.00  0.00    +0.000 C 
ATOM     21  O   UNL     1      49.414  11.252  14.461  0.00  0.00    +0.000 OA
BRANCH  20  22
ATOM     22  C   UNL     1      49.025   9.479  15.920  0.00  0.00    +0.000 A 
ATOM     23  C   UNL     1      48.214   9.654  17.030  0.00  0.00    +0.000 A 
ATOM     24  S   UNL     1      48.624   8.639  18.342  0.00  0.00    +0.000 S 
ATOM     25  C   UNL     1      49.806   7.837  17.419  0.00  0.00    +0.000 A 
ATOM     26  N   UNL     1      50.479   6.766  17.914  0.00  0.00    +0.000 NA
ATOM     27  C   UNL     1      51.291   6.217  17.073  0.00  0.00    +0.000 A 
ATOM     28  N   UNL     1      51.518   6.666  15.796  0.00  0.00    +0.000 N 
ATOM     29  C   UNL     1      50.959   7.826  15.300  0.00  0.00    +0.000 A 
ATOM     30  O   UNL     1      51.359   8.325  14.254  0.00  0.00    +0.000 OA
ATOM     31  C   UNL     1      49.947   8.399  16.163  0.00  0.00    +0.000 A 
ATOM     32  H   UNL     1      52.218   6.232  15.213  0.00  0.00    +0.000 HD
ENDBRANCH  20  22
BRANCH  19  34
ATOM     33  C   UNL     1      49.298   9.831  11.474  0.00  0.00    +0.000 C 
ATOM     34  C   UNL     1      48.088  10.230  12.310  0.00  0.00    +0.000 C 
ENDBRANCH  19  34
ENDBRANCH   1  19
TORSDOF 7
ENDMDL
MODEL 9
REMARK VINA RESULT:    -6.521      2.676      3.690
REMARK INTER + INTRA:         -10.148
REMARK INTER:                  -8.393
REMARK INTRA:                  -1.755
REMARK UNBOUND:                -0.958
REMARK  Name = 
REMARK  8 active torsions:
REMARK  status: ('A' for Active; 'I' for Inactive)
REMARK    1  A    between atoms: C_1  and  C_2
REMARK    2  A    between atoms: C_2  and  N_3
REMARK    3  A    between atoms: N_3  and  C_4
REMARK    4  A    between atoms: C_4  and  C_5
REMARK    5  A    between atoms: C_8  and  C_9
REMARK    6  A    between atoms: C_9  and  N_10
REMARK    7  A    between atoms: C_11  and  C_13
REMARK    8  A    between atoms: C_20  and  C_22
REMARK                            x       y       z     vdW  Elec       q    Type
REMARK                         _______ _______ _______ _____ _____    ______ ____
ROOT
ATOM      1  C   UNL     1      49.810   8.739  14.751  0.00  0.00    +0.000 C 
ENDROOT
BRANCH   1   2
ATOM      2  C   UNL     1      49.739   7.634  15.780  0.00  0.00    +0.000 A 
ATOM      3  C   UNL     1      48.484   7.176  16.214  0.00  0.00    +0.000 A 
ATOM      4  C   UNL     1      48.365   5.978  16.923  0.00  0.00    +0.000 A 
ATOM      5  C   UNL     1      49.499   5.223  17.240  0.00  0.00    +0.000 A 
ATOM      6  C   UNL     1      50.760   5.724  16.880  0.00  0.00    +0.000 A 
ATOM      7  C   UNL     1      50.881   6.923  16.164  0.00  0.00    +0.000 A 
BRANCH   5   8
ATOM      8  C   UNL     1      49.354   3.889  17.928  0.00  0.00    +0.000 C 
BRANCH   8   9
ATOM      9  N   UNL     1      50.625   3.234  18.153  0.00  0.00    +0.000 N 
ATOM     10  C   UNL     1      50.983   2.148  17.385  0.00  0.00    +0.000 C 
ATOM     11  O   UNL     1      50.246   1.706  16.506  0.00  0.00    +0.000 OA
ATOM     12  H   UNL     1      51.249   3.587  18.862  0.00  0.00    +0.000 HD
BRANCH  10  13
ATOM     13  C   UNL     1      52.275   1.553  17.660  0.00  0.00    +0.000 A 
ATOM     14  C   UNL     1      53.564   2.060  17.699  0.00  0.00    +0.000 A 
ATOM     15  C   UNL     1      54.447   1.000  18.027  0.00  0.00    +0.000 A 
ATOM     16  C   UNL     1      53.687  -0.136  18.181  0.00  0.00    +0.000 A 
ATOM     17  N   UNL     1      52.382   0.207  17.959  0.00  0.00    +0.000 N 
ATOM     18  H   UNL     1      51.586  -0.420  18.002  0.00  0.00    +0.000 HD
ENDBRANCH  10  13
ENDBRANCH   8   9
ENDBRANCH   5   8
ENDBRANCH   1   2
BRANCH   1  19
ATOM     19  N   UNL     1      50.300   8.497  13.396  0.00  0.00    +0.000 N 
ATOM     20  C   UNL     1      49.432   8.359  12.291  0.00  0.00    +0.000 C 
ATOM     21  O   UNL     1      49.864   8.225  11.147  0.00  0.00    +0.000 OA
BRANCH  20  22
ATOM     22  C   UNL     1      47.977   8.420  12.498  0.00  0.00    +0.000 A 
ATOM     23  C   UNL     1      47.197   9.549  12.310  0.00  0.00    +0.000 A 
ATOM     24  S   UNL     1      45.528   9.274  12.549  0.00  0.00    +0.000 S 
ATOM     25  C   UNL     1      45.781   7.607  12.770  0.00  0.00    +0.000 A 
ATOM     26  N   UNL     1      44.738   6.750  12.918  0.00  0.00    +0.000 NA
ATOM     27  C   UNL     1      45.082   5.509  13.002  0.00  0.00    +0.000 A 
ATOM     28  N   UNL     1      46.377   5.052  12.992  0.00  0.00    +0.000 N 
ATOM     29  C   UNL     1      47.468   5.896  12.979  0.00  0.00    +0.000 A 
ATOM     30  O   UNL     1      48.597   5.475  13.208  0.00  0.00    +0.000 OA
ATOM     31  C   UNL     1      47.126   7.285  12.756  0.00  0.00    +0.000 A 
ATOM     32  H   UNL     1      46.580   4.074  13.132  0.00  0.00    +0.000 HD
ENDBRANCH  20  22
BRANCH  19  34
ATOM     33  C   UNL     1      52.455   9.514  14.078  0.00  0.00    +0.000 C 
ATOM     34  C   UNL     1      51.729   8.599  13.099  0.00  0.00    +0.000 C 
ENDBRANCH  19  34
ENDBRANCH   1  19
TORSDOF 7
ENDMDL
