MODEL 1
REMARK VINA RESULT:    -7.653      0.000      0.000
REMARK INTER + INTRA:         -12.209
REMARK INTER:                 -11.232
REMARK INTRA:                  -0.977
REMARK UNBOUND:                -0.977
REMARK  Name = 
REMARK  9 active torsions:
REMARK  status: ('A' for Active; 'I' for Inactive)
REMARK    1  A    between atoms: C_1  and  C_2
REMARK    2  A    between atoms: C_2  and  N_3
REMARK    3  A    between atoms: C_2  and  C_19
REMARK    4  A    between atoms: N_3  and  C_4
REMARK    5  A    between atoms: C_4  and  C_5
REMARK    6  A    between atoms: C_8  and  C_9
REMARK    7  A    between atoms: C_9  and  N_10
REMARK    8  A    between atoms: N_10  and  C_11
REMARK    9  A    between atoms: C_11  and  C_12
REMARK                            x       y       z     vdW  Elec       q    Type
REMARK                         _______ _______ _______ _____ _____    ______ ____
ROOT
ATOM      1  C   UNL     1      47.778   5.477  14.422  0.00  0.00    +0.000 C 
ENDROOT
BRANCH   1   2
ATOM      2  C   UNL     1      46.771   5.193  13.324  0.00  0.00    +0.000 A 
ATOM      3  C   UNL     1      46.413   6.199  12.416  0.00  0.00    +0.000 A 
ATOM      4  C   UNL     1      45.450   5.961  11.434  0.00  0.00    +0.000 A 
ATOM      5  C   UNL     1      44.853   4.697  11.297  0.00  0.00    +0.000 A 
ATOM      6  C   UNL     1      45.213   3.692  12.203  0.00  0.00    +0.000 A 
ATOM      7  C   UNL     1      46.160   3.937  13.206  0.00  0.00    +0.000 A 
BRANCH   5   8
ATOM      8  C   UNL     1      43.799   4.439  10.239  0.00  0.00    +0.000 C 
BRANCH   8   9
ATOM      9  N   UNL     1      44.390   4.409   8.904  0.00  0.00    +0.000 NA
ATOM     10  H   UNL     1      45.248   4.960   8.909  0.00  0.00    +0.000 HD
BRANCH   9  11
ATOM     11  C   UNL     1      44.654   3.063   8.413  0.00  0.00    +0.000 C 
BRANCH  11  12
ATOM     12  C   UNL     1      46.179   2.855   8.321  0.00  0.00    +0.000 C 
ATOM     13  C   UNL     1      46.829   3.691   7.220  0.00  0.00    +0.000 C 
ATOM     14  C   UNL     1      46.663   2.813   6.000  0.00  0.00    +0.000 C 
ATOM     15  N   UNL     1      46.946   1.460   6.492  0.00  0.00    +0.000 NA
ATOM     16  C   UNL     1      46.531   1.424   7.906  0.00  0.00    +0.000 C 
ATOM     17  H   UNL     1      47.956   1.315   6.453  0.00  0.00    +0.000 HD
ENDBRANCH  11  12
ENDBRANCH   9  11
ENDBRANCH   8   9
ENDBRANCH   5   8
ENDBRANCH   1   2
BRANCH   1  18
ATOM     18  N   UNL     1      47.216   5.127  15.723  0.00  0.00    +0.000 NA
ATOM     19  H   UNL     1      47.311   5.933  16.339  0.00  0.00    +0.000 HD
BRANCH  18  21
ATOM     20  C   UNL     1      46.861   3.215  17.283  0.00  0.00    +0.000 C 
ATOM     21  C   UNL     1      47.843   3.980  16.391  0.00  0.00    +0.000 C 
BRANCH  21  22
ATOM     22  C   UNL     1      48.988   4.538  17.227  0.00  0.00    +0.000 A 
ATOM     23  C   UNL     1      48.994   5.805  17.799  0.00  0.00    +0.000 A 
ATOM     24  S   UNL     1      50.415   6.155  18.672  0.00  0.00    +0.000 S 
ATOM     25  C   UNL     1      51.056   4.612  18.357  0.00  0.00    +0.000 A 
ATOM     26  N   UNL     1      52.265   4.242  18.859  0.00  0.00    +0.000 NA
ATOM     27  C   UNL     1      52.613   3.035  18.560  0.00  0.00    +0.000 A 
ATOM     28  N   UNL     1      51.870   2.169  17.796  0.00  0.00    +0.000 N 
ATOM     29  C   UNL     1      50.647   2.501  17.253  0.00  0.00    +0.000 A 
ATOM     30  O   UNL     1      50.010   1.711  16.566  0.00  0.00    +0.000 OA
ATOM     31  C   UNL     1      50.206   3.847  17.577  0.00  0.00    +0.000 A 
ATOM     32  H   UNL     1      52.206   1.238  17.600  0.00  0.00    +0.000 HD
ENDBRANCH  21  22
ENDBRANCH  18  21
ENDBRANCH   1  18
TORSDOF 8
ENDMDL
MODEL 2
REMARK VINA RESULT:    -7.268      1.147      1.590
REMARK INTER + INTRA:         -11.644
REMARK INTER:                 -10.997
REMARK INTRA:                  -0.647
REMARK UNBOUND:                -0.977
REMARK  Name = 
REMARK  9 active torsions:
REMARK  status: ('A' for Active; 'I' for Inactive)
REMARK    1  A    between atoms: C_1  and  C_2
REMARK    2  A    between atoms: C_2  and  N_3
REMARK    3  A    between atoms: C_2  and  C_19
REMARK    4  A    between atoms: N_3  and  C_4
REMARK    5  A    between atoms: C_4  and  C_5
REMARK    6  A    between atoms: C_8  and  C_9
REMARK    7  A    between atoms: C_9  and  N_10
REMARK    8  A    between atoms: N_10  and  C_11
REMARK    9  A    between atoms: C_11  and  C_12
REMARK                            x       y       z     vdW  Elec       q    Type
REMARK                         _______ _______ _______ _____ _____    ______ ____
ROOT
ATOM      1  C   UNL     1      48.695   6.252  15.035  0.00  0.00    +0.000 C 
ENDROOT
BRANCH   1   2
ATOM      2  C   UNL     1      47.593   6.087  14.006  0.00  0.00    +0.000 A 
ATOM      3  C   UNL     1      47.343   7.098  13.068  0.00  0.00    +0.000 A 
ATOM      4  C   UNL     1      46.299   6.974  12.151  0.00  0.00    +0.000 A 
ATOM      5  C   UNL     1      45.504   5.817  12.110  0.00  0.00    +0.000 A 
ATOM      6  C   UNL     1      45.755   4.807  13.046  0.00  0.00    +0.000 A 
ATOM      7  C   UNL     1      46.786   4.940  13.985  0.00  0.00    +0.000 A 
BRANCH   5   8
ATOM      8  C   UNL     1      44.361   5.685  11.123  0.00  0.00    +0.000 C 
BRANCH   8   9
ATOM      9  N   UNL     1      44.556   4.535  10.243  0.00  0.00    +0.000 NA
ATOM     10  H   UNL     1      43.661   4.285   9.823  0.00  0.00    +0.000 HD
BRANCH   9  11
ATOM     11  C   UNL     1      45.558   4.756   9.209  0.00  0.00    +0.000 C 
BRANCH  11  12
ATOM     12  C   UNL     1      45.216   3.879   7.988  0.00  0.00    +0.000 C 
ATOM     13  C   UNL     1      44.573   2.548   8.371  0.00  0.00    +0.000 C 
ATOM     14  C   UNL     1      45.773   1.666   8.634  0.00  0.00    +0.000 C 
ATOM     15  N   UNL     1      46.717   2.021   7.569  0.00  0.00    +0.000 NA
ATOM     16  C   UNL     1      46.476   3.437   7.239  0.00  0.00    +0.000 C 
ATOM     17  H   UNL     1      46.491   1.459   6.746  0.00  0.00    +0.000 HD
ENDBRANCH  11  12
ENDBRANCH   9  11
ENDBRANCH   8   9
ENDBRANCH   5   8
ENDBRANCH   1   2
BRANCH   1  18
ATOM     18  N   UNL     1      48.207   5.884  16.360  0.00  0.00    +0.000 NA
ATOM     19  H   UNL     1      48.716   6.433  17.051  0.00  0.00    +0.000 HD
BRANCH  18  21
ATOM     20  C   UNL     1      47.232   3.967  17.622  0.00  0.00    +0.000 C 
ATOM     21  C   UNL     1      48.361   4.467  16.715  0.00  0.00    +0.000 C 
BRANCH  21  22
ATOM     22  C   UNL     1      49.702   4.342  17.428  0.00  0.00    +0.000 A 
ATOM     23  C   UNL     1      50.275   5.348  18.198  0.00  0.00    +0.000 A 
ATOM     24  S   UNL     1      51.786   4.922  18.863  0.00  0.00    +0.000 S 
ATOM     25  C   UNL     1      51.709   3.365  18.185  0.00  0.00    +0.000 A 
ATOM     26  N   UNL     1      52.700   2.458  18.402  0.00  0.00    +0.000 NA
ATOM     27  C   UNL     1      52.496   1.311  17.847  0.00  0.00    +0.000 A 
ATOM     28  N   UNL     1      51.400   0.990  17.084  0.00  0.00    +0.000 N 
ATOM     29  C   UNL     1      50.378   1.877  16.822  0.00  0.00    +0.000 A 
ATOM     30  O   UNL     1      49.416   1.566  16.129  0.00  0.00    +0.000 OA
ATOM     31  C   UNL     1      50.557   3.179  17.441  0.00  0.00    +0.000 A 
ATOM     32  H   UNL     1      51.308   0.072  16.677  0.00  0.00    +0.000 HD
ENDBRANCH  21  22
ENDBRANCH  18  21
ENDBRANCH   1  18
TORSDOF 8
ENDMDL
MODEL 3
REMARK VINA RESULT:    -7.094      2.215      3.182
REMARK INTER + INTRA:         -11.388
REMARK INTER:                 -10.300
REMARK INTRA:                  -1.088
REMARK UNBOUND:                -0.977
REMARK  Name = 
REMARK  9 active torsions:
REMARK  status: ('A' for Active; 'I' for Inactive)
REMARK    1  A    between atoms: C_1  and  C_2
REMARK    2  A    between atoms: C_2  and  N_3
REMARK    3  A    between atoms: C_2  and  C_19
REMARK    4  A    between atoms: N_3  and  C_4
REMARK    5  A    between atoms: C_4  and  C_5
REMARK    6  A    between atoms: C_8  and  C_9
REMARK    7  A    between atoms: C_9  and  N_10
REMARK    8  A    between atoms: N_10  and  C_11
REMARK    9  A    between atoms: C_11  and  C_12
REMARK                            x       y       z     vdW  Elec       q    Type
REMARK                         _______ _______ _______ _____ _____    ______ ____
ROOT
ATOM      1  C   UNL     1      49.212   6.718  15.268  0.00  0.00    +0.000 C 
ENDROOT
BRANCH   1   2
ATOM      2  C   UNL     1      48.089   6.933  14.270  0.00  0.00    +0.000 A 
ATOM      3  C   UNL     1      47.621   5.866  13.492  0.00  0.00    +0.000 A 
ATOM      4  C   UNL     1      46.623   6.067  12.537  0.00  0.00    +0.000 A 
ATOM      5  C   UNL     1      46.029   7.327  12.365  0.00  0.00    +0.000 A 
ATOM      6  C   UNL     1      46.496   8.393  13.144  0.00  0.00    +0.000 A 
ATOM      7  C   UNL     1      47.515   8.199  14.085  0.00  0.00    +0.000 A 
BRANCH   5   8
ATOM      8  C   UNL     1      44.954   7.552  11.320  0.00  0.00    +0.000 C 
BRANCH   8   9
ATOM      9  N   UNL     1      44.421   6.282  10.832  0.00  0.00    +0.000 NA
ATOM     10  H   UNL     1      45.182   5.605  10.774  0.00  0.00    +0.000 HD
BRANCH   9  11
ATOM     11  C   UNL     1      43.334   5.755  11.646  0.00  0.00    +0.000 C 
BRANCH  11  12
ATOM     12  C   UNL     1      43.113   4.273  11.285  0.00  0.00    +0.000 C 
ATOM     13  C   UNL     1      43.451   3.323  12.433  0.00  0.00    +0.000 C 
ATOM     14  C   UNL     1      44.939   3.116  12.260  0.00  0.00    +0.000 C 
ATOM     15  N   UNL     1      45.117   2.992  10.809  0.00  0.00    +0.000 NA
ATOM     16  C   UNL     1      44.066   3.812  10.179  0.00  0.00    +0.000 C 
ATOM     17  H   UNL     1      44.956   2.017  10.553  0.00  0.00    +0.000 HD
ENDBRANCH  11  12
ENDBRANCH   9  11
ENDBRANCH   8   9
ENDBRANCH   5   8
ENDBRANCH   1   2
BRANCH   1  18
ATOM     18  N   UNL     1      48.667   6.312  16.559  0.00  0.00    +0.000 NA
ATOM     19  H   UNL     1      49.217   6.757  17.292  0.00  0.00    +0.000 HD
BRANCH  18  21
ATOM     20  C   UNL     1      47.500   4.429  17.704  0.00  0.00    +0.000 C 
ATOM     21  C   UNL     1      48.669   4.866  16.817  0.00  0.00    +0.000 C 
BRANCH  21  22
ATOM     22  C   UNL     1      49.994   4.550  17.499  0.00  0.00    +0.000 A 
ATOM     23  C   UNL     1      50.707   5.453  18.280  0.00  0.00    +0.000 A 
ATOM     24  S   UNL     1      52.160   4.818  18.905  0.00  0.00    +0.000 S 
ATOM     25  C   UNL     1      51.869   3.301  18.194  0.00  0.00    +0.000 A 
ATOM     26  N   UNL     1      52.736   2.267  18.372  0.00  0.00    +0.000 NA
ATOM     27  C   UNL     1      52.374   1.170  17.796  0.00  0.00    +0.000 A 
ATOM     28  N   UNL     1      51.233   1.014  17.048  0.00  0.00    +0.000 N 
ATOM     29  C   UNL     1      50.332   2.033  16.826  0.00  0.00    +0.000 A 
ATOM     30  O   UNL     1      49.326   1.867  16.145  0.00  0.00    +0.000 OA
ATOM     31  C   UNL     1      50.690   3.285  17.470  0.00  0.00    +0.000 A 
ATOM     32  H   UNL     1      51.014   0.126  16.623  0.00  0.00    +0.000 HD
ENDBRANCH  21  22
ENDBRANCH  18  21
ENDBRANCH   1  18
TORSDOF 8
ENDMDL
MODEL 4
REMARK VINA RESULT:    -6.987      2.287      2.760
REMARK INTER + INTRA:         -11.231
REMARK INTER:                 -10.178
REMARK INTRA:                  -1.053
REMARK UNBOUND:                -0.977
REMARK  Name = 
REMARK  9 active torsions:
REMARK  status: ('A' for Active; 'I' for Inactive)
REMARK    1  A    between atoms: C_1  and  C_2
REMARK    2  A    between atoms: C_2  and  N_3
REMARK    3  A    between atoms: C_2  and  C_19
REMARK    4  A    between atoms: N_3  and  C_4
REMARK    5  A    between atoms: C_4  and  C_5
REMARK    6  A    between atoms: C_8  and  C_9
REMARK    7  A    between atoms: C_9  and  N_10
REMARK    8  A    between atoms: N_10  and  C_11
REMARK    9  A    between atoms: C_11  and  C_12
REMARK                            x       y       z     vdW  Elec       q    Type
REMARK                         _______ _______ _______ _____ _____    ______ ____
ROOT
ATOM      1  C   UNL     1      47.315   5.518  14.465  0.00  0.00    +0.000 C 
ENDROOT
BRANCH   1   2
ATOM      2  C   UNL     1      46.477   5.036  13.297  0.00  0.00    +0.000 A 
ATOM      3  C   UNL     1      45.996   3.720  13.268  0.00  0.00    +0.000 A 
ATOM      4  C   UNL     1      45.266   3.254  12.173  0.00  0.00    +0.000 A 
ATOM      5  C   UNL     1      44.954   4.101  11.097  0.00  0.00    +0.000 A 
ATOM      6  C   UNL     1      45.434   5.416  11.127  0.00  0.00    +0.000 A 
ATOM      7  C   UNL     1      46.188   5.878  12.214  0.00  0.00    +0.000 A 
BRANCH   5   8
ATOM      8  C   UNL     1      44.172   3.594   9.901  0.00  0.00    +0.000 C 
BRANCH   8   9
ATOM      9  N   UNL     1      44.421   2.172   9.675  0.00  0.00    +0.000 NA
ATOM     10  H   UNL     1      43.578   1.648   9.908  0.00  0.00    +0.000 HD
BRANCH   9  11
ATOM     11  C   UNL     1      44.850   1.865   8.317  0.00  0.00    +0.000 C 
BRANCH  11  12
ATOM     12  C   UNL     1      46.367   2.115   8.204  0.00  0.00    +0.000 C 
ATOM     13  C   UNL     1      46.709   3.317   7.326  0.00  0.00    +0.000 C 
ATOM     14  C   UNL     1      46.732   2.715   5.938  0.00  0.00    +0.000 C 
ATOM     15  N   UNL     1      47.399   1.421   6.122  0.00  0.00    +0.000 NA
ATOM     16  C   UNL     1      47.078   0.965   7.486  0.00  0.00    +0.000 C 
ATOM     17  H   UNL     1      48.408   1.575   6.067  0.00  0.00    +0.000 HD
ENDBRANCH  11  12
ENDBRANCH   9  11
ENDBRANCH   8   9
ENDBRANCH   5   8
ENDBRANCH   1   2
BRANCH   1  18
ATOM     18  N   UNL     1      46.981   4.765  15.670  0.00  0.00    +0.000 NA
ATOM     19  H   UNL     1      46.348   5.330  16.234  0.00  0.00    +0.000 HD
BRANCH  18  21
ATOM     20  C   UNL     1      48.003   2.969  17.065  0.00  0.00    +0.000 C 
ATOM     21  C   UNL     1      48.122   4.394  16.517  0.00  0.00    +0.000 C 
BRANCH  21  22
ATOM     22  C   UNL     1      48.155   5.398  17.662  0.00  0.00    +0.000 A 
ATOM     23  C   UNL     1      47.324   5.342  18.776  0.00  0.00    +0.000 A 
ATOM     24  S   UNL     1      47.585   6.606  19.888  0.00  0.00    +0.000 S 
ATOM     25  C   UNL     1      48.847   7.248  18.948  0.00  0.00    +0.000 A 
ATOM     26  N   UNL     1      49.537   8.346  19.360  0.00  0.00    +0.000 NA
ATOM     27  C   UNL     1      50.483   8.707  18.559  0.00  0.00    +0.000 A 
ATOM     28  N   UNL     1      50.795   8.079  17.378  0.00  0.00    +0.000 N 
ATOM     29  C   UNL     1      50.118   6.974  16.910  0.00  0.00    +0.000 A 
ATOM     30  O   UNL     1      50.412   6.440  15.847  0.00  0.00    +0.000 OA
ATOM     31  C   UNL     1      49.052   6.521  17.788  0.00  0.00    +0.000 A 
ATOM     32  H   UNL     1      51.548   8.418  16.799  0.00  0.00    +0.000 HD
ENDBRANCH  21  22
ENDBRANCH  18  21
ENDBRANCH   1  18
TORSDOF 8
ENDMDL
MODEL 5
REMARK VINA RESULT:    -6.876      1.703      2.404
REMARK INTER + INTRA:         -11.068
REMARK INTER:                 -10.096
REMARK INTRA:                  -0.972
REMARK UNBOUND:                -0.977
REMARK  Name = 
REMARK  9 active torsions:
REMARK  status: ('A' for Active; 'I' for Inactive)
REMARK    1  A    between atoms: C_1  and  C_2
REMARK    2  A    between atoms: C_2  and  N_3
REMARK    3  A    between atoms: C_2  and  C_19
REMARK    4  A    between atoms: N_3  and  C_4
REMARK    5  A    between atoms: C_4  and  C_5
REMARK    6  A    between atoms: C_8  and  C_9
REMARK    7  A    between atoms: C_9  and  N_10
REMARK    8  A    between atoms: N_10  and  C_11
REMARK    9  A    between atoms: C_11  and  C_12
REMARK                            x       y       z     vdW  Elec       q    Type
REMARK                         _______ _______ _______ _____ _____    ______ ____
ROOT
ATOM      1  C   UNL     1      47.207   5.171  14.708  0.00  0.00    +0.000 C 
ENDROOT
BRANCH   1   2
ATOM      2  C   UNL     1      46.497   4.967  13.383  0.00  0.00    +0.000 A 
ATOM      3  C   UNL     1      45.888   3.739  13.089  0.00  0.00    +0.000 A 
ATOM      4  C   UNL     1      45.276   3.527  11.853  0.00  0.00    +0.000 A 
ATOM      5  C   UNL     1      45.209   4.550  10.893  0.00  0.00    +0.000 A 
ATOM      6  C   UNL     1      45.816   5.777  11.188  0.00  0.00    +0.000 A 
ATOM      7  C   UNL     1      46.453   5.983  12.418  0.00  0.00    +0.000 A 
BRANCH   5   8
ATOM      8  C   UNL     1      44.556   4.319   9.545  0.00  0.00    +0.000 C 
BRANCH   8   9
ATOM      9  N   UNL     1      45.302   4.981   8.478  0.00  0.00    +0.000 NA
ATOM     10  H   UNL     1      45.588   5.906   8.800  0.00  0.00    +0.000 HD
BRANCH   9  11
ATOM     11  C   UNL     1      46.458   4.223   8.019  0.00  0.00    +0.000 C 
BRANCH  11  12
ATOM     12  C   UNL     1      45.968   3.019   7.191  0.00  0.00    +0.000 C 
ATOM     13  C   UNL     1      46.352   1.676   7.809  0.00  0.00    +0.000 C 
ATOM     14  C   UNL     1      47.745   1.449   7.264  0.00  0.00    +0.000 C 
ATOM     15  N   UNL     1      47.659   1.890   5.868  0.00  0.00    +0.000 NA
ATOM     16  C   UNL     1      46.647   2.961   5.820  0.00  0.00    +0.000 C 
ATOM     17  H   UNL     1      47.318   1.106   5.309  0.00  0.00    +0.000 HD
ENDBRANCH  11  12
ENDBRANCH   9  11
ENDBRANCH   8   9
ENDBRANCH   5   8
ENDBRANCH   1   2
BRANCH   1  18
ATOM     18  N   UNL     1      48.427   5.948  14.511  0.00  0.00    +0.000 NA
ATOM     19  H   UNL     1      49.210   5.300  14.440  0.00  0.00    +0.000 HD
BRANCH  18  21
ATOM     20  C   UNL     1      48.586   8.362  15.114  0.00  0.00    +0.000 C 
ATOM     21  C   UNL     1      48.739   6.909  15.576  0.00  0.00    +0.000 C 
BRANCH  21  22
ATOM     22  C   UNL     1      50.179   6.640  15.994  0.00  0.00    +0.000 A 
ATOM     23  C   UNL     1      51.275   7.363  15.535  0.00  0.00    +0.000 A 
ATOM     24  S   UNL     1      52.762   6.826  16.171  0.00  0.00    +0.000 S 
ATOM     25  C   UNL     1      51.995   5.639  17.117  0.00  0.00    +0.000 A 
ATOM     26  N   UNL     1      52.712   4.831  17.942  0.00  0.00    +0.000 NA
ATOM     27  C   UNL     1      51.996   3.995  18.616  0.00  0.00    +0.000 A 
ATOM     28  N   UNL     1      50.629   3.884  18.532  0.00  0.00    +0.000 N 
ATOM     29  C   UNL     1      49.859   4.668  17.701  0.00  0.00    +0.000 A 
ATOM     30  O   UNL     1      48.642   4.540  17.638  0.00  0.00    +0.000 OA
ATOM     31  C   UNL     1      50.623   5.637  16.932  0.00  0.00    +0.000 A 
ATOM     32  H   UNL     1      50.133   3.204  19.088  0.00  0.00    +0.000 HD
ENDBRANCH  21  22
ENDBRANCH  18  21
ENDBRANCH   1  18
TORSDOF 8
ENDMDL
MODEL 6
REMARK VINA RESULT:    -6.756      3.294      8.833
REMARK INTER + INTRA:         -10.892
REMARK INTER:                  -9.558
REMARK INTRA:                  -1.334
REMARK UNBOUND:                -0.977
REMARK  Name = 
REMARK  9 active torsions:
REMARK  status: ('A' for Active; 'I' for Inactive)
REMARK    1  A    between atoms: C_1  and  C_2
REMARK    2  A    between atoms: C_2  and  N_3
REMARK    3  A    between atoms: C_2  and  C_19
REMARK    4  A    between atoms: N_3  and  C_4
REMARK    5  A    between atoms: C_4  and  C_5
REMARK    6  A    between atoms: C_8  and  C_9
REMARK    7  A    between atoms: C_9  and  N_10
REMARK    8  A    between atoms: N_10  and  C_11
REMARK    9  A    between atoms: C_11  and  C_12
REMARK                            x       y       z     vdW  Elec       q    Type
REMARK                         _______ _______ _______ _____ _____    ______ ____
ROOT
ATOM      1  C   UNL     1      47.948   7.912  11.817  0.00  0.00    +0.000 C 
ENDROOT
BRANCH   1   2
ATOM      2  C   UNL     1      48.693   7.536  13.083  0.00  0.00    +0.000 A 
ATOM      3  C   UNL     1      48.143   6.608  13.978  0.00  0.00    +0.000 A 
ATOM      4  C   UNL     1      48.799   6.294  15.169  0.00  0.00    +0.000 A 
ATOM      5  C   UNL     1      50.047   6.859  15.480  0.00  0.00    +0.000 A 
ATOM      6  C   UNL     1      50.597   7.785  14.584  0.00  0.00    +0.000 A 
ATOM      7  C   UNL     1      49.928   8.121  13.400  0.00  0.00    +0.000 A 
BRANCH   5   8
ATOM      8  C   UNL     1      50.756   6.530  16.778  0.00  0.00    +0.000 C 
BRANCH   8   9
ATOM      9  N   UNL     1      50.643   5.108  17.093  0.00  0.00    +0.000 NA
ATOM     10  H   UNL     1      51.575   4.733  17.267  0.00  0.00    +0.000 HD
BRANCH   9  11
ATOM     11  C   UNL     1      49.764   4.828  18.220  0.00  0.00    +0.000 C 
BRANCH  11  12
ATOM     12  C   UNL     1      49.319   3.354  18.153  0.00  0.00    +0.000 C 
ATOM     13  C   UNL     1      49.038   2.881  16.728  0.00  0.00    +0.000 C 
ATOM     14  C   UNL     1      47.598   3.298  16.521  0.00  0.00    +0.000 C 
ATOM     15  N   UNL     1      46.949   2.982  17.798  0.00  0.00    +0.000 NA
ATOM     16  C   UNL     1      47.972   3.137  18.848  0.00  0.00    +0.000 C 
ATOM     17  H   UNL     1      46.664   2.002  17.774  0.00  0.00    +0.000 HD
ENDBRANCH  11  12
ENDBRANCH   9  11
ENDBRANCH   8   9
ENDBRANCH   5   8
ENDBRANCH   1   2
BRANCH   1  18
ATOM     18  N   UNL     1      47.111   6.801  11.375  0.00  0.00    +0.000 NA
ATOM     19  H   UNL     1      47.416   6.523  10.444  0.00  0.00    +0.000 HD
BRANCH  18  21
ATOM     20  C   UNL     1      45.223   8.081  12.380  0.00  0.00    +0.000 C 
ATOM     21  C   UNL     1      45.673   7.085  11.307  0.00  0.00    +0.000 C 
BRANCH  21  22
ATOM     22  C   UNL     1      44.958   5.753  11.493  0.00  0.00    +0.000 A 
ATOM     23  C   UNL     1      44.219   5.412  12.620  0.00  0.00    +0.000 A 
ATOM     24  S   UNL     1      43.542   3.850  12.548  0.00  0.00    +0.000 S 
ATOM     25  C   UNL     1      44.172   3.588  10.991  0.00  0.00    +0.000 A 
ATOM     26  N   UNL     1      43.928   2.427  10.324  0.00  0.00    +0.000 NA
ATOM     27  C   UNL     1      44.448   2.378   9.143  0.00  0.00    +0.000 A 
ATOM     28  N   UNL     1      45.200   3.375   8.573  0.00  0.00    +0.000 N 
ATOM     29  C   UNL     1      45.488   4.562   9.212  0.00  0.00    +0.000 A 
ATOM     30  O   UNL     1      46.171   5.431   8.682  0.00  0.00    +0.000 OA
ATOM     31  C   UNL     1      44.909   4.669  10.541  0.00  0.00    +0.000 A 
ATOM     32  H   UNL     1      45.578   3.267   7.644  0.00  0.00    +0.000 HD
ENDBRANCH  21  22
ENDBRANCH  18  21
ENDBRANCH   1  18
TORSDOF 8
ENDMDL
MODEL 7
REMARK VINA RESULT:    -6.713      3.731      9.318
REMARK INTER + INTRA:         -10.830
REMARK INTER:                  -9.816
REMARK INTRA:                  -1.013
REMARK UNBOUND:                -0.977
REMARK  Name = 
REMARK  9 active torsions:
REMARK  status: ('A' for Active; 'I' for Inactive)
REMARK    1  A    between atoms: C_1  and  C_2
REMARK    2  A    between atoms: C_2  and  N_3
REMARK    3  A    between atoms: C_2  and  C_19
REMARK    4  A    between atoms: N_3  and  C_4
REMARK    5  A    between atoms: C_4  and  C_5
REMARK    6  A    between atoms: C_8  and  C_9
REMARK    7  A    between atoms: C_9  and  N_10
REMARK    8  A    between atoms: N_10  and  C_11
REMARK    9  A    between atoms: C_11  and  C_12
REMARK                            x       y       z     vdW  Elec       q    Type
REMARK                         _______ _______ _______ _____ _____    ______ ____
ROOT
ATOM      1  C   UNL     1      43.712   3.168  11.770  0.00  0.00    +0.000 C 
ENDROOT
BRANCH   1   2
ATOM      2  C   UNL     1      44.834   3.958  12.416  0.00  0.00    +0.000 A 
ATOM      3  C   UNL     1      45.939   3.296  12.967  0.00  0.00    +0.000 A 
ATOM      4  C   UNL     1      46.951   4.013  13.607  0.00  0.00    +0.000 A 
ATOM      5  C   UNL     1      46.915   5.415  13.672  0.00  0.00    +0.000 A 
ATOM      6  C   UNL     1      45.812   6.077  13.120  0.00  0.00    +0.000 A 
ATOM      7  C   UNL     1      44.782   5.357  12.500  0.00  0.00    +0.000 A 
BRANCH   5   8
ATOM      8  C   UNL     1      48.007   6.196  14.377  0.00  0.00    +0.000 C 
BRANCH   8   9
ATOM      9  N   UNL     1      47.879   6.086  15.828  0.00  0.00    +0.000 NA
ATOM     10  H   UNL     1      47.095   5.471  16.045  0.00  0.00    +0.000 HD
BRANCH   9  11
ATOM     11  C   UNL     1      49.091   5.616  16.485  0.00  0.00    +0.000 C 
BRANCH  11  12
ATOM     12  C   UNL     1      48.698   4.798  17.732  0.00  0.00    +0.000 C 
ATOM     13  C   UNL     1      49.115   3.332  17.638  0.00  0.00    +0.000 C 
ATOM     14  C   UNL     1      47.955   2.707  16.895  0.00  0.00    +0.000 C 
ATOM     15  N   UNL     1      46.771   3.347  17.478  0.00  0.00    +0.000 NA
ATOM     16  C   UNL     1      47.179   4.703  17.890  0.00  0.00    +0.000 C 
ATOM     17  H   UNL     1      46.510   2.826  18.316  0.00  0.00    +0.000 HD
ENDBRANCH  11  12
ENDBRANCH   9  11
ENDBRANCH   8   9
ENDBRANCH   5   8
ENDBRANCH   1   2
BRANCH   1  18
ATOM     18  N   UNL     1      44.223   2.400  10.639  0.00  0.00    +0.000 NA
ATOM     19  H   UNL     1      44.891   1.717  10.993  0.00  0.00    +0.000 HD
BRANCH  18  21
ATOM     20  C   UNL     1      43.918   4.034   8.781  0.00  0.00    +0.000 C 
ATOM     21  C   UNL     1      44.897   3.186   9.598  0.00  0.00    +0.000 C 
BRANCH  21  22
ATOM     22  C   UNL     1      45.609   2.187   8.695  0.00  0.00    +0.000 A 
ATOM     23  C   UNL     1      45.439   0.809   8.764  0.00  0.00    +0.000 A 
ATOM     24  S   UNL     1      46.375  -0.053   7.631  0.00  0.00    +0.000 S 
ATOM     25  C   UNL     1      47.008   1.383   6.976  0.00  0.00    +0.000 A 
ATOM     26  N   UNL     1      47.872   1.351   5.926  0.00  0.00    +0.000 NA
ATOM     27  C   UNL     1      48.251   2.516   5.518  0.00  0.00    +0.000 A 
ATOM     28  N   UNL     1      47.855   3.709   6.072  0.00  0.00    +0.000 N 
ATOM     29  C   UNL     1      46.994   3.794   7.145  0.00  0.00    +0.000 A 
ATOM     30  O   UNL     1      46.667   4.873   7.625  0.00  0.00    +0.000 OA
ATOM     31  C   UNL     1      46.529   2.505   7.629  0.00  0.00    +0.000 A 
ATOM     32  H   UNL     1      48.194   4.584   5.702  0.00  0.00    +0.000 HD
ENDBRANCH  21  22
ENDBRANCH  18  21
ENDBRANCH   1  18
TORSDOF 8
ENDMDL
MODEL 8
REMARK VINA RESULT:    -6.677      3.076      4.607
REMARK INTER + INTRA:         -10.776
REMARK INTER:                  -9.024
REMARK INTRA:                  -1.752
REMARK UNBOUND:                -0.977
REMARK  Name = 
REMARK  9 active torsions:
REMARK  status: ('A' for Active; 'I' for Inactive)
REMARK    1  A    between atoms: C_1  and  C_2
REMARK    2  A    between atoms: C_2  and  N_3
REMARK    3  A    between atoms: C_2  and  C_19
REMARK    4  A    between atoms: N_3  and  C_4
REMARK    5  A    between atoms: C_4  and  C_5
REMARK    6  A    between atoms: C_8  and  C_9
REMARK    7  A    between atoms: C_9  and  N_10
REMARK    8  A    between atoms: N_10  and  C_11
REMARK    9  A    between atoms: C_11  and  C_12
REMARK                            x       y       z     vdW  Elec       q    Type
REMARK                         _______ _______ _______ _____ _____    ______ ____
ROOT
ATOM      1  C   UNL     1      49.036   8.110  17.177  0.00  0.00    +0.000 C 
ENDROOT
BRANCH   1   2
ATOM      2  C   UNL     1      48.501   7.900  15.774  0.00  0.00    +0.000 A 
ATOM      3  C   UNL     1      48.561   6.634  15.176  0.00  0.00    +0.000 A 
ATOM      4  C   UNL     1      48.117   6.444  13.866  0.00  0.00    +0.000 A 
ATOM      5  C   UNL     1      47.554   7.501  13.132  0.00  0.00    +0.000 A 
ATOM      6  C   UNL     1      47.493   8.765  13.730  0.00  0.00    +0.000 A 
ATOM      7  C   UNL     1      47.962   8.964  15.035  0.00  0.00    +0.000 A 
BRANCH   5   8
ATOM      8  C   UNL     1      47.082   7.301  11.706  0.00  0.00    +0.000 C 
BRANCH   8   9
ATOM      9  N   UNL     1      45.688   6.866  11.669  0.00  0.00    +0.000 NA
ATOM     10  H   UNL     1      45.113   7.628  11.310  0.00  0.00    +0.000 HD
BRANCH   9  11
ATOM     11  C   UNL     1      45.476   5.656  10.885  0.00  0.00    +0.000 C 
BRANCH  11  12
ATOM     12  C   UNL     1      44.659   4.654  11.725  0.00  0.00    +0.000 C 
ATOM     13  C   UNL     1      43.252   4.426  11.177  0.00  0.00    +0.000 C 
ATOM     14  C   UNL     1      42.466   5.553  11.808  0.00  0.00    +0.000 C 
ATOM     15  N   UNL     1      42.978   5.620  13.181  0.00  0.00    +0.000 NA
ATOM     16  C   UNL     1      44.386   5.187  13.133  0.00  0.00    +0.000 C 
ATOM     17  H   UNL     1      42.457   4.947  13.746  0.00  0.00    +0.000 HD
ENDBRANCH  11  12
ENDBRANCH   9  11
ENDBRANCH   8   9
ENDBRANCH   5   8
ENDBRANCH   1   2
BRANCH   1  18
ATOM     18  N   UNL     1      48.169   7.452  18.150  0.00  0.00    +0.000 NA
ATOM     19  H   UNL     1      47.568   8.160  18.571  0.00  0.00    +0.000 HD
BRANCH  18  21
ATOM     20  C   UNL     1      49.816   7.670  20.009  0.00  0.00    +0.000 C 
ATOM     21  C   UNL     1      48.862   6.752  19.239  0.00  0.00    +0.000 C 
BRANCH  21  22
ATOM     22  C   UNL     1      49.636   5.609  18.596  0.00  0.00    +0.000 A 
ATOM     23  C   UNL     1      51.021   5.491  18.621  0.00  0.00    +0.000 A 
ATOM     24  S   UNL     1      51.604   4.111  17.808  0.00  0.00    +0.000 S 
ATOM     25  C   UNL     1      50.028   3.597  17.432  0.00  0.00    +0.000 A 
ATOM     26  N   UNL     1      49.814   2.436  16.755  0.00  0.00    +0.000 NA
ATOM     27  C   UNL     1      48.567   2.160  16.562  0.00  0.00    +0.000 A 
ATOM     28  N   UNL     1      47.516   2.944  16.971  0.00  0.00    +0.000 N 
ATOM     29  C   UNL     1      47.681   4.134  17.645  0.00  0.00    +0.000 A 
ATOM     30  O   UNL     1      46.723   4.818  17.989  0.00  0.00    +0.000 OA
ATOM     31  C   UNL     1      49.069   4.478  17.900  0.00  0.00    +0.000 A 
ATOM     32  H   UNL     1      46.565   2.666  16.783  0.00  0.00    +0.000 HD
ENDBRANCH  21  22
ENDBRANCH  18  21
ENDBRANCH   1  18
TORSDOF 8
ENDMDL
MODEL 9
REMARK VINA RESULT:    -6.496      2.379      3.654
REMARK INTER + INTRA:         -10.510
REMARK INTER:                  -9.168
REMARK INTRA:                  -1.342
REMARK UNBOUND:                -0.977
REMARK  Name = 
REMARK  9 active torsions:
REMARK  status: ('A' for Active; 'I' for Inactive)
REMARK    1  A    between atoms: C_1  and  C_2
REMARK    2  A    between atoms: C_2  and  N_3
REMARK    3  A    between atoms: C_2  and  C_19
REMARK    4  A    between atoms: N_3  and  C_4
REMARK    5  A    between atoms: C_4  and  C_5
REMARK    6  A    between atoms: C_8  and  C_9
REMARK    7  A    between atoms: C_9  and  N_10
REMARK    8  A    between atoms: N_10  and  C_11
REMARK    9  A    between atoms: C_11  and  C_12
REMARK                            x       y       z     vdW  Elec       q    Type
REMARK                         _______ _______ _______ _____ _____    ______ ____
ROOT
ATOM      1  C   UNL     1      50.125   8.080  13.603  0.00  0.00    +0.000 C 
ENDROOT
BRANCH   1   2
ATOM      2  C   UNL     1      48.719   7.953  13.049  0.00  0.00    +0.000 A 
ATOM      3  C   UNL     1      47.749   8.918  13.356  0.00  0.00    +0.000 A 
ATOM      4  C   UNL     1      46.440   8.782  12.891  0.00  0.00    +0.000 A 
ATOM      5  C   UNL     1      46.072   7.707  12.066  0.00  0.00    +0.000 A 
ATOM      6  C   UNL     1      47.041   6.745  11.759  0.00  0.00    +0.000 A 
ATOM      7  C   UNL     1      48.350   6.865  12.246  0.00  0.00    +0.000 A 
BRANCH   5   8
ATOM      8  C   UNL     1      44.648   7.551  11.570  0.00  0.00    +0.000 C 
BRANCH   8   9
ATOM      9  N   UNL     1      44.061   6.300  12.044  0.00  0.00    +0.000 NA
ATOM     10  H   UNL     1      43.292   6.515  12.678  0.00  0.00    +0.000 HD
BRANCH   9  11
ATOM     11  C   UNL     1      43.604   5.428  10.970  0.00  0.00    +0.000 C 
BRANCH  11  12
ATOM     12  C   UNL     1      44.695   4.376  10.683  0.00  0.00    +0.000 C 
ATOM     13  C   UNL     1      45.410   4.608   9.354  0.00  0.00    +0.000 C 
ATOM     14  C   UNL     1      44.507   3.901   8.367  0.00  0.00    +0.000 C 
ATOM     15  N   UNL     1      44.115   2.670   9.061  0.00  0.00    +0.000 NA
ATOM     16  C   UNL     1      44.098   2.978  10.502  0.00  0.00    +0.000 C 
ATOM     17  H   UNL     1      44.838   1.968   8.894  0.00  0.00    +0.000 HD
ENDBRANCH  11  12
ENDBRANCH   9  11
ENDBRANCH   8   9
ENDBRANCH   5   8
ENDBRANCH   1   2
BRANCH   1  18
ATOM     18  N   UNL     1      50.305   7.174  14.734  0.00  0.00    +0.000 NA
ATOM     19  H   UNL     1      50.071   6.231  14.428  0.00  0.00    +0.000 HD
BRANCH  18  21
ATOM     20  C   UNL     1      49.911   8.775  16.604  0.00  0.00    +0.000 C 
ATOM     21  C   UNL     1      49.487   7.475  15.916  0.00  0.00    +0.000 C 
BRANCH  21  22
ATOM     22  C   UNL     1      49.652   6.297  16.868  0.00  0.00    +0.000 A 
ATOM     23  C   UNL     1      50.601   6.238  17.882  0.00  0.00    +0.000 A 
ATOM     24  S   UNL     1      50.554   4.791  18.780  0.00  0.00    +0.000 S 
ATOM     25  C   UNL     1      49.235   4.208  17.878  0.00  0.00    +0.000 A 
ATOM     26  N   UNL     1      48.671   3.004  18.163  0.00  0.00    +0.000 NA
ATOM     27  C   UNL     1      47.664   2.702  17.414  0.00  0.00    +0.000 A 
ATOM     28  N   UNL     1      47.177   3.488  16.398  0.00  0.00    +0.000 N 
ATOM     29  C   UNL     1      47.721   4.708  16.061  0.00  0.00    +0.000 A 
ATOM     30  O   UNL     1      47.272   5.383  15.142  0.00  0.00    +0.000 OA
ATOM     31  C   UNL     1      48.850   5.097  16.889  0.00  0.00    +0.000 A 
ATOM     32  H   UNL     1      46.385   3.187  15.850  0.00  0.00    +0.000 HD
ENDBRANCH  21  22
ENDBRANCH  18  21
ENDBRANCH   1  18
TORSDOF 8
ENDMDL
