MODEL 1
REMARK VINA RESULT:    -8.094      0.000      0.000
REMARK INTER + INTRA:         -11.318
REMARK INTER:                 -10.696
REMARK INTRA:                  -0.622
REMARK UNBOUND:                -0.622
REMARK  Name = 
REMARK  6 active torsions:
REMARK  status: ('A' for Active; 'I' for Inactive)
REMARK    1  A    between atoms: N_1  and  C_2
REMARK    2  A    between atoms: C_2  and  C_3
REMARK    3  A    between atoms: C_6  and  O_7
REMARK    4  A    between atoms: O_7  and  C_8
REMARK    5  A    between atoms: C_8  and  C_9
REMARK    6  A    between atoms: C_13  and  C_14
REMARK                            x       y       z     vdW  Elec       q    Type
REMARK                         _______ _______ _______ _____ _____    ______ ____
ROOT
ATOM      1  C   UNL     1      43.581   3.167  11.465  0.00  0.00    +0.000 C 
ENDROOT
BRANCH   1   2
ATOM      2  C   UNL     1      44.625   3.930  12.256  0.00  0.00    +0.000 A 
ATOM      3  C   UNL     1      44.564   5.315  12.334  0.00  0.00    +0.000 A 
ATOM      4  C   UNL     1      45.593   5.987  12.980  0.00  0.00    +0.000 A 
ATOM      5  F   UNL     1      45.534   7.330  13.025  0.00  0.00    +0.000 F 
ATOM      6  C   UNL     1      46.660   5.300  13.541  0.00  0.00    +0.000 A 
ATOM      7  C   UNL     1      46.622   3.919  13.452  0.00  0.00    +0.000 A 
ATOM      8  N   UNL     1      45.639   3.224  12.818  0.00  0.00    +0.000 NA
BRANCH   6   9
ATOM      9  C   UNL     1      47.826   5.948  14.169  0.00  0.00    +0.000 C 
ATOM     10  N   UNL     1      47.841   6.076  15.529  0.00  0.00    +0.000 N 
ATOM     11  O   UNL     1      48.749   6.391  13.493  0.00  0.00    +0.000 OA
ATOM     12  H   UNL     1      47.090   5.746  16.124  0.00  0.00    +0.000 HD
ATOM     13  H   UNL     1      48.614   6.569  15.955  0.00  0.00    +0.000 HD
ENDBRANCH   6   9
ENDBRANCH   1   2
BRANCH   1  14
ATOM     14  O   UNL     1      43.510   3.696  10.141  0.00  0.00    +0.000 OA
BRANCH  14  18
ATOM     15  C   UNL     1      46.488   2.265   7.569  0.00  0.00    +0.000 A 
ATOM     16  C   UNL     1      46.191   3.635   7.567  0.00  0.00    +0.000 A 
ATOM     17  C   UNL     1      45.202   4.162   8.408  0.00  0.00    +0.000 A 
ATOM     18  C   UNL     1      44.495   3.322   9.268  0.00  0.00    +0.000 A 
ATOM     19  C   UNL     1      44.782   1.955   9.270  0.00  0.00    +0.000 A 
ATOM     20  C   UNL     1      45.768   1.428   8.430  0.00  0.00    +0.000 A 
BRANCH  15  21
ATOM     21  C   UNL     1      47.527   1.699   6.633  0.00  0.00    +0.000 C 
BRANCH  21  22
ATOM     22  N   UNL     1      48.629   2.628   6.409  0.00  0.00    +0.000 NA
ATOM     23  H   UNL     1      48.551   3.399   7.069  0.00  0.00    +0.000 HD
ATOM     24  H   UNL     1      48.532   3.036   5.480  0.00  0.00    +0.000 HD
ENDBRANCH  21  22
ENDBRANCH  15  21
ENDBRANCH  14  18
ENDBRANCH   1  14
TORSDOF 6
ENDMDL
MODEL 2
REMARK VINA RESULT:    -7.784      2.728      6.426
REMARK INTER + INTRA:         -10.909
REMARK INTER:                 -10.472
REMARK INTRA:                  -0.437
REMARK UNBOUND:                -0.622
REMARK  Name = 
REMARK  6 active torsions:
REMARK  status: ('A' for Active; 'I' for Inactive)
REMARK    1  A    between atoms: N_1  and  C_2
REMARK    2  A    between atoms: C_2  and  C_3
REMARK    3  A    between atoms: C_6  and  O_7
REMARK    4  A    between atoms: O_7  and  C_8
REMARK    5  A    between atoms: C_8  and  C_9
REMARK    6  A    between atoms: C_13  and  C_14
REMARK                            x       y       z     vdW  Elec       q    Type
REMARK                         _______ _______ _______ _____ _____    ______ ____
ROOT
ATOM      1  C   UNL     1      43.811   4.523  10.124  0.00  0.00    +0.000 C 
ENDROOT
BRANCH   1   2
ATOM      2  C   UNL     1      44.741   3.851   9.133  0.00  0.00    +0.000 A 
ATOM      3  C   UNL     1      44.877   2.469   9.133  0.00  0.00    +0.000 A 
ATOM      4  C   UNL     1      45.813   1.896   8.281  0.00  0.00    +0.000 A 
ATOM      5  F   UNL     1      45.952   0.559   8.310  0.00  0.00    +0.000 F 
ATOM      6  C   UNL     1      46.597   2.678   7.444  0.00  0.00    +0.000 A 
ATOM      7  C   UNL     1      46.368   4.043   7.479  0.00  0.00    +0.000 A 
ATOM      8  N   UNL     1      45.470   4.643   8.306  0.00  0.00    +0.000 NA
BRANCH   6   9
ATOM      9  C   UNL     1      47.664   2.150   6.575  0.00  0.00    +0.000 C 
ATOM     10  N   UNL     1      47.928   2.802   5.405  0.00  0.00    +0.000 N 
ATOM     11  O   UNL     1      48.283   1.134   6.875  0.00  0.00    +0.000 OA
ATOM     12  H   UNL     1      47.426   3.630   5.107  0.00  0.00    +0.000 HD
ATOM     13  H   UNL     1      48.622   2.408   4.783  0.00  0.00    +0.000 HD
ENDBRANCH   6   9
ENDBRANCH   1   2
BRANCH   1  14
ATOM     14  O   UNL     1      44.173   4.135  11.450  0.00  0.00    +0.000 OA
BRANCH  14  18
ATOM     15  C   UNL     1      47.237   6.119  13.501  0.00  0.00    +0.000 A 
ATOM     16  C   UNL     1      46.522   6.812  12.513  0.00  0.00    +0.000 A 
ATOM     17  C   UNL     1      45.489   6.191  11.799  0.00  0.00    +0.000 A 
ATOM     18  C   UNL     1      45.155   4.863  12.064  0.00  0.00    +0.000 A 
ATOM     19  C   UNL     1      45.868   4.166  13.042  0.00  0.00    +0.000 A 
ATOM     20  C   UNL     1      46.900   4.784  13.755  0.00  0.00    +0.000 A 
BRANCH  15  21
ATOM     21  C   UNL     1      48.374   6.782  14.239  0.00  0.00    +0.000 C 
BRANCH  21  22
ATOM     22  N   UNL     1      49.585   6.858  13.429  0.00  0.00    +0.000 NA
ATOM     23  H   UNL     1      49.565   7.718  12.884  0.00  0.00    +0.000 HD
ATOM     24  H   UNL     1      49.579   6.092  12.756  0.00  0.00    +0.000 HD
ENDBRANCH  21  22
ENDBRANCH  15  21
ENDBRANCH  14  18
ENDBRANCH   1  14
TORSDOF 6
ENDMDL
MODEL 3
REMARK VINA RESULT:    -7.644      1.413      1.584
REMARK INTER + INTRA:         -10.723
REMARK INTER:                 -10.290
REMARK INTRA:                  -0.433
REMARK UNBOUND:                -0.622
REMARK  Name = 
REMARK  6 active torsions:
REMARK  status: ('A' for Active; 'I' for Inactive)
REMARK    1  A    between atoms: N_1  and  C_2
REMARK    2  A    between atoms: C_2  and  C_3
REMARK    3  A    between atoms: C_6  and  O_7
REMARK    4  A    between atoms: O_7  and  C_8
REMARK    5  A    between atoms: C_8  and  C_9
REMARK    6  A    between atoms: C_13  and  C_14
REMARK                            x       y       z     vdW  Elec       q    Type
REMARK                         _______ _______ _______ _____ _____    ______ ____
ROOT
ATOM      1  C   UNL     1      43.554   4.784  10.567  0.00  0.00    +0.000 C 
ENDROOT
BRANCH   1   2
ATOM      2  C   UNL     1      44.730   5.210  11.423  0.00  0.00    +0.000 A 
ATOM      3  C   UNL     1      44.987   4.562  12.624  0.00  0.00    +0.000 A 
ATOM      4  C   UNL     1      46.010   5.045  13.431  0.00  0.00    +0.000 A 
ATOM      5  F   UNL     1      46.230   4.425  14.603  0.00  0.00    +0.000 F 
ATOM      6  C   UNL     1      46.765   6.147  13.053  0.00  0.00    +0.000 A 
ATOM      7  C   UNL     1      46.468   6.707  11.821  0.00  0.00    +0.000 A 
ATOM      8  N   UNL     1      45.468   6.271  11.009  0.00  0.00    +0.000 NA
BRANCH   6   9
ATOM      9  C   UNL     1      47.808   6.764  13.891  0.00  0.00    +0.000 C 
ATOM     10  N   UNL     1      47.559   7.992  14.435  0.00  0.00    +0.000 N 
ATOM     11  O   UNL     1      48.887   6.209  14.075  0.00  0.00    +0.000 OA
ATOM     12  H   UNL     1      46.693   8.497  14.290  0.00  0.00    +0.000 HD
ATOM     13  H   UNL     1      48.296   8.440  14.963  0.00  0.00    +0.000 HD
ENDBRANCH   6   9
ENDBRANCH   1   2
BRANCH   1  14
ATOM     14  O   UNL     1      43.721   3.420  10.178  0.00  0.00    +0.000 OA
BRANCH  14  18
ATOM     15  C   UNL     1      46.581   2.335   7.319  0.00  0.00    +0.000 A 
ATOM     16  C   UNL     1      46.113   3.657   7.343  0.00  0.00    +0.000 A 
ATOM     17  C   UNL     1      45.156   4.068   8.280  0.00  0.00    +0.000 A 
ATOM     18  C   UNL     1      44.652   3.159   9.210  0.00  0.00    +0.000 A 
ATOM     19  C   UNL     1      45.110   1.839   9.187  0.00  0.00    +0.000 A 
ATOM     20  C   UNL     1      46.064   1.428   8.252  0.00  0.00    +0.000 A 
BRANCH  15  21
ATOM     21  C   UNL     1      47.583   1.890   6.283  0.00  0.00    +0.000 C 
BRANCH  21  22
ATOM     22  N   UNL     1      48.838   2.628   6.378  0.00  0.00    +0.000 NA
ATOM     23  H   UNL     1      49.559   2.122   5.868  0.00  0.00    +0.000 HD
ATOM     24  H   UNL     1      49.135   2.645   7.353  0.00  0.00    +0.000 HD
ENDBRANCH  21  22
ENDBRANCH  15  21
ENDBRANCH  14  18
ENDBRANCH   1  14
TORSDOF 6
ENDMDL
MODEL 4
REMARK VINA RESULT:    -7.625      2.759      6.469
REMARK INTER + INTRA:         -10.699
REMARK INTER:                 -10.257
REMARK INTRA:                  -0.441
REMARK UNBOUND:                -0.622
REMARK  Name = 
REMARK  6 active torsions:
REMARK  status: ('A' for Active; 'I' for Inactive)
REMARK    1  A    between atoms: N_1  and  C_2
REMARK    2  A    between atoms: C_2  and  C_3
REMARK    3  A    between atoms: C_6  and  O_7
REMARK    4  A    between atoms: O_7  and  C_8
REMARK    5  A    between atoms: C_8  and  C_9
REMARK    6  A    between atoms: C_13  and  C_14
REMARK                            x       y       z     vdW  Elec       q    Type
REMARK                         _______ _______ _______ _____ _____    ______ ____
ROOT
ATOM      1  C   UNL     1      43.862   4.763  10.144  0.00  0.00    +0.000 C 
ENDROOT
BRANCH   1   2
ATOM      2  C   UNL     1      44.740   3.990   9.180  0.00  0.00    +0.000 A 
ATOM      3  C   UNL     1      44.779   2.602   9.234  0.00  0.00    +0.000 A 
ATOM      4  C   UNL     1      45.671   1.933   8.406  0.00  0.00    +0.000 A 
ATOM      5  F   UNL     1      45.716   0.591   8.488  0.00  0.00    +0.000 F 
ATOM      6  C   UNL     1      46.505   2.624   7.539  0.00  0.00    +0.000 A 
ATOM      7  C   UNL     1      46.372   4.002   7.520  0.00  0.00    +0.000 A 
ATOM      8  N   UNL     1      45.521   4.696   8.323  0.00  0.00    +0.000 NA
BRANCH   6   9
ATOM      9  C   UNL     1      47.530   1.989   6.692  0.00  0.00    +0.000 C 
ATOM     10  N   UNL     1      48.658   2.701   6.397  0.00  0.00    +0.000 N 
ATOM     11  O   UNL     1      47.369   0.861   6.235  0.00  0.00    +0.000 OA
ATOM     12  H   UNL     1      48.823   3.643   6.733  0.00  0.00    +0.000 HD
ATOM     13  H   UNL     1      49.336   2.287   5.770  0.00  0.00    +0.000 HD
ENDBRANCH   6   9
ENDBRANCH   1   2
BRANCH   1  14
ATOM     14  O   UNL     1      44.605   5.854  10.689  0.00  0.00    +0.000 OA
BRANCH  14  18
ATOM     15  C   UNL     1      46.726   4.870  14.162  0.00  0.00    +0.000 A 
ATOM     16  C   UNL     1      47.278   5.802  13.271  0.00  0.00    +0.000 A 
ATOM     17  C   UNL     1      46.607   6.163  12.095  0.00  0.00    +0.000 A 
ATOM     18  C   UNL     1      45.369   5.595  11.793  0.00  0.00    +0.000 A 
ATOM     19  C   UNL     1      44.817   4.662  12.675  0.00  0.00    +0.000 A 
ATOM     20  C   UNL     1      45.487   4.301  13.848  0.00  0.00    +0.000 A 
BRANCH  15  21
ATOM     21  C   UNL     1      47.472   4.458  15.407  0.00  0.00    +0.000 C 
BRANCH  21  22
ATOM     22  N   UNL     1      47.807   3.038  15.402  0.00  0.00    +0.000 NA
ATOM     23  H   UNL     1      48.816   2.936  15.485  0.00  0.00    +0.000 HD
ATOM     24  H   UNL     1      47.553   2.644  14.497  0.00  0.00    +0.000 HD
ENDBRANCH  21  22
ENDBRANCH  15  21
ENDBRANCH  14  18
ENDBRANCH   1  14
TORSDOF 6
ENDMDL
MODEL 5
REMARK VINA RESULT:    -7.407      1.601      2.083
REMARK INTER + INTRA:         -10.410
REMARK INTER:                  -9.911
REMARK INTRA:                  -0.499
REMARK UNBOUND:                -0.622
REMARK  Name = 
REMARK  6 active torsions:
REMARK  status: ('A' for Active; 'I' for Inactive)
REMARK    1  A    between atoms: N_1  and  C_2
REMARK    2  A    between atoms: C_2  and  C_3
REMARK    3  A    between atoms: C_6  and  O_7
REMARK    4  A    between atoms: O_7  and  C_8
REMARK    5  A    between atoms: C_8  and  C_9
REMARK    6  A    between atoms: C_13  and  C_14
REMARK                            x       y       z     vdW  Elec       q    Type
REMARK                         _______ _______ _______ _____ _____    ______ ____
ROOT
ATOM      1  C   UNL     1      43.752   3.891  11.401  0.00  0.00    +0.000 C 
ENDROOT
BRANCH   1   2
ATOM      2  C   UNL     1      44.422   5.164  11.878  0.00  0.00    +0.000 A 
ATOM      3  C   UNL     1      44.048   6.389  11.344  0.00  0.00    +0.000 A 
ATOM      4  C   UNL     1      44.753   7.522  11.729  0.00  0.00    +0.000 A 
ATOM      5  F   UNL     1      44.397   8.699  11.184  0.00  0.00    +0.000 F 
ATOM      6  C   UNL     1      45.807   7.442  12.628  0.00  0.00    +0.000 A 
ATOM      7  C   UNL     1      46.088   6.187  13.142  0.00  0.00    +0.000 A 
ATOM      8  N   UNL     1      45.429   5.053  12.782  0.00  0.00    +0.000 NA
BRANCH   6   9
ATOM      9  C   UNL     1      46.652   8.584  13.020  0.00  0.00    +0.000 C 
ATOM     10  N   UNL     1      46.933   8.757  14.346  0.00  0.00    +0.000 N 
ATOM     11  O   UNL     1      47.071   9.381  12.187  0.00  0.00    +0.000 OA
ATOM     12  H   UNL     1      46.589   8.137  15.070  0.00  0.00    +0.000 HD
ATOM     13  H   UNL     1      47.466   9.572  14.620  0.00  0.00    +0.000 HD
ENDBRANCH   6   9
ENDBRANCH   1   2
BRANCH   1  14
ATOM     14  O   UNL     1      43.585   3.946   9.984  0.00  0.00    +0.000 OA
BRANCH  14  18
ATOM     15  C   UNL     1      46.546   2.296   7.526  0.00  0.00    +0.000 A 
ATOM     16  C   UNL     1      45.834   1.452   8.392  0.00  0.00    +0.000 A 
ATOM     17  C   UNL     1      44.835   1.957   9.234  0.00  0.00    +0.000 A 
ATOM     18  C   UNL     1      44.532   3.318   9.222  0.00  0.00    +0.000 A 
ATOM     19  C   UNL     1      45.242   4.164   8.366  0.00  0.00    +0.000 A 
ATOM     20  C   UNL     1      46.240   3.662   7.526  0.00  0.00    +0.000 A 
BRANCH  15  21
ATOM     21  C   UNL     1      47.647   1.751   6.650  0.00  0.00    +0.000 C 
BRANCH  21  22
ATOM     22  N   UNL     1      48.708   2.728   6.429  0.00  0.00    +0.000 NA
ATOM     23  H   UNL     1      49.485   2.270   5.957  0.00  0.00    +0.000 HD
ATOM     24  H   UNL     1      49.063   3.037   7.333  0.00  0.00    +0.000 HD
ENDBRANCH  21  22
ENDBRANCH  15  21
ENDBRANCH  14  18
ENDBRANCH   1  14
TORSDOF 6
ENDMDL
MODEL 6
REMARK VINA RESULT:    -7.318      1.797      2.271
REMARK INTER + INTRA:         -10.293
REMARK INTER:                  -9.812
REMARK INTRA:                  -0.480
REMARK UNBOUND:                -0.622
REMARK  Name = 
REMARK  6 active torsions:
REMARK  status: ('A' for Active; 'I' for Inactive)
REMARK    1  A    between atoms: N_1  and  C_2
REMARK    2  A    between atoms: C_2  and  C_3
REMARK    3  A    between atoms: C_6  and  O_7
REMARK    4  A    between atoms: O_7  and  C_8
REMARK    5  A    between atoms: C_8  and  C_9
REMARK    6  A    between atoms: C_13  and  C_14
REMARK                            x       y       z     vdW  Elec       q    Type
REMARK                         _______ _______ _______ _____ _____    ______ ____
ROOT
ATOM      1  C   UNL     1      44.920   6.051  10.482  0.00  0.00    +0.000 C 
ENDROOT
BRANCH   1   2
ATOM      2  C   UNL     1      45.523   5.636  11.810  0.00  0.00    +0.000 A 
ATOM      3  C   UNL     1      46.739   6.168  12.217  0.00  0.00    +0.000 A 
ATOM      4  C   UNL     1      47.311   5.688  13.389  0.00  0.00    +0.000 A 
ATOM      5  F   UNL     1      48.501   6.192  13.759  0.00  0.00    +0.000 F 
ATOM      6  C   UNL     1      46.688   4.704  14.143  0.00  0.00    +0.000 A 
ATOM      7  C   UNL     1      45.458   4.259  13.685  0.00  0.00    +0.000 A 
ATOM      8  N   UNL     1      44.871   4.694  12.538  0.00  0.00    +0.000 NA
BRANCH   6   9
ATOM      9  C   UNL     1      47.270   4.090  15.350  0.00  0.00    +0.000 C 
ATOM     10  N   UNL     1      47.206   4.784  16.525  0.00  0.00    +0.000 N 
ATOM     11  O   UNL     1      47.826   2.997  15.303  0.00  0.00    +0.000 OA
ATOM     12  H   UNL     1      46.778   5.699  16.605  0.00  0.00    +0.000 HD
ATOM     13  H   UNL     1      47.655   4.388  17.340  0.00  0.00    +0.000 HD
ENDBRANCH   6   9
ENDBRANCH   1   2
BRANCH   1  14
ATOM     14  O   UNL     1      44.113   4.987   9.975  0.00  0.00    +0.000 OA
BRANCH  14  18
ATOM     15  C   UNL     1      46.241   2.052   7.880  0.00  0.00    +0.000 A 
ATOM     16  C   UNL     1      45.347   1.655   8.886  0.00  0.00    +0.000 A 
ATOM     17  C   UNL     1      44.613   2.599   9.615  0.00  0.00    +0.000 A 
ATOM     18  C   UNL     1      44.763   3.960   9.347  0.00  0.00    +0.000 A 
ATOM     19  C   UNL     1      45.657   4.362   8.352  0.00  0.00    +0.000 A 
ATOM     20  C   UNL     1      46.390   3.420   7.624  0.00  0.00    +0.000 A 
BRANCH  15  21
ATOM     21  C   UNL     1      47.056   1.031   7.126  0.00  0.00    +0.000 C 
BRANCH  21  22
ATOM     22  N   UNL     1      46.911  -0.309   7.683  0.00  0.00    +0.000 NA
ATOM     23  H   UNL     1      47.552  -0.938   7.204  0.00  0.00    +0.000 HD
ATOM     24  H   UNL     1      45.971  -0.649   7.480  0.00  0.00    +0.000 HD
ENDBRANCH  21  22
ENDBRANCH  15  21
ENDBRANCH  14  18
ENDBRANCH   1  14
TORSDOF 6
ENDMDL
MODEL 7
REMARK VINA RESULT:    -5.722      2.139      2.715
REMARK INTER + INTRA:          -8.184
REMARK INTER:                  -7.700
REMARK INTRA:                  -0.483
REMARK UNBOUND:                -0.622
REMARK  Name = 
REMARK  6 active torsions:
REMARK  status: ('A' for Active; 'I' for Inactive)
REMARK    1  A    between atoms: N_1  and  C_2
REMARK    2  A    between atoms: C_2  and  C_3
REMARK    3  A    between atoms: C_6  and  O_7
REMARK    4  A    between atoms: O_7  and  C_8
REMARK    5  A    between atoms: C_8  and  C_9
REMARK    6  A    between atoms: C_13  and  C_14
REMARK                            x       y       z     vdW  Elec       q    Type
REMARK                         _______ _______ _______ _____ _____    ______ ____
ROOT
ATOM      1  C   UNL     1      45.071   4.574  12.805  0.00  0.00    +0.000 C 
ENDROOT
BRANCH   1   2
ATOM      2  C   UNL     1      45.900   5.831  12.981  0.00  0.00    +0.000 A 
ATOM      3  C   UNL     1      45.332   7.077  12.753  0.00  0.00    +0.000 A 
ATOM      4  C   UNL     1      46.148   8.199  12.825  0.00  0.00    +0.000 A 
ATOM      5  F   UNL     1      45.591   9.397  12.576  0.00  0.00    +0.000 F 
ATOM      6  C   UNL     1      47.500   8.088  13.119  0.00  0.00    +0.000 A 
ATOM      7  C   UNL     1      47.975   6.811  13.372  0.00  0.00    +0.000 A 
ATOM      8  N   UNL     1      47.212   5.688  13.301  0.00  0.00    +0.000 NA
BRANCH   6   9
ATOM      9  C   UNL     1      48.442   9.221  13.133  0.00  0.00    +0.000 C 
ATOM     10  N   UNL     1      49.484   9.207  12.250  0.00  0.00    +0.000 N 
ATOM     11  O   UNL     1      48.318  10.142  13.933  0.00  0.00    +0.000 OA
ATOM     12  H   UNL     1      49.639   8.456  11.587  0.00  0.00    +0.000 HD
ATOM     13  H   UNL     1      50.162   9.956  12.296  0.00  0.00    +0.000 HD
ENDBRANCH   6   9
ENDBRANCH   1   2
BRANCH   1  14
ATOM     14  O   UNL     1      44.263   4.701  11.633  0.00  0.00    +0.000 OA
BRANCH  14  18
ATOM     15  C   UNL     1      45.835   3.267   8.028  0.00  0.00    +0.000 A 
ATOM     16  C   UNL     1      45.201   2.367   8.897  0.00  0.00    +0.000 A 
ATOM     17  C   UNL     1      44.660   2.799  10.116  0.00  0.00    +0.000 A 
ATOM     18  C   UNL     1      44.746   4.142  10.482  0.00  0.00    +0.000 A 
ATOM     19  C   UNL     1      45.383   5.041   9.623  0.00  0.00    +0.000 A 
ATOM     20  C   UNL     1      45.923   4.611   8.408  0.00  0.00    +0.000 A 
BRANCH  15  21
ATOM     21  C   UNL     1      46.450   2.787   6.736  0.00  0.00    +0.000 C 
BRANCH  21  22
ATOM     22  N   UNL     1      46.879   3.894   5.887  0.00  0.00    +0.000 NA
ATOM     23  H   UNL     1      46.851   4.756   6.429  0.00  0.00    +0.000 HD
ATOM     24  H   UNL     1      46.205   4.008   5.131  0.00  0.00    +0.000 HD
ENDBRANCH  21  22
ENDBRANCH  15  21
ENDBRANCH  14  18
ENDBRANCH   1  14
TORSDOF 6
ENDMDL
MODEL 8
REMARK VINA RESULT:    -5.690      3.264      8.119
REMARK INTER + INTRA:          -8.142
REMARK INTER:                  -7.759
REMARK INTRA:                  -0.383
REMARK UNBOUND:                -0.622
REMARK  Name = 
REMARK  6 active torsions:
REMARK  status: ('A' for Active; 'I' for Inactive)
REMARK    1  A    between atoms: N_1  and  C_2
REMARK    2  A    between atoms: C_2  and  C_3
REMARK    3  A    between atoms: C_6  and  O_7
REMARK    4  A    between atoms: O_7  and  C_8
REMARK    5  A    between atoms: C_8  and  C_9
REMARK    6  A    between atoms: C_13  and  C_14
REMARK                            x       y       z     vdW  Elec       q    Type
REMARK                         _______ _______ _______ _____ _____    ______ ____
ROOT
ATOM      1  C   UNL     1      47.798   6.813  14.049  0.00  0.00    +0.000 C 
ENDROOT
BRANCH   1   2
ATOM      2  C   UNL     1      46.703   6.133  13.251  0.00  0.00    +0.000 A 
ATOM      3  C   UNL     1      46.539   4.756  13.329  0.00  0.00    +0.000 A 
ATOM      4  C   UNL     1      45.593   4.156  12.507  0.00  0.00    +0.000 A 
ATOM      5  F   UNL     1      45.463   2.819  12.573  0.00  0.00    +0.000 F 
ATOM      6  C   UNL     1      44.824   4.905  11.628  0.00  0.00    +0.000 A 
ATOM      7  C   UNL     1      45.025   6.276  11.645  0.00  0.00    +0.000 A 
ATOM      8  N   UNL     1      45.948   6.900  12.425  0.00  0.00    +0.000 NA
BRANCH   6   9
ATOM      9  C   UNL     1      43.863   4.331  10.670  0.00  0.00    +0.000 C 
ATOM     10  N   UNL     1      43.993   4.654   9.350  0.00  0.00    +0.000 N 
ATOM     11  O   UNL     1      42.948   3.605  11.046  0.00  0.00    +0.000 OA
ATOM     12  H   UNL     1      44.719   5.268   8.998  0.00  0.00    +0.000 HD
ATOM     13  H   UNL     1      43.300   4.305   8.701  0.00  0.00    +0.000 HD
ENDBRANCH   6   9
ENDBRANCH   1   2
BRANCH   1  14
ATOM     14  O   UNL     1      48.576   5.823  14.724  0.00  0.00    +0.000 OA
BRANCH  14  18
ATOM     15  C   UNL     1      48.232   5.501  18.885  0.00  0.00    +0.000 A 
ATOM     16  C   UNL     1      48.838   6.643  18.340  0.00  0.00    +0.000 A 
ATOM     17  C   UNL     1      48.977   6.797  16.954  0.00  0.00    +0.000 A 
ATOM     18  C   UNL     1      48.509   5.806  16.090  0.00  0.00    +0.000 A 
ATOM     19  C   UNL     1      47.911   4.664  16.628  0.00  0.00    +0.000 A 
ATOM     20  C   UNL     1      47.772   4.510  18.010  0.00  0.00    +0.000 A 
BRANCH  15  21
ATOM     21  C   UNL     1      48.121   5.326  20.379  0.00  0.00    +0.000 C 
BRANCH  21  22
ATOM     22  N   UNL     1      48.428   3.962  20.797  0.00  0.00    +0.000 NA
ATOM     23  H   UNL     1      48.987   3.995  21.647  0.00  0.00    +0.000 HD
ATOM     24  H   UNL     1      49.013   3.525  20.086  0.00  0.00    +0.000 HD
ENDBRANCH  21  22
ENDBRANCH  15  21
ENDBRANCH  14  18
ENDBRANCH   1  14
TORSDOF 6
ENDMDL
MODEL 9
REMARK VINA RESULT:    -5.636      3.090      4.407
REMARK INTER + INTRA:          -8.071
REMARK INTER:                  -7.674
REMARK INTRA:                  -0.397
REMARK UNBOUND:                -0.622
REMARK  Name = 
REMARK  6 active torsions:
REMARK  status: ('A' for Active; 'I' for Inactive)
REMARK    1  A    between atoms: N_1  and  C_2
REMARK    2  A    between atoms: C_2  and  C_3
REMARK    3  A    between atoms: C_6  and  O_7
REMARK    4  A    between atoms: O_7  and  C_8
REMARK    5  A    between atoms: C_8  and  C_9
REMARK    6  A    between atoms: C_13  and  C_14
REMARK                            x       y       z     vdW  Elec       q    Type
REMARK                         _______ _______ _______ _____ _____    ______ ____
ROOT
ATOM      1  C   UNL     1      47.323   6.342  13.432  0.00  0.00    +0.000 C 
ENDROOT
BRANCH   1   2
ATOM      2  C   UNL     1      47.814   5.736  14.732  0.00  0.00    +0.000 A 
ATOM      3  C   UNL     1      47.187   4.613  15.256  0.00  0.00    +0.000 A 
ATOM      4  C   UNL     1      47.596   4.147  16.499  0.00  0.00    +0.000 A 
ATOM      5  F   UNL     1      46.963   3.075  17.007  0.00  0.00    +0.000 F 
ATOM      6  C   UNL     1      48.609   4.779  17.206  0.00  0.00    +0.000 A 
ATOM      7  C   UNL     1      49.207   5.867  16.592  0.00  0.00    +0.000 A 
ATOM      8  N   UNL     1      48.827   6.361  15.383  0.00  0.00    +0.000 NA
BRANCH   6   9
ATOM      9  C   UNL     1      49.040   4.393  18.562  0.00  0.00    +0.000 C 
ATOM     10  N   UNL     1      50.069   3.502  18.684  0.00  0.00    +0.000 N 
ATOM     11  O   UNL     1      48.476   4.832  19.559  0.00  0.00    +0.000 OA
ATOM     12  H   UNL     1      50.548   3.096  17.889  0.00  0.00    +0.000 HD
ATOM     13  H   UNL     1      50.328   3.194  19.613  0.00  0.00    +0.000 HD
ENDBRANCH   6   9
ENDBRANCH   1   2
BRANCH   1  14
ATOM     14  O   UNL     1      45.948   6.006  13.242  0.00  0.00    +0.000 OA
BRANCH  14  18
ATOM     15  C   UNL     1      44.933   3.540  10.014  0.00  0.00    +0.000 A 
ATOM     16  C   UNL     1      45.320   4.865   9.761  0.00  0.00    +0.000 A 
ATOM     17  C   UNL     1      45.667   5.729  10.808  0.00  0.00    +0.000 A 
ATOM     18  C   UNL     1      45.634   5.278  12.127  0.00  0.00    +0.000 A 
ATOM     19  C   UNL     1      45.243   3.961  12.385  0.00  0.00    +0.000 A 
ATOM     20  C   UNL     1      44.895   3.099  11.342  0.00  0.00    +0.000 A 
BRANCH  15  21
ATOM     21  C   UNL     1      44.522   2.628   8.884  0.00  0.00    +0.000 C 
BRANCH  21  22
ATOM     22  N   UNL     1      45.185   1.330   8.957  0.00  0.00    +0.000 NA
ATOM     23  H   UNL     1      46.182   1.477   9.105  0.00  0.00    +0.000 HD
ATOM     24  H   UNL     1      45.095   0.864   8.056  0.00  0.00    +0.000 HD
ENDBRANCH  21  22
ENDBRANCH  15  21
ENDBRANCH  14  18
ENDBRANCH   1  14
TORSDOF 6
ENDMDL
