MODEL 1
REMARK VINA RESULT:    -8.623      0.000      0.000
REMARK INTER + INTRA:         -11.907
REMARK INTER:                 -11.396
REMARK INTRA:                  -0.511
REMARK UNBOUND:                -0.511
REMARK  Name = 
REMARK  9 active torsions:
REMARK  status: ('A' for Active; 'I' for Inactive)
REMARK    1  A    between atoms: C_1  and  C_2
REMARK    2  A    between atoms: C_9  and  C_10
REMARK    3  A    between atoms: C_10  and  C_11
REMARK    4  A    between atoms: C_10  and  C_12
REMARK    5  A    between atoms: C_12  and  N_13
REMARK    6  A    between atoms: N_13  and  C_14
REMARK    7  A    between atoms: C_17  and  O_18
REMARK    8  A    between atoms: C_19  and  C_20
REMARK    9  A    between atoms: C_27  and  C_28
REMARK                            x       y       z     vdW  Elec       q    Type
REMARK                         _______ _______ _______ _____ _____    ______ ____
ROOT
ATOM      1  C   UNL     1      45.720   5.294  12.236  0.00  0.00    +0.000 C 
ATOM      2  C   UNL     1      44.539   5.235  13.220  0.00  0.00    +0.000 C 
ENDROOT
BRANCH   1  11
ATOM      3  C   UNL     1      48.446   2.204  16.217  0.00  0.00    +0.000 C 
ATOM      4  C   UNL     1      47.951   3.107  17.346  0.00  0.00    +0.000 C 
ATOM      5  C   UNL     1      47.211   4.357  16.828  0.00  0.00    +0.000 C 
ATOM      6  N   UNL     1      48.167   5.318  16.296  0.00  0.00    +0.000 N 
ATOM      7  C   UNL     1      48.104   5.737  15.000  0.00  0.00    +0.000 A 
ATOM      8  N   UNL     1      49.028   6.594  14.549  0.00  0.00    +0.000 NA
ATOM      9  C   UNL     1      48.894   7.038  13.289  0.00  0.00    +0.000 A 
ATOM     10  C   UNL     1      47.871   6.666  12.461  0.00  0.00    +0.000 A 
ATOM     11  C   UNL     1      46.955   5.775  12.980  0.00  0.00    +0.000 A 
ATOM     12  N   UNL     1      47.094   5.298  14.235  0.00  0.00    +0.000 NA
ATOM     13  C   UNL     1      49.294   5.659  17.151  0.00  0.00    +0.000 C 
ATOM     14  C   UNL     1      49.973   4.368  17.653  0.00  0.00    +0.000 C 
ATOM     15  C   UNL     1      51.020   4.697  18.708  0.00  0.00    +0.000 C 
ATOM     16  O   UNL     1      49.023   3.459  18.245  0.00  0.00    +0.000 OA
ENDBRANCH   1  11
BRANCH   1  17
ATOM     17  C   UNL     1      45.319   6.166  11.031  0.00  0.00    +0.000 C 
BRANCH  17  18
ATOM     18  N   UNL     1      44.512   5.448  10.044  0.00  0.00    +0.000 N 
ATOM     19  H   UNL     1      43.657   5.877   9.704  0.00  0.00    +0.000 HD
BRANCH  18  20
ATOM     20  C   UNL     1      44.881   4.207   9.553  0.00  0.00    +0.000 A 
ATOM     21  C   UNL     1      44.478   3.015  10.154  0.00  0.00    +0.000 A 
ATOM     22  C   UNL     1      44.858   1.775   9.640  0.00  0.00    +0.000 A 
ATOM     23  C   UNL     1      45.662   1.713   8.511  0.00  0.00    +0.000 A 
ATOM     24  C   UNL     1      46.104   2.873   7.877  0.00  0.00    +0.000 A 
ATOM     25  C   UNL     1      45.696   4.118   8.412  0.00  0.00    +0.000 A 
BRANCH  24  26
ATOM     26  C   UNL     1      46.992   2.849   6.661  0.00  0.00    +0.000 C 
ATOM     27  F   UNL     1      46.787   1.827   5.784  0.00  0.00    +0.000 F 
ATOM     28  F   UNL     1      46.870   3.990   5.921  0.00  0.00    +0.000 F 
ATOM     29  F   UNL     1      48.316   2.777   6.993  0.00  0.00    +0.000 F 
ENDBRANCH  24  26
BRANCH  23  30
ATOM     30  O   UNL     1      46.016   0.491   8.023  0.00  0.00    +0.000 OA
ATOM     31  H   UNL     1      45.553   0.323   7.188  0.00  0.00    +0.000 HD
ENDBRANCH  23  30
ENDBRANCH  18  20
ENDBRANCH  17  18
ENDBRANCH   1  17
TORSDOF 6
ENDMDL
MODEL 2
REMARK VINA RESULT:    -7.851      1.694      2.609
REMARK INTER + INTRA:         -10.886
REMARK INTER:                 -10.079
REMARK INTRA:                  -0.806
REMARK UNBOUND:                -0.511
REMARK  Name = 
REMARK  9 active torsions:
REMARK  status: ('A' for Active; 'I' for Inactive)
REMARK    1  A    between atoms: C_1  and  C_2
REMARK    2  A    between atoms: C_9  and  C_10
REMARK    3  A    between atoms: C_10  and  C_11
REMARK    4  A    between atoms: C_10  and  C_12
REMARK    5  A    between atoms: C_12  and  N_13
REMARK    6  A    between atoms: N_13  and  C_14
REMARK    7  A    between atoms: C_17  and  O_18
REMARK    8  A    between atoms: C_19  and  C_20
REMARK    9  A    between atoms: C_27  and  C_28
REMARK                            x       y       z     vdW  Elec       q    Type
REMARK                         _______ _______ _______ _____ _____    ______ ____
ROOT
ATOM      1  C   UNL     1      46.540   7.212  12.702  0.00  0.00    +0.000 C 
ATOM      2  C   UNL     1      47.509   7.180  11.508  0.00  0.00    +0.000 C 
ENDROOT
BRANCH   1  11
ATOM      3  C   UNL     1      48.118   8.456  18.068  0.00  0.00    +0.000 C 
ATOM      4  C   UNL     1      49.586   8.150  17.773  0.00  0.00    +0.000 C 
ATOM      5  C   UNL     1      49.799   7.544  16.371  0.00  0.00    +0.000 C 
ATOM      6  N   UNL     1      49.366   6.154  16.358  0.00  0.00    +0.000 N 
ATOM      7  C   UNL     1      48.388   5.723  15.510  0.00  0.00    +0.000 A 
ATOM      8  N   UNL     1      48.002   4.443  15.561  0.00  0.00    +0.000 NA
ATOM      9  C   UNL     1      47.087   4.039  14.666  0.00  0.00    +0.000 A 
ATOM     10  C   UNL     1      46.546   4.860  13.715  0.00  0.00    +0.000 A 
ATOM     11  C   UNL     1      46.978   6.169  13.717  0.00  0.00    +0.000 A 
ATOM     12  N   UNL     1      47.876   6.596  14.631  0.00  0.00    +0.000 NA
ATOM     13  C   UNL     1      49.887   5.298  17.414  0.00  0.00    +0.000 C 
ATOM     14  C   UNL     1      49.665   5.971  18.783  0.00  0.00    +0.000 C 
ATOM     15  C   UNL     1      50.384   5.194  19.878  0.00  0.00    +0.000 C 
ATOM     16  O   UNL     1      50.167   7.323  18.803  0.00  0.00    +0.000 OA
ENDBRANCH   1  11
BRANCH   1  17
ATOM     17  C   UNL     1      45.102   7.031  12.180  0.00  0.00    +0.000 C 
BRANCH  17  18
ATOM     18  N   UNL     1      45.046   6.650  10.768  0.00  0.00    +0.000 N 
ATOM     19  H   UNL     1      45.104   7.376  10.061  0.00  0.00    +0.000 HD
BRANCH  18  20
ATOM     20  C   UNL     1      44.923   5.331  10.365  0.00  0.00    +0.000 A 
ATOM     21  C   UNL     1      44.120   4.414  11.041  0.00  0.00    +0.000 A 
ATOM     22  C   UNL     1      44.008   3.090  10.615  0.00  0.00    +0.000 A 
ATOM     23  C   UNL     1      44.714   2.662   9.500  0.00  0.00    +0.000 A 
ATOM     24  C   UNL     1      45.541   3.533   8.793  0.00  0.00    +0.000 A 
ATOM     25  C   UNL     1      45.629   4.873   9.239  0.00  0.00    +0.000 A 
BRANCH  24  26
ATOM     26  C   UNL     1      46.336   3.104   7.589  0.00  0.00    +0.000 C 
ATOM     27  F   UNL     1      47.016   1.929   7.701  0.00  0.00    +0.000 F 
ATOM     28  F   UNL     1      45.547   2.959   6.484  0.00  0.00    +0.000 F 
ATOM     29  F   UNL     1      47.278   4.030   7.238  0.00  0.00    +0.000 F 
ENDBRANCH  24  26
BRANCH  23  30
ATOM     30  O   UNL     1      44.584   1.366   9.097  0.00  0.00    +0.000 OA
ATOM     31  H   UNL     1      45.349   0.851   9.394  0.00  0.00    +0.000 HD
ENDBRANCH  23  30
ENDBRANCH  18  20
ENDBRANCH  17  18
ENDBRANCH   1  17
TORSDOF 6
ENDMDL
MODEL 3
REMARK VINA RESULT:    -7.489      2.104      2.908
REMARK INTER + INTRA:         -10.408
REMARK INTER:                  -9.412
REMARK INTRA:                  -0.996
REMARK UNBOUND:                -0.511
REMARK  Name = 
REMARK  9 active torsions:
REMARK  status: ('A' for Active; 'I' for Inactive)
REMARK    1  A    between atoms: C_1  and  C_2
REMARK    2  A    between atoms: C_9  and  C_10
REMARK    3  A    between atoms: C_10  and  C_11
REMARK    4  A    between atoms: C_10  and  C_12
REMARK    5  A    between atoms: C_12  and  N_13
REMARK    6  A    between atoms: N_13  and  C_14
REMARK    7  A    between atoms: C_17  and  O_18
REMARK    8  A    between atoms: C_19  and  C_20
REMARK    9  A    between atoms: C_27  and  C_28
REMARK                            x       y       z     vdW  Elec       q    Type
REMARK                         _______ _______ _______ _____ _____    ______ ____
ROOT
ATOM      1  C   UNL     1      46.144   8.805  13.030  0.00  0.00    +0.000 C 
ATOM      2  C   UNL     1      46.146  10.073  12.159  0.00  0.00    +0.000 C 
ENDROOT
BRANCH   1  11
ATOM      3  C   UNL     1      47.887   5.099  17.038  0.00  0.00    +0.000 C 
ATOM      4  C   UNL     1      48.698   6.171  17.764  0.00  0.00    +0.000 C 
ATOM      5  C   UNL     1      48.757   7.502  16.988  0.00  0.00    +0.000 C 
ATOM      6  N   UNL     1      49.670   7.383  15.861  0.00  0.00    +0.000 N 
ATOM      7  C   UNL     1      49.247   7.588  14.581  0.00  0.00    +0.000 A 
ATOM      8  N   UNL     1      50.118   7.431  13.576  0.00  0.00    +0.000 NA
ATOM      9  C   UNL     1      49.685   7.708  12.336  0.00  0.00    +0.000 A 
ATOM     10  C   UNL     1      48.419   8.143  12.058  0.00  0.00    +0.000 A 
ATOM     11  C   UNL     1      47.566   8.278  13.132  0.00  0.00    +0.000 A 
ATOM     12  N   UNL     1      47.979   7.974  14.381  0.00  0.00    +0.000 NA
ATOM     13  C   UNL     1      50.995   6.853  16.148  0.00  0.00    +0.000 C 
ATOM     14  C   UNL     1      50.866   5.538  16.944  0.00  0.00    +0.000 C 
ATOM     15  C   UNL     1      52.234   5.078  17.431  0.00  0.00    +0.000 C 
ATOM     16  O   UNL     1      50.018   5.693  18.099  0.00  0.00    +0.000 OA
ENDBRANCH   1  11
BRANCH   1  17
ATOM     17  C   UNL     1      45.131   7.803  12.446  0.00  0.00    +0.000 C 
BRANCH  17  18
ATOM     18  N   UNL     1      45.223   6.473  13.050  0.00  0.00    +0.000 N 
ATOM     19  H   UNL     1      45.558   6.390  14.005  0.00  0.00    +0.000 HD
BRANCH  18  20
ATOM     20  C   UNL     1      44.863   5.325  12.364  0.00  0.00    +0.000 A 
ATOM     21  C   UNL     1      44.150   4.289  12.963  0.00  0.00    +0.000 A 
ATOM     22  C   UNL     1      43.794   3.142  12.252  0.00  0.00    +0.000 A 
ATOM     23  C   UNL     1      44.160   3.016  10.920  0.00  0.00    +0.000 A 
ATOM     24  C   UNL     1      44.884   4.016  10.273  0.00  0.00    +0.000 A 
ATOM     25  C   UNL     1      45.223   5.173  11.014  0.00  0.00    +0.000 A 
BRANCH  24  26
ATOM     26  C   UNL     1      45.316   3.910   8.835  0.00  0.00    +0.000 C 
ATOM     27  F   UNL     1      45.987   2.776   8.488  0.00  0.00    +0.000 F 
ATOM     28  F   UNL     1      44.253   3.975   7.980  0.00  0.00    +0.000 F 
ATOM     29  F   UNL     1      46.136   4.939   8.467  0.00  0.00    +0.000 F 
ENDBRANCH  24  26
BRANCH  23  30
ATOM     30  O   UNL     1      43.795   1.891  10.242  0.00  0.00    +0.000 OA
ATOM     31  H   UNL     1      43.329   1.284  10.837  0.00  0.00    +0.000 HD
ENDBRANCH  23  30
ENDBRANCH  18  20
ENDBRANCH  17  18
ENDBRANCH   1  17
TORSDOF 6
ENDMDL
MODEL 4
REMARK VINA RESULT:    -7.351      3.092      4.485
REMARK INTER + INTRA:         -10.225
REMARK INTER:                  -8.996
REMARK INTRA:                  -1.229
REMARK UNBOUND:                -0.511
REMARK  Name = 
REMARK  9 active torsions:
REMARK  status: ('A' for Active; 'I' for Inactive)
REMARK    1  A    between atoms: C_1  and  C_2
REMARK    2  A    between atoms: C_9  and  C_10
REMARK    3  A    between atoms: C_10  and  C_11
REMARK    4  A    between atoms: C_10  and  C_12
REMARK    5  A    between atoms: C_12  and  N_13
REMARK    6  A    between atoms: N_13  and  C_14
REMARK    7  A    between atoms: C_17  and  O_18
REMARK    8  A    between atoms: C_19  and  C_20
REMARK    9  A    between atoms: C_27  and  C_28
REMARK                            x       y       z     vdW  Elec       q    Type
REMARK                         _______ _______ _______ _____ _____    ______ ____
ROOT
ATOM      1  C   UNL     1      48.419   9.138  15.382  0.00  0.00    +0.000 C 
ATOM      2  C   UNL     1      49.014  10.546  15.209  0.00  0.00    +0.000 C 
ENDROOT
BRANCH   1  11
ATOM      3  C   UNL     1      47.677   3.469  15.768  0.00  0.00    +0.000 C 
ATOM      4  C   UNL     1      47.981   3.469  17.265  0.00  0.00    +0.000 C 
ATOM      5  C   UNL     1      48.466   4.841  17.775  0.00  0.00    +0.000 C 
ATOM      6  N   UNL     1      49.842   5.070  17.358  0.00  0.00    +0.000 N 
ATOM      7  C   UNL     1      50.180   6.143  16.586  0.00  0.00    +0.000 A 
ATOM      8  N   UNL     1      51.453   6.290  16.200  0.00  0.00    +0.000 NA
ATOM      9  C   UNL     1      51.761   7.392  15.500  0.00  0.00    +0.000 A 
ATOM     10  C   UNL     1      50.851   8.360  15.175  0.00  0.00    +0.000 A 
ATOM     11  C   UNL     1      49.555   8.150  15.594  0.00  0.00    +0.000 A 
ATOM     12  N   UNL     1      49.225   7.030  16.273  0.00  0.00    +0.000 NA
ATOM     13  C   UNL     1      50.795   4.008  17.642  0.00  0.00    +0.000 C 
ATOM     14  C   UNL     1      50.241   2.663  17.129  0.00  0.00    +0.000 C 
ATOM     15  C   UNL     1      51.123   1.514  17.598  0.00  0.00    +0.000 C 
ATOM     16  O   UNL     1      48.904   2.416  17.612  0.00  0.00    +0.000 OA
ENDBRANCH   1  11
BRANCH   1  17
ATOM     17  C   UNL     1      47.519   8.826  14.172  0.00  0.00    +0.000 C 
BRANCH  17  18
ATOM     18  N   UNL     1      47.341   7.392  13.941  0.00  0.00    +0.000 N 
ATOM     19  H   UNL     1      47.929   6.737  14.447  0.00  0.00    +0.000 HD
BRANCH  18  20
ATOM     20  C   UNL     1      46.394   6.900  13.059  0.00  0.00    +0.000 A 
ATOM     21  C   UNL     1      45.604   7.732  12.268  0.00  0.00    +0.000 A 
ATOM     22  C   UNL     1      44.658   7.214  11.383  0.00  0.00    +0.000 A 
ATOM     23  C   UNL     1      44.485   5.841  11.284  0.00  0.00    +0.000 A 
ATOM     24  C   UNL     1      45.240   4.962  12.059  0.00  0.00    +0.000 A 
ATOM     25  C   UNL     1      46.200   5.513  12.942  0.00  0.00    +0.000 A 
BRANCH  24  26
ATOM     26  C   UNL     1      45.070   3.468  11.995  0.00  0.00    +0.000 C 
ATOM     27  F   UNL     1      43.857   2.980  12.378  0.00  0.00    +0.000 F 
ATOM     28  F   UNL     1      45.269   2.988  10.733  0.00  0.00    +0.000 F 
ATOM     29  F   UNL     1      45.981   2.813  12.775  0.00  0.00    +0.000 F 
ENDBRANCH  24  26
BRANCH  23  30
ATOM     30  O   UNL     1      43.560   5.357  10.408  0.00  0.00    +0.000 OA
ATOM     31  H   UNL     1      43.889   4.542   9.999  0.00  0.00    +0.000 HD
ENDBRANCH  23  30
ENDBRANCH  18  20
ENDBRANCH  17  18
ENDBRANCH   1  17
TORSDOF 6
ENDMDL
MODEL 5
REMARK VINA RESULT:    -6.981      3.338      5.535
REMARK INTER + INTRA:          -9.736
REMARK INTER:                  -8.719
REMARK INTRA:                  -1.016
REMARK UNBOUND:                -0.511
REMARK  Name = 
REMARK  9 active torsions:
REMARK  status: ('A' for Active; 'I' for Inactive)
REMARK    1  A    between atoms: C_1  and  C_2
REMARK    2  A    between atoms: C_9  and  C_10
REMARK    3  A    between atoms: C_10  and  C_11
REMARK    4  A    between atoms: C_10  and  C_12
REMARK    5  A    between atoms: C_12  and  N_13
REMARK    6  A    between atoms: N_13  and  C_14
REMARK    7  A    between atoms: C_17  and  O_18
REMARK    8  A    between atoms: C_19  and  C_20
REMARK    9  A    between atoms: C_27  and  C_28
REMARK                            x       y       z     vdW  Elec       q    Type
REMARK                         _______ _______ _______ _____ _____    ______ ____
ROOT
ATOM      1  C   UNL     1      48.370   3.597  16.871  0.00  0.00    +0.000 C 
ATOM      2  C   UNL     1      47.879   2.932  18.169  0.00  0.00    +0.000 C 
ENDROOT
BRANCH   1  11
ATOM      3  C   UNL     1      47.949   8.905  14.757  0.00  0.00    +0.000 C 
ATOM      4  C   UNL     1      49.190   8.723  13.884  0.00  0.00    +0.000 C 
ATOM      5  C   UNL     1      49.926   7.397  14.164  0.00  0.00    +0.000 C 
ATOM      6  N   UNL     1      50.656   7.488  15.420  0.00  0.00    +0.000 N 
ATOM      7  C   UNL     1      50.405   6.630  16.450  0.00  0.00    +0.000 A 
ATOM      8  N   UNL     1      51.079   6.777  17.597  0.00  0.00    +0.000 NA
ATOM      9  C   UNL     1      50.856   5.873  18.564  0.00  0.00    +0.000 A 
ATOM     10  C   UNL     1      49.992   4.821  18.430  0.00  0.00    +0.000 A 
ATOM     11  C   UNL     1      49.322   4.726  17.228  0.00  0.00    +0.000 A 
ATOM     12  N   UNL     1      49.515   5.647  16.259  0.00  0.00    +0.000 NA
ATOM     13  C   UNL     1      51.522   8.646  15.590  0.00  0.00    +0.000 C 
ATOM     14  C   UNL     1      50.734   9.933  15.272  0.00  0.00    +0.000 C 
ATOM     15  C   UNL     1      51.671  11.133  15.242  0.00  0.00    +0.000 C 
ATOM     16  O   UNL     1      50.077   9.856  13.991  0.00  0.00    +0.000 OA
ENDBRANCH   1  11
BRANCH   1  17
ATOM     17  C   UNL     1      47.148   4.030  16.041  0.00  0.00    +0.000 C 
BRANCH  17  18
ATOM     18  N   UNL     1      47.167   3.511  14.672  0.00  0.00    +0.000 N 
ATOM     19  H   UNL     1      47.583   2.601  14.499  0.00  0.00    +0.000 HD
BRANCH  18  20
ATOM     20  C   UNL     1      46.631   4.217  13.609  0.00  0.00    +0.000 A 
ATOM     21  C   UNL     1      47.113   5.467  13.223  0.00  0.00    +0.000 A 
ATOM     22  C   UNL     1      46.560   6.160  12.145  0.00  0.00    +0.000 A 
ATOM     23  C   UNL     1      45.501   5.606  11.439  0.00  0.00    +0.000 A 
ATOM     24  C   UNL     1      44.972   4.365  11.790  0.00  0.00    +0.000 A 
ATOM     25  C   UNL     1      45.557   3.678  12.880  0.00  0.00    +0.000 A 
BRANCH  24  26
ATOM     26  C   UNL     1      43.813   3.739  11.062  0.00  0.00    +0.000 C 
ATOM     27  F   UNL     1      42.665   4.471  11.010  0.00  0.00    +0.000 F 
ATOM     28  F   UNL     1      44.121   3.459   9.761  0.00  0.00    +0.000 F 
ATOM     29  F   UNL     1      43.449   2.541  11.609  0.00  0.00    +0.000 F 
ENDBRANCH  24  26
BRANCH  23  30
ATOM     30  O   UNL     1      44.981   6.297  10.386  0.00  0.00    +0.000 OA
ATOM     31  H   UNL     1      45.374   5.981   9.558  0.00  0.00    +0.000 HD
ENDBRANCH  23  30
ENDBRANCH  18  20
ENDBRANCH  17  18
ENDBRANCH   1  17
TORSDOF 6
ENDMDL
MODEL 6
REMARK VINA RESULT:    -6.575      3.669      5.674
REMARK INTER + INTRA:          -9.200
REMARK INTER:                  -8.381
REMARK INTRA:                  -0.819
REMARK UNBOUND:                -0.511
REMARK  Name = 
REMARK  9 active torsions:
REMARK  status: ('A' for Active; 'I' for Inactive)
REMARK    1  A    between atoms: C_1  and  C_2
REMARK    2  A    between atoms: C_9  and  C_10
REMARK    3  A    between atoms: C_10  and  C_11
REMARK    4  A    between atoms: C_10  and  C_12
REMARK    5  A    between atoms: C_12  and  N_13
REMARK    6  A    between atoms: N_13  and  C_14
REMARK    7  A    between atoms: C_17  and  O_18
REMARK    8  A    between atoms: C_19  and  C_20
REMARK    9  A    between atoms: C_27  and  C_28
REMARK                            x       y       z     vdW  Elec       q    Type
REMARK                         _______ _______ _______ _____ _____    ______ ____
ROOT
ATOM      1  C   UNL     1      48.535   3.787  16.374  0.00  0.00    +0.000 C 
ATOM      2  C   UNL     1      48.678   2.279  16.643  0.00  0.00    +0.000 C 
ENDROOT
BRANCH   1  11
ATOM      3  C   UNL     1      47.928   9.459  16.915  0.00  0.00    +0.000 C 
ATOM      4  C   UNL     1      49.436   9.670  17.051  0.00  0.00    +0.000 C 
ATOM      5  C   UNL     1      50.216   8.344  17.152  0.00  0.00    +0.000 C 
ATOM      6  N   UNL     1      50.041   7.761  18.475  0.00  0.00    +0.000 N 
ATOM      7  C   UNL     1      49.501   6.519  18.637  0.00  0.00    +0.000 A 
ATOM      8  N   UNL     1      49.328   6.043  19.876  0.00  0.00    +0.000 NA
ATOM      9  C   UNL     1      48.859   4.791  19.996  0.00  0.00    +0.000 A 
ATOM     10  C   UNL     1      48.560   3.991  18.927  0.00  0.00    +0.000 A 
ATOM     11  C   UNL     1      48.752   4.540  17.677  0.00  0.00    +0.000 A 
ATOM     12  N   UNL     1      49.195   5.808  17.543  0.00  0.00    +0.000 NA
ATOM     13  C   UNL     1      50.290   8.636  19.611  0.00  0.00    +0.000 C 
ATOM     14  C   UNL     1      49.501   9.950  19.437  0.00  0.00    +0.000 C 
ATOM     15  C   UNL     1      49.908  10.956  20.505  0.00  0.00    +0.000 C 
ATOM     16  O   UNL     1      49.744  10.553  18.150  0.00  0.00    +0.000 OA
ENDBRANCH   1  11
BRANCH   1  17
ATOM     17  C   UNL     1      47.173   4.046  15.706  0.00  0.00    +0.000 C 
BRANCH  17  18
ATOM     18  N   UNL     1      47.139   5.287  14.929  0.00  0.00    +0.000 N 
ATOM     19  H   UNL     1      47.535   6.129  15.333  0.00  0.00    +0.000 HD
BRANCH  18  20
ATOM     20  C   UNL     1      46.590   5.346  13.659  0.00  0.00    +0.000 A 
ATOM     21  C   UNL     1      46.993   6.287  12.713  0.00  0.00    +0.000 A 
ATOM     22  C   UNL     1      46.428   6.326  11.438  0.00  0.00    +0.000 A 
ATOM     23  C   UNL     1      45.436   5.419  11.095  0.00  0.00    +0.000 A 
ATOM     24  C   UNL     1      44.986   4.465  12.005  0.00  0.00    +0.000 A 
ATOM     25  C   UNL     1      45.582   4.439  13.288  0.00  0.00    +0.000 A 
BRANCH  24  26
ATOM     26  C   UNL     1      43.899   3.475  11.678  0.00  0.00    +0.000 C 
ATOM     27  F   UNL     1      42.699   3.998  11.301  0.00  0.00    +0.000 F 
ATOM     28  F   UNL     1      44.264   2.639  10.663  0.00  0.00    +0.000 F 
ATOM     29  F   UNL     1      43.616   2.655  12.734  0.00  0.00    +0.000 F 
ENDBRANCH  24  26
BRANCH  23  30
ATOM     30  O   UNL     1      44.903   5.471   9.841  0.00  0.00    +0.000 OA
ATOM     31  H   UNL     1      44.103   6.018   9.845  0.00  0.00    +0.000 HD
ENDBRANCH  23  30
ENDBRANCH  18  20
ENDBRANCH  17  18
ENDBRANCH   1  17
TORSDOF 6
ENDMDL
MODEL 7
REMARK VINA RESULT:    -6.158      3.083      4.511
REMARK INTER + INTRA:          -8.648
REMARK INTER:                  -7.685
REMARK INTRA:                  -0.963
REMARK UNBOUND:                -0.511
REMARK  Name = 
REMARK  9 active torsions:
REMARK  status: ('A' for Active; 'I' for Inactive)
REMARK    1  A    between atoms: C_1  and  C_2
REMARK    2  A    between atoms: C_9  and  C_10
REMARK    3  A    between atoms: C_10  and  C_11
REMARK    4  A    between atoms: C_10  and  C_12
REMARK    5  A    between atoms: C_12  and  N_13
REMARK    6  A    between atoms: N_13  and  C_14
REMARK    7  A    between atoms: C_17  and  O_18
REMARK    8  A    between atoms: C_19  and  C_20
REMARK    9  A    between atoms: C_27  and  C_28
REMARK                            x       y       z     vdW  Elec       q    Type
REMARK                         _______ _______ _______ _____ _____    ______ ____
ROOT
ATOM      1  C   UNL     1      48.686   9.152  14.100  0.00  0.00    +0.000 C 
ATOM      2  C   UNL     1      49.833   8.269  13.580  0.00  0.00    +0.000 C 
ENDROOT
BRANCH   1  11
ATOM      3  C   UNL     1      51.503   5.173  17.111  0.00  0.00    +0.000 C 
ATOM      4  C   UNL     1      50.212   4.429  17.453  0.00  0.00    +0.000 C 
ATOM      5  C   UNL     1      48.948   5.190  17.003  0.00  0.00    +0.000 C 
ATOM      6  N   UNL     1      48.698   6.312  17.896  0.00  0.00    +0.000 N 
ATOM      7  C   UNL     1      48.652   7.593  17.430  0.00  0.00    +0.000 A 
ATOM      8  N   UNL     1      48.453   8.593  18.297  0.00  0.00    +0.000 NA
ATOM      9  C   UNL     1      48.346   9.833  17.795  0.00  0.00    +0.000 A 
ATOM     10  C   UNL     1      48.421  10.116  16.459  0.00  0.00    +0.000 A 
ATOM     11  C   UNL     1      48.634   9.046  15.616  0.00  0.00    +0.000 A 
ATOM     12  N   UNL     1      48.774   7.797  16.111  0.00  0.00    +0.000 NA
ATOM     13  C   UNL     1      48.688   6.021  19.322  0.00  0.00    +0.000 C 
ATOM     14  C   UNL     1      49.964   5.241  19.701  0.00  0.00    +0.000 C 
ATOM     15  C   UNL     1      49.875   4.749  21.139  0.00  0.00    +0.000 C 
ATOM     16  O   UNL     1      50.157   4.090  18.854  0.00  0.00    +0.000 OA
ENDBRANCH   1  11
BRANCH   1  17
ATOM     17  C   UNL     1      47.383   8.747  13.386  0.00  0.00    +0.000 C 
BRANCH  17  18
ATOM     18  N   UNL     1      47.134   7.304  13.417  0.00  0.00    +0.000 N 
ATOM     19  H   UNL     1      47.741   6.714  13.978  0.00  0.00    +0.000 HD
BRANCH  18  20
ATOM     20  C   UNL     1      46.096   6.721  12.711  0.00  0.00    +0.000 A 
ATOM     21  C   UNL     1      45.099   7.471  12.091  0.00  0.00    +0.000 A 
ATOM     22  C   UNL     1      44.063   6.861  11.381  0.00  0.00    +0.000 A 
ATOM     23  C   UNL     1      44.010   5.478  11.291  0.00  0.00    +0.000 A 
ATOM     24  C   UNL     1      44.974   4.678  11.902  0.00  0.00    +0.000 A 
ATOM     25  C   UNL     1      46.020   5.321  12.607  0.00  0.00    +0.000 A 
BRANCH  24  26
ATOM     26  C   UNL     1      44.942   3.174  11.843  0.00  0.00    +0.000 C 
ATOM     27  F   UNL     1      43.798   2.576  12.278  0.00  0.00    +0.000 F 
ATOM     28  F   UNL     1      45.129   2.712  10.572  0.00  0.00    +0.000 F 
ATOM     29  F   UNL     1      45.944   2.609  12.581  0.00  0.00    +0.000 F 
ENDBRANCH  24  26
BRANCH  23  30
ATOM     30  O   UNL     1      42.993   4.904  10.587  0.00  0.00    +0.000 OA
ATOM     31  H   UNL     1      43.071   5.135   9.649  0.00  0.00    +0.000 HD
ENDBRANCH  23  30
ENDBRANCH  18  20
ENDBRANCH  17  18
ENDBRANCH   1  17
TORSDOF 6
ENDMDL
MODEL 8
REMARK VINA RESULT:    -5.910      3.683      5.403
REMARK INTER + INTRA:          -8.321
REMARK INTER:                  -7.494
REMARK INTRA:                  -0.828
REMARK UNBOUND:                -0.511
REMARK  Name = 
REMARK  9 active torsions:
REMARK  status: ('A' for Active; 'I' for Inactive)
REMARK    1  A    between atoms: C_1  and  C_2
REMARK    2  A    between atoms: C_9  and  C_10
REMARK    3  A    between atoms: C_10  and  C_11
REMARK    4  A    between atoms: C_10  and  C_12
REMARK    5  A    between atoms: C_12  and  N_13
REMARK    6  A    between atoms: N_13  and  C_14
REMARK    7  A    between atoms: C_17  and  O_18
REMARK    8  A    between atoms: C_19  and  C_20
REMARK    9  A    between atoms: C_27  and  C_28
REMARK                            x       y       z     vdW  Elec       q    Type
REMARK                         _______ _______ _______ _____ _____    ______ ____
ROOT
ATOM      1  C   UNL     1      46.181   9.095  12.770  0.00  0.00    +0.000 C 
ATOM      2  C   UNL     1      46.253  10.380  11.926  0.00  0.00    +0.000 C 
ENDROOT
BRANCH   1  11
ATOM      3  C   UNL     1      51.164  11.267  10.958  0.00  0.00    +0.000 C 
ATOM      4  C   UNL     1      51.697   9.887  10.576  0.00  0.00    +0.000 C 
ATOM      5  C   UNL     1      50.764   8.743  11.022  0.00  0.00    +0.000 C 
ATOM      6  N   UNL     1      50.878   8.538  12.459  0.00  0.00    +0.000 N 
ATOM      7  C   UNL     1      49.795   8.656  13.280  0.00  0.00    +0.000 A 
ATOM      8  N   UNL     1      49.959   8.492  14.598  0.00  0.00    +0.000 NA
ATOM      9  C   UNL     1      48.860   8.547  15.367  0.00  0.00    +0.000 A 
ATOM     10  C   UNL     1      47.601   8.751  14.873  0.00  0.00    +0.000 A 
ATOM     11  C   UNL     1      47.497   8.919  13.508  0.00  0.00    +0.000 A 
ATOM     12  N   UNL     1      48.598   8.897  12.727  0.00  0.00    +0.000 NA
ATOM     13  C   UNL     1      52.224   8.392  12.993  0.00  0.00    +0.000 C 
ATOM     14  C   UNL     1      53.109   9.551  12.492  0.00  0.00    +0.000 C 
ATOM     15  C   UNL     1      54.564   9.307  12.868  0.00  0.00    +0.000 C 
ATOM     16  O   UNL     1      53.044   9.693  11.058  0.00  0.00    +0.000 OA
ENDBRANCH   1  11
BRANCH   1  17
ATOM     17  C   UNL     1      45.800   7.919  11.852  0.00  0.00    +0.000 C 
BRANCH  17  18
ATOM     18  N   UNL     1      46.151   6.614  12.414  0.00  0.00    +0.000 N 
ATOM     19  H   UNL     1      46.947   6.547  13.040  0.00  0.00    +0.000 HD
BRANCH  18  20
ATOM     20  C   UNL     1      45.430   5.468  12.123  0.00  0.00    +0.000 A 
ATOM     21  C   UNL     1      44.531   4.901  13.024  0.00  0.00    +0.000 A 
ATOM     22  C   UNL     1      43.812   3.748  12.708  0.00  0.00    +0.000 A 
ATOM     23  C   UNL     1      43.993   3.138  11.475  0.00  0.00    +0.000 A 
ATOM     24  C   UNL     1      44.888   3.655  10.540  0.00  0.00    +0.000 A 
ATOM     25  C   UNL     1      45.597   4.831  10.881  0.00  0.00    +0.000 A 
BRANCH  24  26
ATOM     26  C   UNL     1      45.126   3.014   9.199  0.00  0.00    +0.000 C 
ATOM     27  F   UNL     1      45.614   1.742   9.216  0.00  0.00    +0.000 F 
ATOM     28  F   UNL     1      43.983   2.952   8.455  0.00  0.00    +0.000 F 
ATOM     29  F   UNL     1      46.010   3.726   8.438  0.00  0.00    +0.000 F 
ENDBRANCH  24  26
BRANCH  23  30
ATOM     30  O   UNL     1      43.275   2.017  11.185  0.00  0.00    +0.000 OA
ATOM     31  H   UNL     1      43.846   1.235  11.242  0.00  0.00    +0.000 HD
ENDBRANCH  23  30
ENDBRANCH  18  20
ENDBRANCH  17  18
ENDBRANCH   1  17
TORSDOF 6
ENDMDL
