MODEL 1
REMARK VINA RESULT:    -7.533      0.000      0.000
REMARK INTER + INTRA:         -10.314
REMARK INTER:                  -9.735
REMARK INTRA:                  -0.579
REMARK UNBOUND:                -0.579
REMARK  Name = 
REMARK  6 active torsions:
REMARK  status: ('A' for Active; 'I' for Inactive)
REMARK    1  A    between atoms: C_1  and  S_2
REMARK    2  A    between atoms: S_2  and  C_3
REMARK    3  A    between atoms: C_6  and  C_7
REMARK    4  A    between atoms: C_7  and  N_8
REMARK    5  A    between atoms: N_8  and  C_9
REMARK    6  A    between atoms: C_12  and  C_13
REMARK                            x       y       z     vdW  Elec       q    Type
REMARK                         _______ _______ _______ _____ _____    ______ ____
ROOT
ATOM      1  N   UNL     1      43.759   4.880   9.817  0.00  0.00    +0.000 N 
ATOM      2  H   UNL     1      43.886   5.830   9.470  0.00  0.00    +0.000 HD
ENDROOT
BRANCH   1   3
ATOM      3  C   UNL     1      44.572   3.965   9.130  0.00  0.00    +0.000 A 
ATOM      4  C   UNL     1      45.562   4.346   8.219  0.00  0.00    +0.000 A 
ATOM      5  C   UNL     1      46.387   3.392   7.624  0.00  0.00    +0.000 A 
ATOM      6  C   UNL     1      46.223   2.064   7.981  0.00  0.00    +0.000 A 
ATOM      7  N   UNL     1      45.305   1.635   8.890  0.00  0.00    +0.000 NA
ATOM      8  C   UNL     1      44.531   2.600   9.444  0.00  0.00    +0.000 A 
BRANCH   6   9
ATOM      9  C   UNL     1      47.098   1.021   7.356  0.00  0.00    +0.000 C 
ATOM     10  N   UNL     1      46.788  -0.273   7.670  0.00  0.00    +0.000 N 
ATOM     11  O   UNL     1      48.033   1.300   6.617  0.00  0.00    +0.000 OA
ATOM     12  H   UNL     1      46.015  -0.466   8.298  0.00  0.00    +0.000 HD
ATOM     13  H   UNL     1      47.351  -1.024   7.299  0.00  0.00    +0.000 HD
ENDBRANCH   6   9
ENDBRANCH   1   3
BRANCH   1  14
ATOM     14  C   UNL     1      43.773   4.834  11.276  0.00  0.00    +0.000 C 
BRANCH  14  18
ATOM     15  C   UNL     1      47.268   6.411  13.136  0.00  0.00    +0.000 A 
ATOM     16  C   UNL     1      46.818   7.042  11.982  0.00  0.00    +0.000 A 
ATOM     17  C   UNL     1      45.685   6.538  11.339  0.00  0.00    +0.000 A 
ATOM     18  C   UNL     1      45.042   5.408  11.847  0.00  0.00    +0.000 A 
ATOM     19  C   UNL     1      45.565   4.859  13.012  0.00  0.00    +0.000 A 
ATOM     20  N   UNL     1      46.654   5.328  13.656  0.00  0.00    +0.000 NA
BRANCH  15  22
ATOM     21  C   UNL     1      49.681   7.614  12.579  0.00  0.00    +0.000 C 
ATOM     22  S   UNL     1      48.692   7.055  13.994  0.00  0.00    +0.000 S 
ENDBRANCH  15  22
ENDBRANCH  14  18
ENDBRANCH   1  14
TORSDOF 5
ENDMDL
MODEL 2
REMARK VINA RESULT:    -7.233      3.289      6.317
REMARK INTER + INTRA:          -9.926
REMARK INTER:                  -9.370
REMARK INTRA:                  -0.556
REMARK UNBOUND:                -0.579
REMARK  Name = 
REMARK  6 active torsions:
REMARK  status: ('A' for Active; 'I' for Inactive)
REMARK    1  A    between atoms: C_1  and  S_2
REMARK    2  A    between atoms: S_2  and  C_3
REMARK    3  A    between atoms: C_6  and  C_7
REMARK    4  A    between atoms: C_7  and  N_8
REMARK    5  A    between atoms: N_8  and  C_9
REMARK    6  A    between atoms: C_12  and  C_13
REMARK                            x       y       z     vdW  Elec       q    Type
REMARK                         _______ _______ _______ _____ _____    ______ ____
ROOT
ATOM      1  N   UNL     1      44.511   5.941  10.877  0.00  0.00    +0.000 N 
ATOM      2  H   UNL     1      43.954   6.764  11.102  0.00  0.00    +0.000 HD
ENDROOT
BRANCH   1   3
ATOM      3  C   UNL     1      45.285   5.524  11.970  0.00  0.00    +0.000 A 
ATOM      4  C   UNL     1      46.562   6.024  12.247  0.00  0.00    +0.000 A 
ATOM      5  C   UNL     1      47.250   5.624  13.391  0.00  0.00    +0.000 A 
ATOM      6  C   UNL     1      46.628   4.744  14.261  0.00  0.00    +0.000 A 
ATOM      7  N   UNL     1      45.372   4.254  14.068  0.00  0.00    +0.000 NA
ATOM      8  C   UNL     1      44.742   4.676  12.945  0.00  0.00    +0.000 A 
BRANCH   6   9
ATOM      9  C   UNL     1      47.347   4.300  15.498  0.00  0.00    +0.000 C 
ATOM     10  N   UNL     1      47.546   5.268  16.443  0.00  0.00    +0.000 N 
ATOM     11  O   UNL     1      47.740   3.152  15.656  0.00  0.00    +0.000 OA
ATOM     12  H   UNL     1      47.219   6.213  16.271  0.00  0.00    +0.000 HD
ATOM     13  H   UNL     1      48.043   5.040  17.292  0.00  0.00    +0.000 HD
ENDBRANCH   6   9
ENDBRANCH   1   3
BRANCH   1  14
ATOM     14  C   UNL     1      43.717   4.929  10.185  0.00  0.00    +0.000 C 
BRANCH  14  18
ATOM     15  C   UNL     1      46.158   2.217   7.985  0.00  0.00    +0.000 A 
ATOM     16  C   UNL     1      46.303   3.571   7.714  0.00  0.00    +0.000 A 
ATOM     17  C   UNL     1      45.506   4.485   8.406  0.00  0.00    +0.000 A 
ATOM     18  C   UNL     1      44.568   4.026   9.333  0.00  0.00    +0.000 A 
ATOM     19  C   UNL     1      44.510   2.653   9.539  0.00  0.00    +0.000 A 
ATOM     20  N   UNL     1      45.272   1.749   8.888  0.00  0.00    +0.000 NA
BRANCH  15  22
ATOM     21  C   UNL     1      47.931   2.110   5.882  0.00  0.00    +0.000 C 
ATOM     22  S   UNL     1      47.190   1.033   7.139  0.00  0.00    +0.000 S 
ENDBRANCH  15  22
ENDBRANCH  14  18
ENDBRANCH   1  14
TORSDOF 5
ENDMDL
MODEL 3
REMARK VINA RESULT:    -7.219      1.743      2.175
REMARK INTER + INTRA:          -9.908
REMARK INTER:                  -9.411
REMARK INTRA:                  -0.496
REMARK UNBOUND:                -0.579
REMARK  Name = 
REMARK  6 active torsions:
REMARK  status: ('A' for Active; 'I' for Inactive)
REMARK    1  A    between atoms: C_1  and  S_2
REMARK    2  A    between atoms: S_2  and  C_3
REMARK    3  A    between atoms: C_6  and  C_7
REMARK    4  A    between atoms: C_7  and  N_8
REMARK    5  A    between atoms: N_8  and  C_9
REMARK    6  A    between atoms: C_12  and  C_13
REMARK                            x       y       z     vdW  Elec       q    Type
REMARK                         _______ _______ _______ _____ _____    ______ ____
ROOT
ATOM      1  N   UNL     1      43.782   3.840  10.275  0.00  0.00    +0.000 N 
ATOM      2  H   UNL     1      42.841   3.683   9.917  0.00  0.00    +0.000 HD
ENDROOT
BRANCH   1   3
ATOM      3  C   UNL     1      44.760   3.417   9.362  0.00  0.00    +0.000 A 
ATOM      4  C   UNL     1      45.168   2.085   9.232  0.00  0.00    +0.000 A 
ATOM      5  C   UNL     1      46.092   1.717   8.254  0.00  0.00    +0.000 A 
ATOM      6  C   UNL     1      46.571   2.694   7.398  0.00  0.00    +0.000 A 
ATOM      7  N   UNL     1      46.182   3.998   7.448  0.00  0.00    +0.000 NA
ATOM      8  C   UNL     1      45.279   4.305   8.412  0.00  0.00    +0.000 A 
BRANCH   6   9
ATOM      9  C   UNL     1      47.563   2.322   6.339  0.00  0.00    +0.000 C 
ATOM     10  N   UNL     1      47.527   3.083   5.204  0.00  0.00    +0.000 N 
ATOM     11  O   UNL     1      48.353   1.396   6.471  0.00  0.00    +0.000 OA
ATOM     12  H   UNL     1      46.848   3.833   5.125  0.00  0.00    +0.000 HD
ATOM     13  H   UNL     1      48.156   2.872   4.443  0.00  0.00    +0.000 HD
ENDBRANCH   6   9
ENDBRANCH   1   3
BRANCH   1  14
ATOM     14  C   UNL     1      43.923   5.176  10.846  0.00  0.00    +0.000 C 
BRANCH  14  18
ATOM     15  C   UNL     1      46.853   5.325  13.937  0.00  0.00    +0.000 A 
ATOM     16  C   UNL     1      47.030   6.169  12.847  0.00  0.00    +0.000 A 
ATOM     17  C   UNL     1      46.096   6.132  11.809  0.00  0.00    +0.000 A 
ATOM     18  C   UNL     1      45.023   5.241  11.871  0.00  0.00    +0.000 A 
ATOM     19  C   UNL     1      44.932   4.447  13.009  0.00  0.00    +0.000 A 
ATOM     20  N   UNL     1      45.817   4.467  14.027  0.00  0.00    +0.000 NA
BRANCH  15  22
ATOM     21  C   UNL     1      47.323   4.071  16.342  0.00  0.00    +0.000 C 
ATOM     22  S   UNL     1      48.014   5.378  15.290  0.00  0.00    +0.000 S 
ENDBRANCH  15  22
ENDBRANCH  14  18
ENDBRANCH   1  14
TORSDOF 5
ENDMDL
MODEL 4
REMARK VINA RESULT:    -6.742      3.452      6.531
REMARK INTER + INTRA:          -9.291
REMARK INTER:                  -8.761
REMARK INTRA:                  -0.530
REMARK UNBOUND:                -0.579
REMARK  Name = 
REMARK  6 active torsions:
REMARK  status: ('A' for Active; 'I' for Inactive)
REMARK    1  A    between atoms: C_1  and  S_2
REMARK    2  A    between atoms: S_2  and  C_3
REMARK    3  A    between atoms: C_6  and  C_7
REMARK    4  A    between atoms: C_7  and  N_8
REMARK    5  A    between atoms: N_8  and  C_9
REMARK    6  A    between atoms: C_12  and  C_13
REMARK                            x       y       z     vdW  Elec       q    Type
REMARK                         _______ _______ _______ _____ _____    ______ ____
ROOT
ATOM      1  N   UNL     1      43.975   3.604  12.709  0.00  0.00    +0.000 N 
ATOM      2  H   UNL     1      44.414   2.701  12.888  0.00  0.00    +0.000 HD
ENDROOT
BRANCH   1   3
ATOM      3  C   UNL     1      44.858   4.667  12.950  0.00  0.00    +0.000 A 
ATOM      4  C   UNL     1      46.219   4.492  13.223  0.00  0.00    +0.000 A 
ATOM      5  C   UNL     1      47.060   5.593  13.381  0.00  0.00    +0.000 A 
ATOM      6  C   UNL     1      46.522   6.860  13.231  0.00  0.00    +0.000 A 
ATOM      7  N   UNL     1      45.216   7.095  12.926  0.00  0.00    +0.000 NA
ATOM      8  C   UNL     1      44.440   5.993  12.777  0.00  0.00    +0.000 A 
BRANCH   6   9
ATOM      9  C   UNL     1      47.406   8.058  13.395  0.00  0.00    +0.000 C 
ATOM     10  N   UNL     1      47.153   8.831  14.495  0.00  0.00    +0.000 N 
ATOM     11  O   UNL     1      48.294   8.338  12.600  0.00  0.00    +0.000 OA
ATOM     12  H   UNL     1      46.399   8.576  15.124  0.00  0.00    +0.000 HD
ATOM     13  H   UNL     1      47.700   9.665  14.654  0.00  0.00    +0.000 HD
ENDBRANCH   6   9
ENDBRANCH   1   3
BRANCH   1  14
ATOM     14  C   UNL     1      43.246   3.604  11.444  0.00  0.00    +0.000 C 
BRANCH  14  18
ATOM     15  C   UNL     1      45.678   3.253   7.963  0.00  0.00    +0.000 A 
ATOM     16  C   UNL     1      45.507   2.115   8.741  0.00  0.00    +0.000 A 
ATOM     17  C   UNL     1      44.729   2.201   9.897  0.00  0.00    +0.000 A 
ATOM     18  C   UNL     1      44.161   3.423  10.263  0.00  0.00    +0.000 A 
ATOM     19  C   UNL     1      44.384   4.498   9.411  0.00  0.00    +0.000 A 
ATOM     20  N   UNL     1      45.127   4.441   8.286  0.00  0.00    +0.000 NA
BRANCH  15  22
ATOM     21  C   UNL     1      47.670   1.717   6.845  0.00  0.00    +0.000 C 
ATOM     22  S   UNL     1      46.639   3.160   6.464  0.00  0.00    +0.000 S 
ENDBRANCH  15  22
ENDBRANCH  14  18
ENDBRANCH   1  14
TORSDOF 5
ENDMDL
MODEL 5
REMARK VINA RESULT:    -5.921      4.612      6.157
REMARK INTER + INTRA:          -8.231
REMARK INTER:                  -7.853
REMARK INTRA:                  -0.377
REMARK UNBOUND:                -0.579
REMARK  Name = 
REMARK  6 active torsions:
REMARK  status: ('A' for Active; 'I' for Inactive)
REMARK    1  A    between atoms: C_1  and  S_2
REMARK    2  A    between atoms: S_2  and  C_3
REMARK    3  A    between atoms: C_6  and  C_7
REMARK    4  A    between atoms: C_7  and  N_8
REMARK    5  A    between atoms: N_8  and  C_9
REMARK    6  A    between atoms: C_12  and  C_13
REMARK                            x       y       z     vdW  Elec       q    Type
REMARK                         _______ _______ _______ _____ _____    ______ ____
ROOT
ATOM      1  N   UNL     1      47.360   5.195  15.118  0.00  0.00    +0.000 N 
ATOM      2  H   UNL     1      48.324   5.298  14.802  0.00  0.00    +0.000 HD
ENDROOT
BRANCH   1   3
ATOM      3  C   UNL     1      46.497   4.886  14.056  0.00  0.00    +0.000 A 
ATOM      4  C   UNL     1      45.839   5.855  13.290  0.00  0.00    +0.000 A 
ATOM      5  C   UNL     1      45.052   5.486  12.200  0.00  0.00    +0.000 A 
ATOM      6  C   UNL     1      44.963   4.142  11.876  0.00  0.00    +0.000 A 
ATOM      7  N   UNL     1      45.611   3.157  12.557  0.00  0.00    +0.000 NA
ATOM      8  C   UNL     1      46.367   3.566  13.605  0.00  0.00    +0.000 A 
BRANCH   6   9
ATOM      9  C   UNL     1      44.124   3.721  10.709  0.00  0.00    +0.000 C 
ATOM     10  N   UNL     1      44.072   4.609   9.670  0.00  0.00    +0.000 N 
ATOM     11  O   UNL     1      43.517   2.658  10.681  0.00  0.00    +0.000 OA
ATOM     12  H   UNL     1      44.576   5.487   9.735  0.00  0.00    +0.000 HD
ATOM     13  H   UNL     1      43.508   4.396   8.860  0.00  0.00    +0.000 HD
ENDBRANCH   6   9
ENDBRANCH   1   3
BRANCH   1  14
ATOM     14  C   UNL     1      47.275   4.371  16.320  0.00  0.00    +0.000 C 
BRANCH  14  18
ATOM     15  C   UNL     1      50.833   2.222  17.256  0.00  0.00    +0.000 A 
ATOM     16  C   UNL     1      50.757   3.545  17.674  0.00  0.00    +0.000 A 
ATOM     17  C   UNL     1      49.611   4.282  17.368  0.00  0.00    +0.000 A 
ATOM     18  C   UNL     1      48.580   3.691  16.635  0.00  0.00    +0.000 A 
ATOM     19  C   UNL     1      48.750   2.359  16.274  0.00  0.00    +0.000 A 
ATOM     20  N   UNL     1      49.844   1.624  16.560  0.00  0.00    +0.000 NA
BRANCH  15  22
ATOM     21  C   UNL     1      53.215   2.476  18.613  0.00  0.00    +0.000 C 
ATOM     22  S   UNL     1      52.272   1.250  17.664  0.00  0.00    +0.000 S 
ENDBRANCH  15  22
ENDBRANCH  14  18
ENDBRANCH   1  14
TORSDOF 5
ENDMDL
MODEL 6
REMARK VINA RESULT:    -5.377      5.326      8.030
REMARK INTER + INTRA:          -7.527
REMARK INTER:                  -7.094
REMARK INTRA:                  -0.434
REMARK UNBOUND:                -0.579
REMARK  Name = 
REMARK  6 active torsions:
REMARK  status: ('A' for Active; 'I' for Inactive)
REMARK    1  A    between atoms: C_1  and  S_2
REMARK    2  A    between atoms: S_2  and  C_3
REMARK    3  A    between atoms: C_6  and  C_7
REMARK    4  A    between atoms: C_7  and  N_8
REMARK    5  A    between atoms: N_8  and  C_9
REMARK    6  A    between atoms: C_12  and  C_13
REMARK                            x       y       z     vdW  Elec       q    Type
REMARK                         _______ _______ _______ _____ _____    ______ ____
ROOT
ATOM      1  N   UNL     1      47.805   5.312  16.314  0.00  0.00    +0.000 N 
ATOM      2  H   UNL     1      46.865   4.917  16.335  0.00  0.00    +0.000 HD
ENDROOT
BRANCH   1   3
ATOM      3  C   UNL     1      48.767   4.379  16.732  0.00  0.00    +0.000 A 
ATOM      4  C   UNL     1      48.555   2.997  16.724  0.00  0.00    +0.000 A 
ATOM      5  C   UNL     1      49.578   2.119  17.081  0.00  0.00    +0.000 A 
ATOM      6  C   UNL     1      50.814   2.647  17.414  0.00  0.00    +0.000 A 
ATOM      7  N   UNL     1      51.094   3.979  17.403  0.00  0.00    +0.000 NA
ATOM      8  C   UNL     1      50.069   4.791  17.043  0.00  0.00    +0.000 A 
BRANCH   6   9
ATOM      9  C   UNL     1      51.928   1.723  17.801  0.00  0.00    +0.000 C 
ATOM     10  N   UNL     1      51.569   0.421  18.009  0.00  0.00    +0.000 N 
ATOM     11  O   UNL     1      53.085   2.102  17.931  0.00  0.00    +0.000 OA
ATOM     12  H   UNL     1      50.597   0.146  17.907  0.00  0.00    +0.000 HD
ATOM     13  H   UNL     1      52.268  -0.250  18.293  0.00  0.00    +0.000 HD
ENDBRANCH   6   9
ENDBRANCH   1   3
BRANCH   1  14
ATOM     14  C   UNL     1      48.057   6.033  15.070  0.00  0.00    +0.000 C 
BRANCH  14  18
ATOM     15  C   UNL     1      45.307   5.046  11.969  0.00  0.00    +0.000 A 
ATOM     16  C   UNL     1      45.677   4.031  12.842  0.00  0.00    +0.000 A 
ATOM     17  C   UNL     1      46.590   4.317  13.859  0.00  0.00    +0.000 A 
ATOM     18  C   UNL     1      47.129   5.601  13.967  0.00  0.00    +0.000 A 
ATOM     19  C   UNL     1      46.685   6.547  13.051  0.00  0.00    +0.000 A 
ATOM     20  N   UNL     1      45.801   6.298  12.063  0.00  0.00    +0.000 NA
BRANCH  15  22
ATOM     21  C   UNL     1      42.656   5.519  11.395  0.00  0.00    +0.000 C 
ATOM     22  S   UNL     1      44.117   4.713  10.683  0.00  0.00    +0.000 S 
ENDBRANCH  15  22
ENDBRANCH  14  18
ENDBRANCH   1  14
TORSDOF 5
ENDMDL
MODEL 7
REMARK VINA RESULT:    -5.273      3.122      4.915
REMARK INTER + INTRA:          -7.393
REMARK INTER:                  -6.905
REMARK INTRA:                  -0.488
REMARK UNBOUND:                -0.579
REMARK  Name = 
REMARK  6 active torsions:
REMARK  status: ('A' for Active; 'I' for Inactive)
REMARK    1  A    between atoms: C_1  and  S_2
REMARK    2  A    between atoms: S_2  and  C_3
REMARK    3  A    between atoms: C_6  and  C_7
REMARK    4  A    between atoms: C_7  and  N_8
REMARK    5  A    between atoms: N_8  and  C_9
REMARK    6  A    between atoms: C_12  and  C_13
REMARK                            x       y       z     vdW  Elec       q    Type
REMARK                         _______ _______ _______ _____ _____    ______ ____
ROOT
ATOM      1  N   UNL     1      46.936   7.064  13.796  0.00  0.00    +0.000 N 
ATOM      2  H   UNL     1      46.492   7.287  14.686  0.00  0.00    +0.000 HD
ENDROOT
BRANCH   1   3
ATOM      3  C   UNL     1      46.204   6.106  13.078  0.00  0.00    +0.000 A 
ATOM      4  C   UNL     1      45.838   6.261  11.737  0.00  0.00    +0.000 A 
ATOM      5  C   UNL     1      45.175   5.240  11.058  0.00  0.00    +0.000 A 
ATOM      6  C   UNL     1      44.916   4.059  11.733  0.00  0.00    +0.000 A 
ATOM      7  N   UNL     1      45.282   3.832  13.025  0.00  0.00    +0.000 NA
ATOM      8  C   UNL     1      45.929   4.853  13.640  0.00  0.00    +0.000 A 
BRANCH   6   9
ATOM      9  C   UNL     1      44.205   2.947  11.025  0.00  0.00    +0.000 C 
ATOM     10  N   UNL     1      44.901   2.358  10.006  0.00  0.00    +0.000 N 
ATOM     11  O   UNL     1      43.074   2.588  11.327  0.00  0.00    +0.000 OA
ATOM     12  H   UNL     1      45.830   2.692   9.774  0.00  0.00    +0.000 HD
ATOM     13  H   UNL     1      44.471   1.615   9.473  0.00  0.00    +0.000 HD
ENDBRANCH   6   9
ENDBRANCH   1   3
BRANCH   1  14
ATOM     14  C   UNL     1      47.350   8.271  13.085  0.00  0.00    +0.000 C 
BRANCH  14  18
ATOM     15  C   UNL     1      51.505   8.424  12.154  0.00  0.00    +0.000 A 
ATOM     16  C   UNL     1      50.665   7.817  11.229  0.00  0.00    +0.000 A 
ATOM     17  C   UNL     1      49.300   7.735  11.512  0.00  0.00    +0.000 A 
ATOM     18  C   UNL     1      48.809   8.239  12.719  0.00  0.00    +0.000 A 
ATOM     19  C   UNL     1      49.732   8.836  13.570  0.00  0.00    +0.000 A 
ATOM     20  N   UNL     1      51.053   8.933  13.319  0.00  0.00    +0.000 NA
BRANCH  15  22
ATOM     21  C   UNL     1      53.402   7.328  10.486  0.00  0.00    +0.000 C 
ATOM     22  S   UNL     1      53.247   8.570  11.799  0.00  0.00    +0.000 S 
ENDBRANCH  15  22
ENDBRANCH  14  18
ENDBRANCH   1  14
TORSDOF 5
ENDMDL
MODEL 8
REMARK VINA RESULT:    -5.121      3.754      5.378
REMARK INTER + INTRA:          -7.196
REMARK INTER:                  -6.816
REMARK INTRA:                  -0.380
REMARK UNBOUND:                -0.579
REMARK  Name = 
REMARK  6 active torsions:
REMARK  status: ('A' for Active; 'I' for Inactive)
REMARK    1  A    between atoms: C_1  and  S_2
REMARK    2  A    between atoms: S_2  and  C_3
REMARK    3  A    between atoms: C_6  and  C_7
REMARK    4  A    between atoms: C_7  and  N_8
REMARK    5  A    between atoms: N_8  and  C_9
REMARK    6  A    between atoms: C_12  and  C_13
REMARK                            x       y       z     vdW  Elec       q    Type
REMARK                         _______ _______ _______ _____ _____    ______ ____
ROOT
ATOM      1  N   UNL     1      47.003   7.051  13.689  0.00  0.00    +0.000 N 
ATOM      2  H   UNL     1      46.928   7.965  13.243  0.00  0.00    +0.000 HD
ENDROOT
BRANCH   1   3
ATOM      3  C   UNL     1      46.250   6.080  13.010  0.00  0.00    +0.000 A 
ATOM      4  C   UNL     1      45.846   6.211  11.678  0.00  0.00    +0.000 A 
ATOM      5  C   UNL     1      45.162   5.178  11.038  0.00  0.00    +0.000 A 
ATOM      6  C   UNL     1      44.921   4.010  11.742  0.00  0.00    +0.000 A 
ATOM      7  N   UNL     1      45.325   3.808  13.027  0.00  0.00    +0.000 NA
ATOM      8  C   UNL     1      45.990   4.839  13.604  0.00  0.00    +0.000 A 
BRANCH   6   9
ATOM      9  C   UNL     1      44.189   2.886  11.076  0.00  0.00    +0.000 C 
ATOM     10  N   UNL     1      44.845   2.292  10.034  0.00  0.00    +0.000 N 
ATOM     11  O   UNL     1      43.075   2.522  11.430  0.00  0.00    +0.000 OA
ATOM     12  H   UNL     1      45.761   2.631   9.759  0.00  0.00    +0.000 HD
ATOM     13  H   UNL     1      44.399   1.541   9.527  0.00  0.00    +0.000 HD
ENDBRANCH   6   9
ENDBRANCH   1   3
BRANCH   1  14
ATOM     14  C   UNL     1      48.388   6.726  14.015  0.00  0.00    +0.000 C 
BRANCH  14  18
ATOM     15  C   UNL     1      48.987   6.876  18.231  0.00  0.00    +0.000 A 
ATOM     16  C   UNL     1      49.064   8.074  17.532  0.00  0.00    +0.000 A 
ATOM     17  C   UNL     1      48.889   8.056  16.146  0.00  0.00    +0.000 A 
ATOM     18  C   UNL     1      48.665   6.844  15.490  0.00  0.00    +0.000 A 
ATOM     19  C   UNL     1      48.596   5.705  16.283  0.00  0.00    +0.000 A 
ATOM     20  N   UNL     1      48.755   5.695  17.622  0.00  0.00    +0.000 NA
BRANCH  15  22
ATOM     21  C   UNL     1      48.254   5.368  20.415  0.00  0.00    +0.000 C 
ATOM     22  S   UNL     1      49.173   6.878  20.005  0.00  0.00    +0.000 S 
ENDBRANCH  15  22
ENDBRANCH  14  18
ENDBRANCH   1  14
TORSDOF 5
ENDMDL
MODEL 9
REMARK VINA RESULT:    -5.013      3.688      6.630
REMARK INTER + INTRA:          -7.058
REMARK INTER:                  -6.494
REMARK INTRA:                  -0.564
REMARK UNBOUND:                -0.579
REMARK  Name = 
REMARK  6 active torsions:
REMARK  status: ('A' for Active; 'I' for Inactive)
REMARK    1  A    between atoms: C_1  and  S_2
REMARK    2  A    between atoms: S_2  and  C_3
REMARK    3  A    between atoms: C_6  and  C_7
REMARK    4  A    between atoms: C_7  and  N_8
REMARK    5  A    between atoms: N_8  and  C_9
REMARK    6  A    between atoms: C_12  and  C_13
REMARK                            x       y       z     vdW  Elec       q    Type
REMARK                         _______ _______ _______ _____ _____    ______ ____
ROOT
ATOM      1  N   UNL     1      45.476   5.845  13.498  0.00  0.00    +0.000 N 
ATOM      2  H   UNL     1      45.925   4.966  13.754  0.00  0.00    +0.000 HD
ENDROOT
BRANCH   1   3
ATOM      3  C   UNL     1      46.411   6.794  13.058  0.00  0.00    +0.000 A 
ATOM      4  C   UNL     1      47.713   6.468  12.662  0.00  0.00    +0.000 A 
ATOM      5  C   UNL     1      48.571   7.447  12.164  0.00  0.00    +0.000 A 
ATOM      6  C   UNL     1      48.094   8.742  12.040  0.00  0.00    +0.000 A 
ATOM      7  N   UNL     1      46.826   9.113  12.370  0.00  0.00    +0.000 NA
ATOM      8  C   UNL     1      46.029   8.125  12.845  0.00  0.00    +0.000 A 
BRANCH   6   9
ATOM      9  C   UNL     1      48.997   9.811  11.507  0.00  0.00    +0.000 C 
ATOM     10  N   UNL     1      50.312   9.704  11.864  0.00  0.00    +0.000 N 
ATOM     11  O   UNL     1      48.591  10.726  10.802  0.00  0.00    +0.000 OA
ATOM     12  H   UNL     1      50.609   8.940  12.462  0.00  0.00    +0.000 HD
ATOM     13  H   UNL     1      50.971  10.404  11.554  0.00  0.00    +0.000 HD
ENDBRANCH   6   9
ENDBRANCH   1   3
BRANCH   1  14
ATOM     14  C   UNL     1      44.295   5.624  12.669  0.00  0.00    +0.000 C 
BRANCH  14  18
ATOM     15  C   UNL     1      45.324   3.196   9.322  0.00  0.00    +0.000 A 
ATOM     16  C   UNL     1      45.336   4.573   9.140  0.00  0.00    +0.000 A 
ATOM     17  C   UNL     1      44.988   5.396  10.213  0.00  0.00    +0.000 A 
ATOM     18  C   UNL     1      44.613   4.827  11.432  0.00  0.00    +0.000 A 
ATOM     19  C   UNL     1      44.644   3.440  11.513  0.00  0.00    +0.000 A 
ATOM     20  N   UNL     1      44.982   2.622  10.494  0.00  0.00    +0.000 NA
BRANCH  15  22
ATOM     21  C   UNL     1      46.541   3.344   6.857  0.00  0.00    +0.000 C 
ATOM     22  S   UNL     1      45.798   2.125   7.977  0.00  0.00    +0.000 S 
ENDBRANCH  15  22
ENDBRANCH  14  18
ENDBRANCH   1  14
TORSDOF 5
ENDMDL
