MODEL 1
REMARK VINA RESULT:    -8.657      0.000      0.000
REMARK INTER + INTRA:         -11.912
REMARK INTER:                 -11.188
REMARK INTRA:                  -0.725
REMARK UNBOUND:                -0.725
REMARK  Name = 
REMARK  5 active torsions:
REMARK  status: ('A' for Active; 'I' for Inactive)
REMARK    1  A    between atoms: C_2  and  C_4
REMARK    2  A    between atoms: C_7  and  N_8
REMARK    3  A    between atoms: N_8  and  C_9
REMARK    4  A    between atoms: C_9  and  C_10
REMARK    5  A    between atoms: C_14  and  C_15
REMARK                            x       y       z     vdW  Elec       q    Type
REMARK                         _______ _______ _______ _____ _____    ______ ____
ROOT
ATOM      1  N   UNL     1      43.778   4.819  10.039  0.00  0.00    +0.000 N 
ATOM      2  H   UNL     1      42.951   5.214   9.592  0.00  0.00    +0.000 HD
ENDROOT
BRANCH   1   6
ATOM      3  C   UNL     1      46.318   2.299   7.812  0.00  0.00    +0.000 A 
ATOM      4  C   UNL     1      45.414   1.738   8.717  0.00  0.00    +0.000 A 
ATOM      5  C   UNL     1      44.541   2.563   9.437  0.00  0.00    +0.000 A 
ATOM      6  C   UNL     1      44.529   3.952   9.255  0.00  0.00    +0.000 A 
ATOM      7  C   UNL     1      45.442   4.497   8.342  0.00  0.00    +0.000 A 
ATOM      8  C   UNL     1      46.332   3.682   7.630  0.00  0.00    +0.000 A 
BRANCH   3  10
ATOM      9  N   UNL     1      48.407   2.103   6.571  0.00  0.00    +0.000 N 
ATOM     10  C   UNL     1      47.313   1.468   7.086  0.00  0.00    +0.000 C 
ATOM     11  O   UNL     1      47.178   0.256   6.969  0.00  0.00    +0.000 OA
ATOM     12  H   UNL     1      49.116   1.512   6.156  0.00  0.00    +0.000 HD
ATOM     13  H   UNL     1      48.676   3.036   6.852  0.00  0.00    +0.000 HD
ENDBRANCH   3  10
ENDBRANCH   1   6
BRANCH   1  14
ATOM     14  C   UNL     1      43.604   4.601  11.476  0.00  0.00    +0.000 C 
BRANCH  14  15
ATOM     15  C   UNL     1      44.853   4.937  12.281  0.00  0.00    +0.000 A 
ATOM     16  N   UNL     1      45.311   4.027  13.167  0.00  0.00    +0.000 NA
ATOM     17  C   UNL     1      46.448   4.345  13.809  0.00  0.00    +0.000 A 
ATOM     18  C   UNL     1      47.150   5.506  13.583  0.00  0.00    +0.000 A 
ATOM     19  C   UNL     1      46.631   6.375  12.641  0.00  0.00    +0.000 A 
ATOM     20  N   UNL     1      45.479   6.098  11.990  0.00  0.00    +0.000 NA
BRANCH  19  21
ATOM     21  C   UNL     1      47.284   7.643  12.272  0.00  0.00    +0.000 A 
ATOM     22  C   UNL     1      48.606   7.713  11.807  0.00  0.00    +0.000 A 
ATOM     23  C   UNL     1      49.179   8.941  11.470  0.00  0.00    +0.000 A 
ATOM     24  C   UNL     1      48.413  10.084  11.605  0.00  0.00    +0.000 A 
ATOM     25  N   UNL     1      47.138  10.075  12.040  0.00  0.00    +0.000 NA
ATOM     26  C   UNL     1      46.608   8.863  12.353  0.00  0.00    +0.000 A 
ENDBRANCH  19  21
ENDBRANCH  14  15
ENDBRANCH   1  14
TORSDOF 5
ENDMDL
MODEL 2
REMARK VINA RESULT:    -7.974      1.843      3.669
REMARK INTER + INTRA:         -11.029
REMARK INTER:                 -10.399
REMARK INTRA:                  -0.630
REMARK UNBOUND:                -0.725
REMARK  Name = 
REMARK  5 active torsions:
REMARK  status: ('A' for Active; 'I' for Inactive)
REMARK    1  A    between atoms: C_2  and  C_4
REMARK    2  A    between atoms: C_7  and  N_8
REMARK    3  A    between atoms: N_8  and  C_9
REMARK    4  A    between atoms: C_9  and  C_10
REMARK    5  A    between atoms: C_14  and  C_15
REMARK                            x       y       z     vdW  Elec       q    Type
REMARK                         _______ _______ _______ _____ _____    ______ ____
ROOT
ATOM      1  N   UNL     1      43.582   4.198  10.634  0.00  0.00    +0.000 N 
ATOM      2  H   UNL     1      42.585   4.229  10.420  0.00  0.00    +0.000 HD
ENDROOT
BRANCH   1   6
ATOM      3  C   UNL     1      46.273   2.522   7.856  0.00  0.00    +0.000 A 
ATOM      4  C   UNL     1      45.551   1.683   8.706  0.00  0.00    +0.000 A 
ATOM      5  C   UNL     1      44.629   2.225   9.610  0.00  0.00    +0.000 A 
ATOM      6  C   UNL     1      44.385   3.603   9.668  0.00  0.00    +0.000 A 
ATOM      7  C   UNL     1      45.117   4.431   8.806  0.00  0.00    +0.000 A 
ATOM      8  C   UNL     1      46.056   3.899   7.911  0.00  0.00    +0.000 A 
BRANCH   3  10
ATOM      9  N   UNL     1      48.267   2.871   6.498  0.00  0.00    +0.000 N 
ATOM     10  C   UNL     1      47.315   1.995   6.938  0.00  0.00    +0.000 C 
ATOM     11  O   UNL     1      47.342   0.818   6.602  0.00  0.00    +0.000 OA
ATOM     12  H   UNL     1      49.017   2.478   5.944  0.00  0.00    +0.000 HD
ATOM     13  H   UNL     1      48.423   3.767   6.936  0.00  0.00    +0.000 HD
ENDBRANCH   3  10
ENDBRANCH   1   6
BRANCH   1  14
ATOM     14  C   UNL     1      43.858   4.045  12.063  0.00  0.00    +0.000 C 
BRANCH  14  15
ATOM     15  C   UNL     1      45.021   4.907  12.537  0.00  0.00    +0.000 A 
ATOM     16  N   UNL     1      45.190   6.124  11.977  0.00  0.00    +0.000 NA
ATOM     17  C   UNL     1      46.194   6.869  12.470  0.00  0.00    +0.000 A 
ATOM     18  C   UNL     1      47.005   6.464  13.505  0.00  0.00    +0.000 A 
ATOM     19  C   UNL     1      46.752   5.216  14.043  0.00  0.00    +0.000 A 
ATOM     20  N   UNL     1      45.763   4.430  13.560  0.00  0.00    +0.000 NA
BRANCH  19  21
ATOM     21  C   UNL     1      47.516   4.658  15.171  0.00  0.00    +0.000 A 
ATOM     22  C   UNL     1      48.184   5.458  16.111  0.00  0.00    +0.000 A 
ATOM     23  C   UNL     1      48.897   4.879  17.163  0.00  0.00    +0.000 A 
ATOM     24  C   UNL     1      48.928   3.501  17.256  0.00  0.00    +0.000 A 
ATOM     25  N   UNL     1      48.301   2.683  16.387  0.00  0.00    +0.000 NA
ATOM     26  C   UNL     1      47.611   3.279  15.378  0.00  0.00    +0.000 A 
ENDBRANCH  19  21
ENDBRANCH  14  15
ENDBRANCH   1  14
TORSDOF 5
ENDMDL
MODEL 3
REMARK VINA RESULT:    -7.579      1.672      2.370
REMARK INTER + INTRA:         -10.518
REMARK INTER:                 -10.042
REMARK INTRA:                  -0.476
REMARK UNBOUND:                -0.725
REMARK  Name = 
REMARK  5 active torsions:
REMARK  status: ('A' for Active; 'I' for Inactive)
REMARK    1  A    between atoms: C_2  and  C_4
REMARK    2  A    between atoms: C_7  and  N_8
REMARK    3  A    between atoms: N_8  and  C_9
REMARK    4  A    between atoms: C_9  and  C_10
REMARK    5  A    between atoms: C_14  and  C_15
REMARK                            x       y       z     vdW  Elec       q    Type
REMARK                         _______ _______ _______ _____ _____    ______ ____
ROOT
ATOM      1  N   UNL     1      43.849   3.294  10.506  0.00  0.00    +0.000 N 
ATOM      2  H   UNL     1      43.181   2.525  10.537  0.00  0.00    +0.000 HD
ENDROOT
BRANCH   1   6
ATOM      3  C   UNL     1      46.567   2.892   7.310  0.00  0.00    +0.000 A 
ATOM      4  C   UNL     1      46.128   4.163   7.684  0.00  0.00    +0.000 A 
ATOM      5  C   UNL     1      45.252   4.313   8.766  0.00  0.00    +0.000 A 
ATOM      6  C   UNL     1      44.817   3.211   9.513  0.00  0.00    +0.000 A 
ATOM      7  C   UNL     1      45.269   1.942   9.125  0.00  0.00    +0.000 A 
ATOM      8  C   UNL     1      46.131   1.780   8.031  0.00  0.00    +0.000 A 
BRANCH   3  10
ATOM      9  N   UNL     1      48.743   2.361   6.347  0.00  0.00    +0.000 N 
ATOM     10  C   UNL     1      47.434   2.683   6.122  0.00  0.00    +0.000 C 
ATOM     11  O   UNL     1      46.997   2.769   4.982  0.00  0.00    +0.000 OA
ATOM     12  H   UNL     1      49.297   2.138   5.531  0.00  0.00    +0.000 HD
ATOM     13  H   UNL     1      49.076   2.043   7.246  0.00  0.00    +0.000 HD
ENDBRANCH   3  10
ENDBRANCH   1   6
BRANCH   1  14
ATOM     14  C   UNL     1      44.150   3.846  11.828  0.00  0.00    +0.000 C 
BRANCH  14  15
ATOM     15  C   UNL     1      44.555   5.313  11.780  0.00  0.00    +0.000 A 
ATOM     16  N   UNL     1      43.615   6.230  11.466  0.00  0.00    +0.000 NA
ATOM     17  C   UNL     1      44.007   7.515  11.495  0.00  0.00    +0.000 A 
ATOM     18  C   UNL     1      45.275   7.916  11.848  0.00  0.00    +0.000 A 
ATOM     19  C   UNL     1      46.173   6.920  12.182  0.00  0.00    +0.000 A 
ATOM     20  N   UNL     1      45.820   5.615  12.146  0.00  0.00    +0.000 NA
BRANCH  19  21
ATOM     21  C   UNL     1      47.556   7.195  12.607  0.00  0.00    +0.000 A 
ATOM     22  C   UNL     1      48.458   7.940  11.832  0.00  0.00    +0.000 A 
ATOM     23  C   UNL     1      49.760   8.172  12.279  0.00  0.00    +0.000 A 
ATOM     24  C   UNL     1      50.138   7.652  13.503  0.00  0.00    +0.000 A 
ATOM     25  N   UNL     1      49.313   6.936  14.292  0.00  0.00    +0.000 NA
ATOM     26  C   UNL     1      48.050   6.734  13.830  0.00  0.00    +0.000 A 
ENDBRANCH  19  21
ENDBRANCH  14  15
ENDBRANCH   1  14
TORSDOF 5
ENDMDL
MODEL 4
REMARK VINA RESULT:    -7.285      2.701      6.582
REMARK INTER + INTRA:         -10.139
REMARK INTER:                  -9.525
REMARK INTRA:                  -0.614
REMARK UNBOUND:                -0.725
REMARK  Name = 
REMARK  5 active torsions:
REMARK  status: ('A' for Active; 'I' for Inactive)
REMARK    1  A    between atoms: C_2  and  C_4
REMARK    2  A    between atoms: C_7  and  N_8
REMARK    3  A    between atoms: N_8  and  C_9
REMARK    4  A    between atoms: C_9  and  C_10
REMARK    5  A    between atoms: C_14  and  C_15
REMARK                            x       y       z     vdW  Elec       q    Type
REMARK                         _______ _______ _______ _____ _____    ______ ____
ROOT
ATOM      1  N   UNL     1      44.458   6.997  12.669  0.00  0.00    +0.000 N 
ATOM      2  H   UNL     1      43.868   7.470  13.352  0.00  0.00    +0.000 HD
ENDROOT
BRANCH   1   6
ATOM      3  C   UNL     1      48.434   8.276  12.101  0.00  0.00    +0.000 A 
ATOM      4  C   UNL     1      47.414   9.224  12.202  0.00  0.00    +0.000 A 
ATOM      5  C   UNL     1      46.094   8.813  12.425  0.00  0.00    +0.000 A 
ATOM      6  C   UNL     1      45.765   7.460  12.579  0.00  0.00    +0.000 A 
ATOM      7  C   UNL     1      46.801   6.522  12.477  0.00  0.00    +0.000 A 
ATOM      8  C   UNL     1      48.123   6.923  12.235  0.00  0.00    +0.000 A 
BRANCH   3  10
ATOM      9  N   UNL     1      50.825   7.811  12.181  0.00  0.00    +0.000 N 
ATOM     10  C   UNL     1      49.833   8.665  11.789  0.00  0.00    +0.000 C 
ATOM     11  O   UNL     1      50.095   9.696  11.183  0.00  0.00    +0.000 OA
ATOM     12  H   UNL     1      51.763   8.047  11.885  0.00  0.00    +0.000 HD
ATOM     13  H   UNL     1      50.643   6.856  12.454  0.00  0.00    +0.000 HD
ENDBRANCH   3  10
ENDBRANCH   1   6
BRANCH   1  14
ATOM     14  C   UNL     1      43.720   6.544  11.489  0.00  0.00    +0.000 C 
BRANCH  14  15
ATOM     15  C   UNL     1      43.871   5.051  11.233  0.00  0.00    +0.000 A 
ATOM     16  N   UNL     1      43.182   4.191  12.014  0.00  0.00    +0.000 NA
ATOM     17  C   UNL     1      43.302   2.888  11.710  0.00  0.00    +0.000 A 
ATOM     18  C   UNL     1      44.048   2.418  10.654  0.00  0.00    +0.000 A 
ATOM     19  C   UNL     1      44.702   3.362   9.884  0.00  0.00    +0.000 A 
ATOM     20  N   UNL     1      44.621   4.680  10.171  0.00  0.00    +0.000 NA
BRANCH  19  21
ATOM     21  C   UNL     1      45.515   3.014   8.707  0.00  0.00    +0.000 A 
ATOM     22  C   UNL     1      45.993   1.717   8.465  0.00  0.00    +0.000 A 
ATOM     23  C   UNL     1      46.761   1.439   7.333  0.00  0.00    +0.000 A 
ATOM     24  C   UNL     1      47.039   2.472   6.457  0.00  0.00    +0.000 A 
ATOM     25  N   UNL     1      46.601   3.734   6.635  0.00  0.00    +0.000 NA
ATOM     26  C   UNL     1      45.850   3.969   7.744  0.00  0.00    +0.000 A 
ENDBRANCH  19  21
ENDBRANCH  14  15
ENDBRANCH   1  14
TORSDOF 5
ENDMDL
MODEL 5
REMARK VINA RESULT:    -7.284      2.743      6.692
REMARK INTER + INTRA:         -10.138
REMARK INTER:                  -9.500
REMARK INTRA:                  -0.638
REMARK UNBOUND:                -0.725
REMARK  Name = 
REMARK  5 active torsions:
REMARK  status: ('A' for Active; 'I' for Inactive)
REMARK    1  A    between atoms: C_2  and  C_4
REMARK    2  A    between atoms: C_7  and  N_8
REMARK    3  A    between atoms: N_8  and  C_9
REMARK    4  A    between atoms: C_9  and  C_10
REMARK    5  A    between atoms: C_14  and  C_15
REMARK                            x       y       z     vdW  Elec       q    Type
REMARK                         _______ _______ _______ _____ _____    ______ ____
ROOT
ATOM      1  N   UNL     1      44.683   6.958  12.630  0.00  0.00    +0.000 N 
ATOM      2  H   UNL     1      44.101   7.387  13.348  0.00  0.00    +0.000 HD
ENDROOT
BRANCH   1   6
ATOM      3  C   UNL     1      48.659   8.252  12.094  0.00  0.00    +0.000 A 
ATOM      4  C   UNL     1      47.618   9.179  12.018  0.00  0.00    +0.000 A 
ATOM      5  C   UNL     1      46.296   8.768  12.228  0.00  0.00    +0.000 A 
ATOM      6  C   UNL     1      45.984   7.439  12.544  0.00  0.00    +0.000 A 
ATOM      7  C   UNL     1      47.042   6.522  12.618  0.00  0.00    +0.000 A 
ATOM      8  C   UNL     1      48.366   6.921  12.390  0.00  0.00    +0.000 A 
BRANCH   3  10
ATOM      9  N   UNL     1      51.007   7.642  11.850  0.00  0.00    +0.000 N 
ATOM     10  C   UNL     1      50.065   8.632  11.802  0.00  0.00    +0.000 C 
ATOM     11  O   UNL     1      50.375   9.778  11.505  0.00  0.00    +0.000 OA
ATOM     12  H   UNL     1      51.942   7.899  11.565  0.00  0.00    +0.000 HD
ATOM     13  H   UNL     1      50.764   6.662  11.846  0.00  0.00    +0.000 HD
ENDBRANCH   3  10
ENDBRANCH   1   6
BRANCH   1  14
ATOM     14  C   UNL     1      43.929   6.565  11.439  0.00  0.00    +0.000 C 
BRANCH  14  15
ATOM     15  C   UNL     1      43.980   5.067  11.173  0.00  0.00    +0.000 A 
ATOM     16  N   UNL     1      43.218   4.252  11.935  0.00  0.00    +0.000 NA
ATOM     17  C   UNL     1      43.253   2.945  11.623  0.00  0.00    +0.000 A 
ATOM     18  C   UNL     1      43.984   2.432  10.577  0.00  0.00    +0.000 A 
ATOM     19  C   UNL     1      44.716   3.333   9.827  0.00  0.00    +0.000 A 
ATOM     20  N   UNL     1      44.722   4.652  10.123  0.00  0.00    +0.000 NA
BRANCH  19  21
ATOM     21  C   UNL     1      45.526   2.937   8.662  0.00  0.00    +0.000 A 
ATOM     22  C   UNL     1      45.921   3.843   7.665  0.00  0.00    +0.000 A 
ATOM     23  C   UNL     1      46.687   3.417   6.579  0.00  0.00    +0.000 A 
ATOM     24  C   UNL     1      47.049   2.085   6.510  0.00  0.00    +0.000 A 
ATOM     25  N   UNL     1      46.703   1.173   7.440  0.00  0.00    +0.000 NA
ATOM     26  C   UNL     1      45.962   1.622   8.489  0.00  0.00    +0.000 A 
ENDBRANCH  19  21
ENDBRANCH  14  15
ENDBRANCH   1  14
TORSDOF 5
ENDMDL
MODEL 6
REMARK VINA RESULT:    -7.182      2.953      7.157
REMARK INTER + INTRA:         -10.006
REMARK INTER:                  -9.654
REMARK INTRA:                  -0.352
REMARK UNBOUND:                -0.725
REMARK  Name = 
REMARK  5 active torsions:
REMARK  status: ('A' for Active; 'I' for Inactive)
REMARK    1  A    between atoms: C_2  and  C_4
REMARK    2  A    between atoms: C_7  and  N_8
REMARK    3  A    between atoms: N_8  and  C_9
REMARK    4  A    between atoms: C_9  and  C_10
REMARK    5  A    between atoms: C_14  and  C_15
REMARK                            x       y       z     vdW  Elec       q    Type
REMARK                         _______ _______ _______ _____ _____    ______ ____
ROOT
ATOM      1  N   UNL     1      46.162   6.631  11.438  0.00  0.00    +0.000 N 
ATOM      2  H   UNL     1      46.711   6.590  10.580  0.00  0.00    +0.000 HD
ENDROOT
BRANCH   1   6
ATOM      3  C   UNL     1      48.072   5.877  15.119  0.00  0.00    +0.000 A 
ATOM      4  C   UNL     1      47.176   4.939  14.605  0.00  0.00    +0.000 A 
ATOM      5  C   UNL     1      46.561   5.162  13.366  0.00  0.00    +0.000 A 
ATOM      6  C   UNL     1      46.844   6.303  12.604  0.00  0.00    +0.000 A 
ATOM      7  C   UNL     1      47.747   7.234  13.135  0.00  0.00    +0.000 A 
ATOM      8  C   UNL     1      48.353   7.028  14.382  0.00  0.00    +0.000 A 
BRANCH   3  10
ATOM      9  N   UNL     1      47.993   6.204  17.534  0.00  0.00    +0.000 N 
ATOM     10  C   UNL     1      48.686   5.716  16.462  0.00  0.00    +0.000 C 
ATOM     11  O   UNL     1      49.760   5.147  16.616  0.00  0.00    +0.000 OA
ATOM     12  H   UNL     1      48.382   6.010  18.447  0.00  0.00    +0.000 HD
ATOM     13  H   UNL     1      47.015   6.451  17.480  0.00  0.00    +0.000 HD
ENDBRANCH   3  10
ENDBRANCH   1   6
BRANCH   1  14
ATOM     14  C   UNL     1      44.759   6.268  11.240  0.00  0.00    +0.000 C 
BRANCH  14  15
ATOM     15  C   UNL     1      44.575   4.813  10.830  0.00  0.00    +0.000 A 
ATOM     16  N   UNL     1      43.656   4.071  11.483  0.00  0.00    +0.000 NA
ATOM     17  C   UNL     1      43.490   2.812  11.045  0.00  0.00    +0.000 A 
ATOM     18  C   UNL     1      44.176   2.281   9.978  0.00  0.00    +0.000 A 
ATOM     19  C   UNL     1      45.081   3.111   9.343  0.00  0.00    +0.000 A 
ATOM     20  N   UNL     1      45.289   4.378   9.768  0.00  0.00    +0.000 NA
BRANCH  19  21
ATOM     21  C   UNL     1      45.868   2.695   8.170  0.00  0.00    +0.000 A 
ATOM     22  C   UNL     1      46.135   3.548   7.088  0.00  0.00    +0.000 A 
ATOM     23  C   UNL     1      46.886   3.104   5.999  0.00  0.00    +0.000 A 
ATOM     24  C   UNL     1      47.362   1.806   6.012  0.00  0.00    +0.000 A 
ATOM     25  N   UNL     1      47.142   0.946   7.026  0.00  0.00    +0.000 NA
ATOM     26  C   UNL     1      46.413   1.412   8.075  0.00  0.00    +0.000 A 
ENDBRANCH  19  21
ENDBRANCH  14  15
ENDBRANCH   1  14
TORSDOF 5
ENDMDL
MODEL 7
REMARK VINA RESULT:    -6.951      4.220      7.786
REMARK INTER + INTRA:          -9.708
REMARK INTER:                  -9.310
REMARK INTRA:                  -0.398
REMARK UNBOUND:                -0.725
REMARK  Name = 
REMARK  5 active torsions:
REMARK  status: ('A' for Active; 'I' for Inactive)
REMARK    1  A    between atoms: C_2  and  C_4
REMARK    2  A    between atoms: C_7  and  N_8
REMARK    3  A    between atoms: N_8  and  C_9
REMARK    4  A    between atoms: C_9  and  C_10
REMARK    5  A    between atoms: C_14  and  C_15
REMARK                            x       y       z     vdW  Elec       q    Type
REMARK                         _______ _______ _______ _____ _____    ______ ____
ROOT
ATOM      1  N   UNL     1      46.402   4.359  15.067  0.00  0.00    +0.000 N 
ATOM      2  H   UNL     1      45.503   4.061  15.445  0.00  0.00    +0.000 HD
ENDROOT
BRANCH   1   6
ATOM      3  C   UNL     1      49.794   4.136  17.559  0.00  0.00    +0.000 A 
ATOM      4  C   UNL     1      49.399   5.372  17.044  0.00  0.00    +0.000 A 
ATOM      5  C   UNL     1      48.254   5.465  16.243  0.00  0.00    +0.000 A 
ATOM      6  C   UNL     1      47.466   4.341  15.961  0.00  0.00    +0.000 A 
ATOM      7  C   UNL     1      47.876   3.109  16.487  0.00  0.00    +0.000 A 
ATOM      8  C   UNL     1      49.031   3.003  17.275  0.00  0.00    +0.000 A 
BRANCH   3  10
ATOM      9  N   UNL     1      51.711   2.794  18.243  0.00  0.00    +0.000 N 
ATOM     10  C   UNL     1      51.043   3.982  18.348  0.00  0.00    +0.000 C 
ATOM     11  O   UNL     1      51.478   4.886  19.050  0.00  0.00    +0.000 OA
ATOM     12  H   UNL     1      52.602   2.737  18.717  0.00  0.00    +0.000 HD
ATOM     13  H   UNL     1      51.526   2.132  17.503  0.00  0.00    +0.000 HD
ENDBRANCH   3  10
ENDBRANCH   1   6
BRANCH   1  14
ATOM     14  C   UNL     1      46.277   5.395  14.041  0.00  0.00    +0.000 C 
BRANCH  14  15
ATOM     15  C   UNL     1      45.212   5.074  13.001  0.00  0.00    +0.000 A 
ATOM     16  N   UNL     1      43.928   5.388  13.275  0.00  0.00    +0.000 NA
ATOM     17  C   UNL     1      43.036   5.139  12.302  0.00  0.00    +0.000 A 
ATOM     18  C   UNL     1      43.374   4.622  11.073  0.00  0.00    +0.000 A 
ATOM     19  C   UNL     1      44.712   4.352  10.858  0.00  0.00    +0.000 A 
ATOM     20  N   UNL     1      45.637   4.571  11.820  0.00  0.00    +0.000 NA
BRANCH  19  21
ATOM     21  C   UNL     1      45.230   3.823   9.585  0.00  0.00    +0.000 A 
ATOM     22  C   UNL     1      45.252   2.453   9.280  0.00  0.00    +0.000 A 
ATOM     23  C   UNL     1      45.755   2.003   8.058  0.00  0.00    +0.000 A 
ATOM     24  C   UNL     1      46.229   2.937   7.157  0.00  0.00    +0.000 A 
ATOM     25  N   UNL     1      46.227   4.264   7.393  0.00  0.00    +0.000 NA
ATOM     26  C   UNL     1      45.725   4.670   8.590  0.00  0.00    +0.000 A 
ENDBRANCH  19  21
ENDBRANCH  14  15
ENDBRANCH   1  14
TORSDOF 5
ENDMDL
MODEL 8
REMARK VINA RESULT:    -6.604      4.979      6.785
REMARK INTER + INTRA:          -9.259
REMARK INTER:                  -8.852
REMARK INTRA:                  -0.407
REMARK UNBOUND:                -0.725
REMARK  Name = 
REMARK  5 active torsions:
REMARK  status: ('A' for Active; 'I' for Inactive)
REMARK    1  A    between atoms: C_2  and  C_4
REMARK    2  A    between atoms: C_7  and  N_8
REMARK    3  A    between atoms: N_8  and  C_9
REMARK    4  A    between atoms: C_9  and  C_10
REMARK    5  A    between atoms: C_14  and  C_15
REMARK                            x       y       z     vdW  Elec       q    Type
REMARK                         _______ _______ _______ _____ _____    ______ ____
ROOT
ATOM      1  N   UNL     1      46.729   5.159  14.719  0.00  0.00    +0.000 N 
ATOM      2  H   UNL     1      46.340   5.892  15.312  0.00  0.00    +0.000 HD
ENDROOT
BRANCH   1   6
ATOM      3  C   UNL     1      45.524   4.948  10.686  0.00  0.00    +0.000 A 
ATOM      4  C   UNL     1      45.109   3.960  11.580  0.00  0.00    +0.000 A 
ATOM      5  C   UNL     1      45.474   4.037  12.930  0.00  0.00    +0.000 A 
ATOM      6  C   UNL     1      46.232   5.107  13.423  0.00  0.00    +0.000 A 
ATOM      7  C   UNL     1      46.639   6.091  12.512  0.00  0.00    +0.000 A 
ATOM      8  C   UNL     1      46.294   6.013  11.155  0.00  0.00    +0.000 A 
BRANCH   3  10
ATOM      9  N   UNL     1      43.991   4.394   8.873  0.00  0.00    +0.000 N 
ATOM     10  C   UNL     1      45.223   4.864   9.234  0.00  0.00    +0.000 C 
ATOM     11  O   UNL     1      46.031   5.221   8.386  0.00  0.00    +0.000 OA
ATOM     12  H   UNL     1      43.771   4.424   7.886  0.00  0.00    +0.000 HD
ATOM     13  H   UNL     1      43.224   4.325   9.526  0.00  0.00    +0.000 HD
ENDBRANCH   3  10
ENDBRANCH   1   6
BRANCH   1  14
ATOM     14  C   UNL     1      47.072   3.944  15.460  0.00  0.00    +0.000 C 
BRANCH  14  15
ATOM     15  C   UNL     1      47.977   4.214  16.655  0.00  0.00    +0.000 A 
ATOM     16  N   UNL     1      47.511   4.999  17.651  0.00  0.00    +0.000 NA
ATOM     17  C   UNL     1      48.323   5.159  18.709  0.00  0.00    +0.000 A 
ATOM     18  C   UNL     1      49.552   4.552  18.823  0.00  0.00    +0.000 A 
ATOM     19  C   UNL     1      49.947   3.742  17.775  0.00  0.00    +0.000 A 
ATOM     20  N   UNL     1      49.165   3.573  16.685  0.00  0.00    +0.000 NA
BRANCH  19  21
ATOM     21  C   UNL     1      51.222   3.005  17.766  0.00  0.00    +0.000 A 
ATOM     22  C   UNL     1      51.316   1.647  17.424  0.00  0.00    +0.000 A 
ATOM     23  C   UNL     1      52.549   0.993  17.431  0.00  0.00    +0.000 A 
ATOM     24  C   UNL     1      53.674   1.714  17.783  0.00  0.00    +0.000 A 
ATOM     25  N   UNL     1      53.645   3.020  18.114  0.00  0.00    +0.000 NA
ATOM     26  C   UNL     1      52.429   3.629  18.090  0.00  0.00    +0.000 A 
ENDBRANCH  19  21
ENDBRANCH  14  15
ENDBRANCH   1  14
TORSDOF 5
ENDMDL
MODEL 9
REMARK VINA RESULT:    -6.532      2.703      6.620
REMARK INTER + INTRA:          -9.166
REMARK INTER:                  -8.531
REMARK INTRA:                  -0.635
REMARK UNBOUND:                -0.725
REMARK  Name = 
REMARK  5 active torsions:
REMARK  status: ('A' for Active; 'I' for Inactive)
REMARK    1  A    between atoms: C_2  and  C_4
REMARK    2  A    between atoms: C_7  and  N_8
REMARK    3  A    between atoms: N_8  and  C_9
REMARK    4  A    between atoms: C_9  and  C_10
REMARK    5  A    between atoms: C_14  and  C_15
REMARK                            x       y       z     vdW  Elec       q    Type
REMARK                         _______ _______ _______ _____ _____    ______ ____
ROOT
ATOM      1  N   UNL     1      46.131   7.444  13.220  0.00  0.00    +0.000 N 
ATOM      2  H   UNL     1      46.025   7.753  14.186  0.00  0.00    +0.000 HD
ENDROOT
BRANCH   1   6
ATOM      3  C   UNL     1      49.816   8.694  11.601  0.00  0.00    +0.000 A 
ATOM      4  C   UNL     1      49.671   7.378  12.044  0.00  0.00    +0.000 A 
ATOM      5  C   UNL     1      48.441   6.941  12.552  0.00  0.00    +0.000 A 
ATOM      6  C   UNL     1      47.328   7.790  12.605  0.00  0.00    +0.000 A 
ATOM      7  C   UNL     1      47.491   9.107  12.155  0.00  0.00    +0.000 A 
ATOM      8  C   UNL     1      48.724   9.559  11.662  0.00  0.00    +0.000 A 
BRANCH   3  10
ATOM      9  N   UNL     1      51.168  10.523  10.724  0.00  0.00    +0.000 N 
ATOM     10  C   UNL     1      51.123   9.218  11.128  0.00  0.00    +0.000 C 
ATOM     11  O   UNL     1      52.131   8.524  11.119  0.00  0.00    +0.000 OA
ATOM     12  H   UNL     1      52.081  10.889  10.487  0.00  0.00    +0.000 HD
ATOM     13  H   UNL     1      50.438  11.185  10.945  0.00  0.00    +0.000 HD
ENDBRANCH   3  10
ENDBRANCH   1   6
BRANCH   1  14
ATOM     14  C   UNL     1      44.866   7.423  12.483  0.00  0.00    +0.000 C 
BRANCH  14  15
ATOM     15  C   UNL     1      44.425   6.015  12.106  0.00  0.00    +0.000 A 
ATOM     16  N   UNL     1      43.424   5.444  12.810  0.00  0.00    +0.000 NA
ATOM     17  C   UNL     1      43.031   4.226  12.401  0.00  0.00    +0.000 A 
ATOM     18  C   UNL     1      43.570   3.577  11.315  0.00  0.00    +0.000 A 
ATOM     19  C   UNL     1      44.572   4.238  10.629  0.00  0.00    +0.000 A 
ATOM     20  N   UNL     1      45.007   5.456  11.022  0.00  0.00    +0.000 NA
BRANCH  19  21
ATOM     21  C   UNL     1      45.226   3.683   9.431  0.00  0.00    +0.000 A 
ATOM     22  C   UNL     1      45.370   2.305   9.210  0.00  0.00    +0.000 A 
ATOM     23  C   UNL     1      46.000   1.830   8.058  0.00  0.00    +0.000 A 
ATOM     24  C   UNL     1      46.475   2.749   7.141  0.00  0.00    +0.000 A 
ATOM     25  N   UNL     1      46.359   4.082   7.298  0.00  0.00    +0.000 NA
ATOM     26  C   UNL     1      45.735   4.512   8.428  0.00  0.00    +0.000 A 
ENDBRANCH  19  21
ENDBRANCH  14  15
ENDBRANCH   1  14
TORSDOF 5
ENDMDL
