MODEL 1
REMARK VINA RESULT:    -6.844      0.000      0.000
REMARK INTER + INTRA:          -9.072
REMARK INTER:                  -8.444
REMARK INTRA:                  -0.627
REMARK UNBOUND:                -0.627
REMARK  Name = 
REMARK  7 active torsions:
REMARK  status: ('A' for Active; 'I' for Inactive)
REMARK    1  A    between atoms: C_1  and  C_2
REMARK    2  A    between atoms: C_2  and  C_3
REMARK    3  A    between atoms: C_2  and  C_4
REMARK    4  A    between atoms: C_2  and  C_5
REMARK    5  A    between atoms: C_9  and  C_10
REMARK    6  A    between atoms: N_16  and  C_17
REMARK    7  A    between atoms: C_17  and  C_18
REMARK                            x       y       z     vdW  Elec       q    Type
REMARK                         _______ _______ _______ _____ _____    ______ ____
ROOT
ATOM      1  C   UNL     1      44.548   4.038  11.109  0.00  0.00    +0.000 A 
ATOM      2  N   UNL     1      44.816   2.851  10.578  0.00  0.00    +0.000 NA
ATOM      3  C   UNL     1      45.497   3.077   9.419  0.00  0.00    +0.000 A 
ATOM      4  C   UNL     1      46.012   2.184   8.472  0.00  0.00    +0.000 A 
ATOM      5  C   UNL     1      46.672   2.735   7.369  0.00  0.00    +0.000 A 
ATOM      6  C   UNL     1      46.788   4.127   7.290  0.00  0.00    +0.000 A 
ATOM      7  N   UNL     1      46.302   5.030   8.189  0.00  0.00    +0.000 NA
ATOM      8  C   UNL     1      45.666   4.434   9.217  0.00  0.00    +0.000 A 
ATOM      9  N   UNL     1      45.015   5.043  10.269  0.00  0.00    +0.000 N 
ENDROOT
BRANCH   5  10
ATOM     10  C   UNL     1      47.246   1.926   6.269  0.00  0.00    +0.000 C 
ATOM     11  N   UNL     1      47.922   2.563   5.265  0.00  0.00    +0.000 N 
ATOM     12  O   UNL     1      47.126   0.707   6.250  0.00  0.00    +0.000 OA
ATOM     13  H   UNL     1      48.086   3.556   5.207  0.00  0.00    +0.000 HD
ATOM     14  H   UNL     1      48.324   1.981   4.541  0.00  0.00    +0.000 HD
ENDBRANCH   5  10
BRANCH   1  16
ATOM     15  C   UNL     1      43.286   2.798  12.874  0.00  0.00    +0.000 C 
ATOM     16  C   UNL     1      43.837   4.187  12.452  0.00  0.00    +0.000 C 
ATOM     17  C   UNL     1      42.636   5.139  12.366  0.00  0.00    +0.000 C 
ATOM     18  C   UNL     1      44.801   4.631  13.565  0.00  0.00    +0.000 C 
ENDBRANCH   1  16
BRANCH   9  19
ATOM     19  C   UNL     1      44.965   6.489  10.418  0.00  0.00    +0.000 C 
BRANCH  19  20
ATOM     20  C   UNL     1      45.832   7.049  11.515  0.00  0.00    +0.000 A 
ATOM     21  C   UNL     1      47.182   6.676  11.597  0.00  0.00    +0.000 A 
ATOM     22  C   UNL     1      48.020   7.281  12.530  0.00  0.00    +0.000 A 
ATOM     23  C   UNL     1      47.483   8.248  13.359  0.00  0.00    +0.000 A 
ATOM     24  N   UNL     1      46.190   8.627  13.324  0.00  0.00    +0.000 NA
ATOM     25  C   UNL     1      45.399   8.031  12.402  0.00  0.00    +0.000 A 
ENDBRANCH  19  20
ENDBRANCH   9  19
TORSDOF 4
ENDMDL
MODEL 2
REMARK VINA RESULT:    -6.262      4.139      6.499
REMARK INTER + INTRA:          -8.354
REMARK INTER:                  -7.647
REMARK INTRA:                  -0.707
REMARK UNBOUND:                -0.627
REMARK  Name = 
REMARK  7 active torsions:
REMARK  status: ('A' for Active; 'I' for Inactive)
REMARK    1  A    between atoms: C_1  and  C_2
REMARK    2  A    between atoms: C_2  and  C_3
REMARK    3  A    between atoms: C_2  and  C_4
REMARK    4  A    between atoms: C_2  and  C_5
REMARK    5  A    between atoms: C_9  and  C_10
REMARK    6  A    between atoms: N_16  and  C_17
REMARK    7  A    between atoms: C_17  and  C_18
REMARK                            x       y       z     vdW  Elec       q    Type
REMARK                         _______ _______ _______ _____ _____    ______ ____
ROOT
ATOM      1  C   UNL     1      48.221   6.716  14.713  0.00  0.00    +0.000 A 
ATOM      2  N   UNL     1      47.936   7.015  13.451  0.00  0.00    +0.000 NA
ATOM      3  C   UNL     1      47.029   6.094  13.019  0.00  0.00    +0.000 A 
ATOM      4  C   UNL     1      46.401   5.943  11.777  0.00  0.00    +0.000 A 
ATOM      5  C   UNL     1      45.504   4.878  11.642  0.00  0.00    +0.000 A 
ATOM      6  C   UNL     1      45.281   4.051  12.747  0.00  0.00    +0.000 A 
ATOM      7  N   UNL     1      45.871   4.164  13.973  0.00  0.00    +0.000 NA
ATOM      8  C   UNL     1      46.733   5.198  14.029  0.00  0.00    +0.000 A 
ATOM      9  N   UNL     1      47.534   5.567  15.089  0.00  0.00    +0.000 N 
ENDROOT
BRANCH   5  10
ATOM     10  C   UNL     1      44.783   4.568  10.385  0.00  0.00    +0.000 C 
ATOM     11  N   UNL     1      45.237   5.108   9.213  0.00  0.00    +0.000 N 
ATOM     12  O   UNL     1      43.798   3.840  10.384  0.00  0.00    +0.000 OA
ATOM     13  H   UNL     1      46.047   5.701   9.117  0.00  0.00    +0.000 HD
ATOM     14  H   UNL     1      44.739   4.857   8.369  0.00  0.00    +0.000 HD
ENDBRANCH   5  10
BRANCH   1  16
ATOM     15  C   UNL     1      49.250   8.983  14.929  0.00  0.00    +0.000 C 
ATOM     16  C   UNL     1      49.168   7.567  15.557  0.00  0.00    +0.000 C 
ATOM     17  C   UNL     1      50.594   6.999  15.571  0.00  0.00    +0.000 C 
ATOM     18  C   UNL     1      48.646   7.753  16.991  0.00  0.00    +0.000 C 
ENDBRANCH   1  16
BRANCH   9  19
ATOM     19  C   UNL     1      47.514   4.858  16.360  0.00  0.00    +0.000 C 
BRANCH  19  20
ATOM     20  C   UNL     1      48.625   3.858  16.551  0.00  0.00    +0.000 A 
ATOM     21  C   UNL     1      49.693   4.158  17.410  0.00  0.00    +0.000 A 
ATOM     22  C   UNL     1      50.658   3.194  17.689  0.00  0.00    +0.000 A 
ATOM     23  C   UNL     1      50.527   1.950  17.099  0.00  0.00    +0.000 A 
ATOM     24  N   UNL     1      49.526   1.624  16.259  0.00  0.00    +0.000 NA
ATOM     25  C   UNL     1      48.595   2.576  16.012  0.00  0.00    +0.000 A 
ENDBRANCH  19  20
ENDBRANCH   9  19
TORSDOF 4
ENDMDL
MODEL 3
REMARK VINA RESULT:    -6.132      4.591      7.613
REMARK INTER + INTRA:          -8.194
REMARK INTER:                  -7.524
REMARK INTRA:                  -0.669
REMARK UNBOUND:                -0.627
REMARK  Name = 
REMARK  7 active torsions:
REMARK  status: ('A' for Active; 'I' for Inactive)
REMARK    1  A    between atoms: C_1  and  C_2
REMARK    2  A    between atoms: C_2  and  C_3
REMARK    3  A    between atoms: C_2  and  C_4
REMARK    4  A    between atoms: C_2  and  C_5
REMARK    5  A    between atoms: C_9  and  C_10
REMARK    6  A    between atoms: N_16  and  C_17
REMARK    7  A    between atoms: C_17  and  C_18
REMARK                            x       y       z     vdW  Elec       q    Type
REMARK                         _______ _______ _______ _____ _____    ______ ____
ROOT
ATOM      1  C   UNL     1      47.513   6.586  13.720  0.00  0.00    +0.000 A 
ATOM      2  N   UNL     1      48.085   6.921  14.871  0.00  0.00    +0.000 NA
ATOM      3  C   UNL     1      48.126   5.795  15.638  0.00  0.00    +0.000 A 
ATOM      4  C   UNL     1      48.618   5.589  16.933  0.00  0.00    +0.000 A 
ATOM      5  C   UNL     1      48.513   4.296  17.455  0.00  0.00    +0.000 A 
ATOM      6  C   UNL     1      47.945   3.299  16.656  0.00  0.00    +0.000 A 
ATOM      7  N   UNL     1      47.456   3.457  15.392  0.00  0.00    +0.000 NA
ATOM      8  C   UNL     1      47.574   4.727  14.957  0.00  0.00    +0.000 A 
ATOM      9  N   UNL     1      47.138   5.247  13.757  0.00  0.00    +0.000 N 
ENDROOT
BRANCH   5  10
ATOM     10  C   UNL     1      48.960   3.925  18.819  0.00  0.00    +0.000 C 
ATOM     11  N   UNL     1      48.246   2.988  19.515  0.00  0.00    +0.000 N 
ATOM     12  O   UNL     1      49.952   4.438  19.322  0.00  0.00    +0.000 OA
ATOM     13  H   UNL     1      47.431   2.501  19.174  0.00  0.00    +0.000 HD
ATOM     14  H   UNL     1      48.590   2.737  20.432  0.00  0.00    +0.000 HD
ENDBRANCH   5  10
BRANCH   1  16
ATOM     15  C   UNL     1      48.252   8.809  12.851  0.00  0.00    +0.000 C 
ATOM     16  C   UNL     1      47.342   7.582  12.576  0.00  0.00    +0.000 C 
ATOM     17  C   UNL     1      45.902   8.104  12.478  0.00  0.00    +0.000 C 
ATOM     18  C   UNL     1      47.797   6.993  11.230  0.00  0.00    +0.000 C 
ENDBRANCH   1  16
BRANCH   9  19
ATOM     19  C   UNL     1      46.491   4.426  12.745  0.00  0.00    +0.000 C 
BRANCH  19  20
ATOM     20  C   UNL     1      45.067   4.804  12.430  0.00  0.00    +0.000 A 
ATOM     21  C   UNL     1      44.673   4.990  11.096  0.00  0.00    +0.000 A 
ATOM     22  C   UNL     1      43.335   5.217  10.786  0.00  0.00    +0.000 A 
ATOM     23  C   UNL     1      42.422   5.252  11.824  0.00  0.00    +0.000 A 
ATOM     24  N   UNL     1      42.758   5.093  13.119  0.00  0.00    +0.000 NA
ATOM     25  C   UNL     1      44.064   4.863  13.392  0.00  0.00    +0.000 A 
ENDBRANCH  19  20
ENDBRANCH   9  19
TORSDOF 4
ENDMDL
MODEL 4
REMARK VINA RESULT:    -5.864      3.812      5.973
REMARK INTER + INTRA:          -7.863
REMARK INTER:                  -7.418
REMARK INTRA:                  -0.445
REMARK UNBOUND:                -0.627
REMARK  Name = 
REMARK  7 active torsions:
REMARK  status: ('A' for Active; 'I' for Inactive)
REMARK    1  A    between atoms: C_1  and  C_2
REMARK    2  A    between atoms: C_2  and  C_3
REMARK    3  A    between atoms: C_2  and  C_4
REMARK    4  A    between atoms: C_2  and  C_5
REMARK    5  A    between atoms: C_9  and  C_10
REMARK    6  A    between atoms: N_16  and  C_17
REMARK    7  A    between atoms: C_17  and  C_18
REMARK                            x       y       z     vdW  Elec       q    Type
REMARK                         _______ _______ _______ _____ _____    ______ ____
ROOT
ATOM      1  C   UNL     1      45.071   4.666  12.520  0.00  0.00    +0.000 A 
ATOM      2  N   UNL     1      45.311   4.025  13.657  0.00  0.00    +0.000 NA
ATOM      3  C   UNL     1      46.372   4.644  14.247  0.00  0.00    +0.000 A 
ATOM      4  C   UNL     1      47.034   4.374  15.451  0.00  0.00    +0.000 A 
ATOM      5  C   UNL     1      48.108   5.204  15.787  0.00  0.00    +0.000 A 
ATOM      6  C   UNL     1      48.440   6.248  14.918  0.00  0.00    +0.000 A 
ATOM      7  N   UNL     1      47.822   6.546  13.739  0.00  0.00    +0.000 NA
ATOM      8  C   UNL     1      46.808   5.699  13.469  0.00  0.00    +0.000 A 
ATOM      9  N   UNL     1      46.010   5.677  12.345  0.00  0.00    +0.000 N 
ENDROOT
BRANCH   5  10
ATOM     10  C   UNL     1      48.927   5.031  17.011  0.00  0.00    +0.000 C 
ATOM     11  N   UNL     1      48.551   5.682  18.154  0.00  0.00    +0.000 N 
ATOM     12  O   UNL     1      49.922   4.316  17.010  0.00  0.00    +0.000 OA
ATOM     13  H   UNL     1      47.740   6.273  18.251  0.00  0.00    +0.000 HD
ATOM     14  H   UNL     1      49.115   5.524  18.978  0.00  0.00    +0.000 HD
ENDBRANCH   5  10
BRANCH   1  16
ATOM     15  C   UNL     1      43.464   2.841  11.941  0.00  0.00    +0.000 C 
ATOM     16  C   UNL     1      43.909   4.289  11.602  0.00  0.00    +0.000 C 
ATOM     17  C   UNL     1      44.317   4.299  10.123  0.00  0.00    +0.000 C 
ATOM     18  C   UNL     1      42.683   5.189  11.832  0.00  0.00    +0.000 C 
ENDBRANCH   1  16
BRANCH   9  19
ATOM     19  C   UNL     1      46.157   6.645  11.269  0.00  0.00    +0.000 C 
BRANCH  19  20
ATOM     20  C   UNL     1      45.429   7.948  11.477  0.00  0.00    +0.000 A 
ATOM     21  C   UNL     1      46.092   9.029  12.076  0.00  0.00    +0.000 A 
ATOM     22  C   UNL     1      45.469  10.272  12.160  0.00  0.00    +0.000 A 
ATOM     23  C   UNL     1      44.195  10.400  11.640  0.00  0.00    +0.000 A 
ATOM     24  N   UNL     1      43.516   9.385  11.070  0.00  0.00    +0.000 NA
ATOM     25  C   UNL     1      44.148   8.190  10.991  0.00  0.00    +0.000 A 
ENDBRANCH  19  20
ENDBRANCH   9  19
TORSDOF 4
ENDMDL
MODEL 5
REMARK VINA RESULT:    -5.841      4.003      5.977
REMARK INTER + INTRA:          -7.835
REMARK INTER:                  -7.077
REMARK INTRA:                  -0.758
REMARK UNBOUND:                -0.627
REMARK  Name = 
REMARK  7 active torsions:
REMARK  status: ('A' for Active; 'I' for Inactive)
REMARK    1  A    between atoms: C_1  and  C_2
REMARK    2  A    between atoms: C_2  and  C_3
REMARK    3  A    between atoms: C_2  and  C_4
REMARK    4  A    between atoms: C_2  and  C_5
REMARK    5  A    between atoms: C_9  and  C_10
REMARK    6  A    between atoms: N_16  and  C_17
REMARK    7  A    between atoms: C_17  and  C_18
REMARK                            x       y       z     vdW  Elec       q    Type
REMARK                         _______ _______ _______ _____ _____    ______ ____
ROOT
ATOM      1  C   UNL     1      47.709   4.769  15.972  0.00  0.00    +0.000 A 
ATOM      2  N   UNL     1      46.721   4.241  15.258  0.00  0.00    +0.000 NA
ATOM      3  C   UNL     1      46.677   4.922  14.077  0.00  0.00    +0.000 A 
ATOM      4  C   UNL     1      45.831   4.778  12.971  0.00  0.00    +0.000 A 
ATOM      5  C   UNL     1      46.040   5.643  11.893  0.00  0.00    +0.000 A 
ATOM      6  C   UNL     1      47.079   6.576  11.979  0.00  0.00    +0.000 A 
ATOM      7  N   UNL     1      47.925   6.748  13.036  0.00  0.00    +0.000 NA
ATOM      8  C   UNL     1      47.658   5.894  14.044  0.00  0.00    +0.000 A 
ATOM      9  N   UNL     1      48.278   5.828  15.274  0.00  0.00    +0.000 N 
ENDROOT
BRANCH   5  10
ATOM     10  C   UNL     1      45.212   5.637  10.664  0.00  0.00    +0.000 C 
ATOM     11  N   UNL     1      43.895   5.995  10.754  0.00  0.00    +0.000 N 
ATOM     12  O   UNL     1      45.690   5.321   9.580  0.00  0.00    +0.000 OA
ATOM     13  H   UNL     1      43.423   6.286  11.596  0.00  0.00    +0.000 HD
ATOM     14  H   UNL     1      43.363   6.005   9.894  0.00  0.00    +0.000 HD
ENDBRANCH   5  10
BRANCH   1  16
ATOM     15  C   UNL     1      47.487   2.808  17.507  0.00  0.00    +0.000 C 
ATOM     16  C   UNL     1      48.100   4.225  17.345  0.00  0.00    +0.000 C 
ATOM     17  C   UNL     1      47.543   5.088  18.486  0.00  0.00    +0.000 C 
ATOM     18  C   UNL     1      49.622   4.062  17.484  0.00  0.00    +0.000 C 
ENDBRANCH   1  16
BRANCH   9  19
ATOM     19  C   UNL     1      49.383   6.703  15.635  0.00  0.00    +0.000 C 
BRANCH  19  20
ATOM     20  C   UNL     1      49.033   7.813  16.591  0.00  0.00    +0.000 A 
ATOM     21  C   UNL     1      49.662   7.880  17.843  0.00  0.00    +0.000 A 
ATOM     22  C   UNL     1      49.438   8.968  18.682  0.00  0.00    +0.000 A 
ATOM     23  C   UNL     1      48.587   9.966  18.243  0.00  0.00    +0.000 A 
ATOM     24  N   UNL     1      47.952   9.936  17.055  0.00  0.00    +0.000 NA
ATOM     25  C   UNL     1      48.194   8.872  16.254  0.00  0.00    +0.000 A 
ENDBRANCH  19  20
ENDBRANCH   9  19
TORSDOF 4
ENDMDL
MODEL 6
REMARK VINA RESULT:    -5.751      4.255      6.608
REMARK INTER + INTRA:          -7.723
REMARK INTER:                  -7.212
REMARK INTRA:                  -0.512
REMARK UNBOUND:                -0.627
REMARK  Name = 
REMARK  7 active torsions:
REMARK  status: ('A' for Active; 'I' for Inactive)
REMARK    1  A    between atoms: C_1  and  C_2
REMARK    2  A    between atoms: C_2  and  C_3
REMARK    3  A    between atoms: C_2  and  C_4
REMARK    4  A    between atoms: C_2  and  C_5
REMARK    5  A    between atoms: C_9  and  C_10
REMARK    6  A    between atoms: N_16  and  C_17
REMARK    7  A    between atoms: C_17  and  C_18
REMARK                            x       y       z     vdW  Elec       q    Type
REMARK                         _______ _______ _______ _____ _____    ______ ____
ROOT
ATOM      1  C   UNL     1      46.163   5.139  13.085  0.00  0.00    +0.000 A 
ATOM      2  N   UNL     1      46.283   3.996  13.750  0.00  0.00    +0.000 NA
ATOM      3  C   UNL     1      47.109   4.236  14.808  0.00  0.00    +0.000 A 
ATOM      4  C   UNL     1      47.569   3.385  15.820  0.00  0.00    +0.000 A 
ATOM      5  C   UNL     1      48.421   3.939  16.780  0.00  0.00    +0.000 A 
ATOM      6  C   UNL     1      48.744   5.297  16.679  0.00  0.00    +0.000 A 
ATOM      7  N   UNL     1      48.317   6.159  15.712  0.00  0.00    +0.000 NA
ATOM      8  C   UNL     1      47.514   5.558  14.813  0.00  0.00    +0.000 A 
ATOM      9  N   UNL     1      46.951   6.115  13.685  0.00  0.00    +0.000 N 
ENDROOT
BRANCH   5  10
ATOM     10  C   UNL     1      49.015   3.164  17.894  0.00  0.00    +0.000 C 
ATOM     11  N   UNL     1      48.376   3.152  19.104  0.00  0.00    +0.000 N 
ATOM     12  O   UNL     1      50.058   2.538  17.745  0.00  0.00    +0.000 OA
ATOM     13  H   UNL     1      47.508   3.621  19.312  0.00  0.00    +0.000 HD
ATOM     14  H   UNL     1      48.793   2.594  19.837  0.00  0.00    +0.000 HD
ENDBRANCH   5  10
BRANCH   1  16
ATOM     15  C   UNL     1      44.845   3.855  11.393  0.00  0.00    +0.000 C 
ATOM     16  C   UNL     1      45.263   5.275  11.858  0.00  0.00    +0.000 C 
ATOM     17  C   UNL     1      45.993   5.936  10.680  0.00  0.00    +0.000 C 
ATOM     18  C   UNL     1      43.964   6.030  12.182  0.00  0.00    +0.000 C 
ENDBRANCH   1  16
BRANCH   9  19
ATOM     19  C   UNL     1      47.144   7.513  13.330  0.00  0.00    +0.000 C 
BRANCH  19  20
ATOM     20  C   UNL     1      48.551   7.886  12.942  0.00  0.00    +0.000 A 
ATOM     21  C   UNL     1      49.131   7.323  11.795  0.00  0.00    +0.000 A 
ATOM     22  C   UNL     1      50.381   7.753  11.359  0.00  0.00    +0.000 A 
ATOM     23  C   UNL     1      51.021   8.740  12.086  0.00  0.00    +0.000 A 
ATOM     24  N   UNL     1      50.508   9.297  13.201  0.00  0.00    +0.000 NA
ATOM     25  C   UNL     1      49.287   8.868  13.597  0.00  0.00    +0.000 A 
ENDBRANCH  19  20
ENDBRANCH   9  19
TORSDOF 4
ENDMDL
MODEL 7
REMARK VINA RESULT:    -5.711      3.313      5.631
REMARK INTER + INTRA:          -7.674
REMARK INTER:                  -6.957
REMARK INTRA:                  -0.717
REMARK UNBOUND:                -0.627
REMARK  Name = 
REMARK  7 active torsions:
REMARK  status: ('A' for Active; 'I' for Inactive)
REMARK    1  A    between atoms: C_1  and  C_2
REMARK    2  A    between atoms: C_2  and  C_3
REMARK    3  A    between atoms: C_2  and  C_4
REMARK    4  A    between atoms: C_2  and  C_5
REMARK    5  A    between atoms: C_9  and  C_10
REMARK    6  A    between atoms: N_16  and  C_17
REMARK    7  A    between atoms: C_17  and  C_18
REMARK                            x       y       z     vdW  Elec       q    Type
REMARK                         _______ _______ _______ _____ _____    ______ ____
ROOT
ATOM      1  C   UNL     1      48.263   6.713  14.585  0.00  0.00    +0.000 A 
ATOM      2  N   UNL     1      47.748   5.496  14.714  0.00  0.00    +0.000 NA
ATOM      3  C   UNL     1      46.940   5.289  13.635  0.00  0.00    +0.000 A 
ATOM      4  C   UNL     1      46.157   4.185  13.278  0.00  0.00    +0.000 A 
ATOM      5  C   UNL     1      45.427   4.280  12.089  0.00  0.00    +0.000 A 
ATOM      6  C   UNL     1      45.534   5.452  11.333  0.00  0.00    +0.000 A 
ATOM      7  N   UNL     1      46.285   6.548  11.644  0.00  0.00    +0.000 NA
ATOM      8  C   UNL     1      46.950   6.396  12.807  0.00  0.00    +0.000 A 
ATOM      9  N   UNL     1      47.752   7.319  13.443  0.00  0.00    +0.000 N 
ENDROOT
BRANCH   5  10
ATOM     10  C   UNL     1      44.531   3.210  11.590  0.00  0.00    +0.000 C 
ATOM     11  N   UNL     1      43.809   2.479  12.493  0.00  0.00    +0.000 N 
ATOM     12  O   UNL     1      44.428   2.979  10.391  0.00  0.00    +0.000 OA
ATOM     13  H   UNL     1      43.816   2.611  13.493  0.00  0.00    +0.000 HD
ATOM     14  H   UNL     1      43.187   1.774  12.120  0.00  0.00    +0.000 HD
ENDBRANCH   5  10
BRANCH   1  16
ATOM     15  C   UNL     1      49.372   6.305  16.788  0.00  0.00    +0.000 C 
ATOM     16  C   UNL     1      49.269   7.280  15.585  0.00  0.00    +0.000 C 
ATOM     17  C   UNL     1      48.820   8.638  16.144  0.00  0.00    +0.000 C 
ATOM     18  C   UNL     1      50.680   7.383  14.982  0.00  0.00    +0.000 C 
ENDBRANCH   1  16
BRANCH   9  19
ATOM     19  C   UNL     1      48.018   8.634  12.880  0.00  0.00    +0.000 C 
BRANCH  19  20
ATOM     20  C   UNL     1      49.329   8.765  12.150  0.00  0.00    +0.000 A 
ATOM     21  C   UNL     1      50.089   9.936  12.286  0.00  0.00    +0.000 A 
ATOM     22  C   UNL     1      51.357  10.017  11.717  0.00  0.00    +0.000 A 
ATOM     23  C   UNL     1      51.834   8.919  11.025  0.00  0.00    +0.000 A 
ATOM     24  N   UNL     1      51.133   7.781  10.859  0.00  0.00    +0.000 NA
ATOM     25  C   UNL     1      49.907   7.723  11.430  0.00  0.00    +0.000 A 
ENDBRANCH  19  20
ENDBRANCH   9  19
TORSDOF 4
ENDMDL
MODEL 8
REMARK VINA RESULT:    -5.336      2.958      5.909
REMARK INTER + INTRA:          -7.211
REMARK INTER:                  -7.436
REMARK INTRA:                   0.224
REMARK UNBOUND:                -0.627
REMARK  Name = 
REMARK  7 active torsions:
REMARK  status: ('A' for Active; 'I' for Inactive)
REMARK    1  A    between atoms: C_1  and  C_2
REMARK    2  A    between atoms: C_2  and  C_3
REMARK    3  A    between atoms: C_2  and  C_4
REMARK    4  A    between atoms: C_2  and  C_5
REMARK    5  A    between atoms: C_9  and  C_10
REMARK    6  A    between atoms: N_16  and  C_17
REMARK    7  A    between atoms: C_17  and  C_18
REMARK                            x       y       z     vdW  Elec       q    Type
REMARK                         _______ _______ _______ _____ _____    ______ ____
ROOT
ATOM      1  C   UNL     1      44.876   5.001  12.473  0.00  0.00    +0.000 A 
ATOM      2  N   UNL     1      45.608   5.129  13.573  0.00  0.00    +0.000 NA
ATOM      3  C   UNL     1      46.720   5.841  13.231  0.00  0.00    +0.000 A 
ATOM      4  C   UNL     1      47.814   6.253  14.001  0.00  0.00    +0.000 A 
ATOM      5  C   UNL     1      48.813   6.982  13.348  0.00  0.00    +0.000 A 
ATOM      6  C   UNL     1      48.652   7.263  11.987  0.00  0.00    +0.000 A 
ATOM      7  N   UNL     1      47.603   6.881  11.203  0.00  0.00    +0.000 NA
ATOM      8  C   UNL     1      46.686   6.171  11.889  0.00  0.00    +0.000 A 
ATOM      9  N   UNL     1      45.536   5.589  11.400  0.00  0.00    +0.000 N 
ENDROOT
BRANCH   5  10
ATOM     10  C   UNL     1      50.045   7.463  14.016  0.00  0.00    +0.000 C 
ATOM     11  N   UNL     1      50.779   8.450  13.416  0.00  0.00    +0.000 N 
ATOM     12  O   UNL     1      50.408   6.996  15.089  0.00  0.00    +0.000 OA
ATOM     13  H   UNL     1      50.548   8.904  12.546  0.00  0.00    +0.000 HD
ATOM     14  H   UNL     1      51.600   8.775  13.908  0.00  0.00    +0.000 HD
ENDBRANCH   5  10
BRANCH   1  16
ATOM     15  C   UNL     1      42.567   5.069  11.519  0.00  0.00    +0.000 C 
ATOM     16  C   UNL     1      43.518   4.302  12.477  0.00  0.00    +0.000 C 
ATOM     17  C   UNL     1      42.865   4.320  13.866  0.00  0.00    +0.000 C 
ATOM     18  C   UNL     1      43.612   2.864  11.941  0.00  0.00    +0.000 C 
ENDBRANCH   1  16
BRANCH   9  19
ATOM     19  C   UNL     1      45.137   5.711  10.006  0.00  0.00    +0.000 C 
BRANCH  19  20
ATOM     20  C   UNL     1      45.494   4.535   9.134  0.00  0.00    +0.000 A 
ATOM     21  C   UNL     1      46.317   4.721   8.013  0.00  0.00    +0.000 A 
ATOM     22  C   UNL     1      46.753   3.625   7.275  0.00  0.00    +0.000 A 
ATOM     23  C   UNL     1      46.352   2.365   7.679  0.00  0.00    +0.000 A 
ATOM     24  N   UNL     1      45.552   2.141   8.740  0.00  0.00    +0.000 NA
ATOM     25  C   UNL     1      45.151   3.223   9.447  0.00  0.00    +0.000 A 
ENDBRANCH  19  20
ENDBRANCH   9  19
TORSDOF 4
ENDMDL
MODEL 9
REMARK VINA RESULT:    -5.297      4.575      6.573
REMARK INTER + INTRA:          -7.163
REMARK INTER:                  -6.861
REMARK INTRA:                  -0.302
REMARK UNBOUND:                -0.627
REMARK  Name = 
REMARK  7 active torsions:
REMARK  status: ('A' for Active; 'I' for Inactive)
REMARK    1  A    between atoms: C_1  and  C_2
REMARK    2  A    between atoms: C_2  and  C_3
REMARK    3  A    between atoms: C_2  and  C_4
REMARK    4  A    between atoms: C_2  and  C_5
REMARK    5  A    between atoms: C_9  and  C_10
REMARK    6  A    between atoms: N_16  and  C_17
REMARK    7  A    between atoms: C_17  and  C_18
REMARK                            x       y       z     vdW  Elec       q    Type
REMARK                         _______ _______ _______ _____ _____    ______ ____
ROOT
ATOM      1  C   UNL     1      47.901   4.446  16.253  0.00  0.00    +0.000 A 
ATOM      2  N   UNL     1      47.130   3.944  15.296  0.00  0.00    +0.000 NA
ATOM      3  C   UNL     1      47.021   4.900  14.330  0.00  0.00    +0.000 A 
ATOM      4  C   UNL     1      46.327   4.895  13.114  0.00  0.00    +0.000 A 
ATOM      5  C   UNL     1      46.411   6.049  12.328  0.00  0.00    +0.000 A 
ATOM      6  C   UNL     1      47.186   7.116  12.793  0.00  0.00    +0.000 A 
ATOM      7  N   UNL     1      47.877   7.161  13.969  0.00  0.00    +0.000 NA
ATOM      8  C   UNL     1      47.741   6.025  14.682  0.00  0.00    +0.000 A 
ATOM      9  N   UNL     1      48.256   5.751  15.931  0.00  0.00    +0.000 N 
ENDROOT
BRANCH   5  10
ATOM     10  C   UNL     1      45.711   6.211  11.032  0.00  0.00    +0.000 C 
ATOM     11  N   UNL     1      44.677   7.102  10.947  0.00  0.00    +0.000 N 
ATOM     12  O   UNL     1      46.047   5.565  10.046  0.00  0.00    +0.000 OA
ATOM     13  H   UNL     1      44.345   7.688  11.698  0.00  0.00    +0.000 HD
ATOM     14  H   UNL     1      44.237   7.208  10.043  0.00  0.00    +0.000 HD
ENDBRANCH   5  10
BRANCH   1  16
ATOM     15  C   UNL     1      49.649   2.932  17.200  0.00  0.00    +0.000 C 
ATOM     16  C   UNL     1      48.297   3.638  17.487  0.00  0.00    +0.000 C 
ATOM     17  C   UNL     1      47.275   2.538  17.806  0.00  0.00    +0.000 C 
ATOM     18  C   UNL     1      48.525   4.538  18.712  0.00  0.00    +0.000 C 
ENDBRANCH   1  16
BRANCH   9  19
ATOM     19  C   UNL     1      49.087   6.703  16.654  0.00  0.00    +0.000 C 
BRANCH  19  20
ATOM     20  C   UNL     1      50.550   6.676  16.296  0.00  0.00    +0.000 A 
ATOM     21  C   UNL     1      51.057   7.593  15.363  0.00  0.00    +0.000 A 
ATOM     22  C   UNL     1      52.425   7.658  15.118  0.00  0.00    +0.000 A 
ATOM     23  C   UNL     1      53.255   6.800  15.817  0.00  0.00    +0.000 A 
ATOM     24  N   UNL     1      52.810   5.895  16.710  0.00  0.00    +0.000 NA
ATOM     25  C   UNL     1      51.476   5.859  16.937  0.00  0.00    +0.000 A 
ENDBRANCH  19  20
ENDBRANCH   9  19
TORSDOF 4
ENDMDL
