MODEL 1
REMARK VINA RESULT:    -8.047      0.000      0.000
REMARK INTER + INTRA:         -11.899
REMARK INTER:                 -10.870
REMARK INTRA:                  -1.029
REMARK UNBOUND:                -1.029
REMARK  Name = 
REMARK  6 active torsions:
REMARK  status: ('A' for Active; 'I' for Inactive)
REMARK    1  A    between atoms: C_2  and  C_25
REMARK    2  A    between atoms: N_3  and  C_4
REMARK    3  A    between atoms: C_4  and  C_5
REMARK    4  A    between atoms: C_8  and  C_9
REMARK    5  A    between atoms: C_9  and  N_10
REMARK    6  A    between atoms: C_11  and  C_13
REMARK                            x       y       z     vdW  Elec       q    Type
REMARK                         _______ _______ _______ _____ _____    ______ ____
ROOT
ATOM      1  C   UNL     1      45.048   6.281  11.252  0.00  0.00    +0.000 A 
ATOM      2  C   UNL     1      44.586   7.463  11.848  0.00  0.00    +0.000 A 
ATOM      3  C   UNL     1      45.396   8.174  12.740  0.00  0.00    +0.000 A 
ATOM      4  C   UNL     1      46.692   7.731  13.035  0.00  0.00    +0.000 A 
ATOM      5  C   UNL     1      47.147   6.542  12.452  0.00  0.00    +0.000 A 
ATOM      6  C   UNL     1      46.338   5.830  11.560  0.00  0.00    +0.000 A 
ENDROOT
BRANCH   1   7
ATOM      7  C   UNL     1      44.190   5.533  10.266  0.00  0.00    +0.000 C 
BRANCH   7  10
ATOM      8  O   UNL     1      44.048   2.771   9.927  0.00  0.00    +0.000 OA
ATOM      9  C   UNL     1      44.845   3.404   9.239  0.00  0.00    +0.000 C 
ATOM     10  N   UNL     1      44.995   4.765   9.349  0.00  0.00    +0.000 N 
ATOM     11  H   UNL     1      45.590   5.261   8.702  0.00  0.00    +0.000 HD
BRANCH   9  12
ATOM     12  C   UNL     1      45.679   2.764   8.246  0.00  0.00    +0.000 A 
ATOM     13  C   UNL     1      46.279   3.231   7.084  0.00  0.00    +0.000 A 
ATOM     14  C   UNL     1      46.984   2.158   6.494  0.00  0.00    +0.000 A 
ATOM     15 CL   UNL     1      47.873   2.249   5.052  0.00  0.00    +0.000 Cl
ATOM     16  C   UNL     1      46.815   1.057   7.296  0.00  0.00    +0.000 A 
ATOM     17  N   UNL     1      46.035   1.434   8.355  0.00  0.00    +0.000 N 
ATOM     18  H   UNL     1      45.742   0.838   9.122  0.00  0.00    +0.000 HD
ENDBRANCH   9  12
ENDBRANCH   7  10
ENDBRANCH   1   7
BRANCH   4  19
ATOM     19  C   UNL     1      47.568   8.488  14.002  0.00  0.00    +0.000 C 
BRANCH  19  20
ATOM     20  N   UNL     1      47.915   7.665  15.133  0.00  0.00    +0.000 N 
ATOM     21  C   UNL     1      49.126   7.030  15.218  0.00  0.00    +0.000 C 
ATOM     22  O   UNL     1      50.000   7.173  14.367  0.00  0.00    +0.000 OA
ATOM     23  H   UNL     1      47.145   7.346  15.712  0.00  0.00    +0.000 HD
BRANCH  21  24
ATOM     24  C   UNL     1      49.349   6.217  16.421  0.00  0.00    +0.000 A 
ATOM     25  C   UNL     1      50.374   6.546  17.299  0.00  0.00    +0.000 A 
ATOM     26  S   UNL     1      50.441   5.546  18.679  0.00  0.00    +0.000 S 
ATOM     27  C   UNL     1      49.136   4.603  18.126  0.00  0.00    +0.000 A 
ATOM     28  N   UNL     1      48.682   3.544  18.849  0.00  0.00    +0.000 NA
ATOM     29  C   UNL     1      47.711   2.897  18.295  0.00  0.00    +0.000 A 
ATOM     30  N   UNL     1      47.151   3.214  17.084  0.00  0.00    +0.000 N 
ATOM     31  C   UNL     1      47.562   4.287  16.332  0.00  0.00    +0.000 A 
ATOM     32  O   UNL     1      47.018   4.560  15.267  0.00  0.00    +0.000 OA
ATOM     33  C   UNL     1      48.653   5.049  16.908  0.00  0.00    +0.000 A 
ATOM     34  H   UNL     1      46.392   2.668  16.706  0.00  0.00    +0.000 HD
ENDBRANCH  21  24
ENDBRANCH  19  20
ENDBRANCH   4  19
TORSDOF 6
ENDMDL
MODEL 2
REMARK VINA RESULT:    -6.844      1.992      3.003
REMARK INTER + INTRA:         -10.274
REMARK INTER:                  -9.344
REMARK INTRA:                  -0.930
REMARK UNBOUND:                -1.029
REMARK  Name = 
REMARK  6 active torsions:
REMARK  status: ('A' for Active; 'I' for Inactive)
REMARK    1  A    between atoms: C_2  and  C_25
REMARK    2  A    between atoms: N_3  and  C_4
REMARK    3  A    between atoms: C_4  and  C_5
REMARK    4  A    between atoms: C_8  and  C_9
REMARK    5  A    between atoms: C_9  and  N_10
REMARK    6  A    between atoms: C_11  and  C_13
REMARK                            x       y       z     vdW  Elec       q    Type
REMARK                         _______ _______ _______ _____ _____    ______ ____
ROOT
ATOM      1  C   UNL     1      45.497   6.192  11.808  0.00  0.00    +0.000 A 
ATOM      2  C   UNL     1      46.546   5.533  12.462  0.00  0.00    +0.000 A 
ATOM      3  C   UNL     1      47.394   6.229  13.330  0.00  0.00    +0.000 A 
ATOM      4  C   UNL     1      47.195   7.594  13.579  0.00  0.00    +0.000 A 
ATOM      5  C   UNL     1      46.156   8.255  12.912  0.00  0.00    +0.000 A 
ATOM      6  C   UNL     1      45.309   7.560  12.044  0.00  0.00    +0.000 A 
ENDROOT
BRANCH   1   7
ATOM      7  C   UNL     1      44.564   5.436  10.899  0.00  0.00    +0.000 C 
BRANCH   7  10
ATOM      8  O   UNL     1      43.902   2.910   9.931  0.00  0.00    +0.000 OA
ATOM      9  C   UNL     1      44.880   3.481   9.454  0.00  0.00    +0.000 C 
ATOM     10  N   UNL     1      45.290   4.720   9.881  0.00  0.00    +0.000 N 
ATOM     11  H   UNL     1      46.039   5.196   9.401  0.00  0.00    +0.000 HD
BRANCH   9  12
ATOM     12  C   UNL     1      45.668   2.895   8.393  0.00  0.00    +0.000 A 
ATOM     13  C   UNL     1      46.182   3.414   7.211  0.00  0.00    +0.000 A 
ATOM     14  C   UNL     1      46.879   2.380   6.546  0.00  0.00    +0.000 A 
ATOM     15 CL   UNL     1      47.674   2.540   5.057  0.00  0.00    +0.000 Cl
ATOM     16  C   UNL     1      46.790   1.251   7.322  0.00  0.00    +0.000 A 
ATOM     17  N   UNL     1      46.068   1.573   8.438  0.00  0.00    +0.000 N 
ATOM     18  H   UNL     1      45.839   0.946   9.203  0.00  0.00    +0.000 HD
ENDBRANCH   9  12
ENDBRANCH   7  10
ENDBRANCH   1   7
BRANCH   4  19
ATOM     19  C   UNL     1      48.110   8.354  14.506  0.00  0.00    +0.000 C 
BRANCH  19  20
ATOM     20  N   UNL     1      49.049   7.466  15.144  0.00  0.00    +0.000 N 
ATOM     21  C   UNL     1      49.098   7.327  16.507  0.00  0.00    +0.000 C 
ATOM     22  O   UNL     1      48.312   7.905  17.252  0.00  0.00    +0.000 OA
ATOM     23  H   UNL     1      49.843   7.173  14.586  0.00  0.00    +0.000 HD
BRANCH  21  24
ATOM     24  C   UNL     1      50.106   6.394  17.027  0.00  0.00    +0.000 A 
ATOM     25  C   UNL     1      49.736   5.410  17.935  0.00  0.00    +0.000 A 
ATOM     26  S   UNL     1      51.013   4.368  18.373  0.00  0.00    +0.000 S 
ATOM     27  C   UNL     1      52.120   5.229  17.407  0.00  0.00    +0.000 A 
ATOM     28  N   UNL     1      53.427   4.858  17.342  0.00  0.00    +0.000 NA
ATOM     29  C   UNL     1      54.160   5.618  16.599  0.00  0.00    +0.000 A 
ATOM     30  N   UNL     1      53.706   6.716  15.915  0.00  0.00    +0.000 N 
ATOM     31  C   UNL     1      52.390   7.113  15.934  0.00  0.00    +0.000 A 
ATOM     32  O   UNL     1      52.011   8.083  15.285  0.00  0.00    +0.000 OA
ATOM     33  C   UNL     1      51.522   6.292  16.755  0.00  0.00    +0.000 A 
ATOM     34  H   UNL     1      54.331   7.270  15.349  0.00  0.00    +0.000 HD
ENDBRANCH  21  24
ENDBRANCH  19  20
ENDBRANCH   4  19
TORSDOF 6
ENDMDL
MODEL 3
REMARK VINA RESULT:    -6.769      4.472      8.611
REMARK INTER + INTRA:         -10.172
REMARK INTER:                  -9.699
REMARK INTRA:                  -0.473
REMARK UNBOUND:                -1.029
REMARK  Name = 
REMARK  6 active torsions:
REMARK  status: ('A' for Active; 'I' for Inactive)
REMARK    1  A    between atoms: C_2  and  C_25
REMARK    2  A    between atoms: N_3  and  C_4
REMARK    3  A    between atoms: C_4  and  C_5
REMARK    4  A    between atoms: C_8  and  C_9
REMARK    5  A    between atoms: C_9  and  N_10
REMARK    6  A    between atoms: C_11  and  C_13
REMARK                            x       y       z     vdW  Elec       q    Type
REMARK                         _______ _______ _______ _____ _____    ______ ____
ROOT
ATOM      1  C   UNL     1      48.826   5.069  17.209  0.00  0.00    +0.000 A 
ATOM      2  C   UNL     1      49.610   6.148  16.778  0.00  0.00    +0.000 A 
ATOM      3  C   UNL     1      49.363   6.760  15.545  0.00  0.00    +0.000 A 
ATOM      4  C   UNL     1      48.313   6.321  14.728  0.00  0.00    +0.000 A 
ATOM      5  C   UNL     1      47.540   5.232  15.152  0.00  0.00    +0.000 A 
ATOM      6  C   UNL     1      47.786   4.620  16.385  0.00  0.00    +0.000 A 
ENDROOT
BRANCH   1   7
ATOM      7  C   UNL     1      49.069   4.431  18.551  0.00  0.00    +0.000 C 
BRANCH   7  10
ATOM      8  O   UNL     1      49.639   2.232  16.939  0.00  0.00    +0.000 OA
ATOM      9  C   UNL     1      50.503   2.624  17.719  0.00  0.00    +0.000 C 
ATOM     10  N   UNL     1      50.305   3.690  18.562  0.00  0.00    +0.000 N 
ATOM     11  H   UNL     1      51.070   4.041  19.119  0.00  0.00    +0.000 HD
BRANCH   9  12
ATOM     12  C   UNL     1      51.806   2.002  17.797  0.00  0.00    +0.000 A 
ATOM     13  C   UNL     1      53.096   2.515  17.744  0.00  0.00    +0.000 A 
ATOM     14  C   UNL     1      54.001   1.437  17.869  0.00  0.00    +0.000 A 
ATOM     15 CL   UNL     1      55.691   1.577  17.856  0.00  0.00    +0.000 Cl
ATOM     16  C   UNL     1      53.265   0.287  18.002  0.00  0.00    +0.000 A 
ATOM     17  N   UNL     1      51.942   0.637  17.968  0.00  0.00    +0.000 N 
ATOM     18  H   UNL     1      51.154   0.003  18.048  0.00  0.00    +0.000 HD
ENDBRANCH   9  12
ENDBRANCH   7  10
ENDBRANCH   1   7
BRANCH   4  19
ATOM     19  C   UNL     1      48.045   6.970  13.393  0.00  0.00    +0.000 C 
BRANCH  19  20
ATOM     20  N   UNL     1      47.341   6.069  12.516  0.00  0.00    +0.000 N 
ATOM     21  C   UNL     1      46.270   6.482  11.768  0.00  0.00    +0.000 C 
ATOM     22  O   UNL     1      45.889   7.650  11.761  0.00  0.00    +0.000 OA
ATOM     23  H   UNL     1      47.478   5.078  12.683  0.00  0.00    +0.000 HD
BRANCH  21  24
ATOM     24  C   UNL     1      45.639   5.462  10.921  0.00  0.00    +0.000 A 
ATOM     25  C   UNL     1      45.738   5.551   9.538  0.00  0.00    +0.000 A 
ATOM     26  S   UNL     1      45.017   4.244   8.714  0.00  0.00    +0.000 S 
ATOM     27  C   UNL     1      44.496   3.540  10.174  0.00  0.00    +0.000 A 
ATOM     28  N   UNL     1      43.789   2.378  10.177  0.00  0.00    +0.000 NA
ATOM     29  C   UNL     1      43.429   1.975  11.350  0.00  0.00    +0.000 A 
ATOM     30  N   UNL     1      43.714   2.629  12.521  0.00  0.00    +0.000 N 
ATOM     31  C   UNL     1      44.445   3.791  12.568  0.00  0.00    +0.000 A 
ATOM     32  O   UNL     1      44.708   4.333  13.636  0.00  0.00    +0.000 OA
ATOM     33  C   UNL     1      44.873   4.288  11.274  0.00  0.00    +0.000 A 
ATOM     34  H   UNL     1      43.405   2.260  13.408  0.00  0.00    +0.000 HD
ENDBRANCH  21  24
ENDBRANCH  19  20
ENDBRANCH   4  19
TORSDOF 6
ENDMDL
MODEL 4
REMARK VINA RESULT:    -6.755      1.629      2.109
REMARK INTER + INTRA:         -10.154
REMARK INTER:                  -9.644
REMARK INTRA:                  -0.509
REMARK UNBOUND:                -1.029
REMARK  Name = 
REMARK  6 active torsions:
REMARK  status: ('A' for Active; 'I' for Inactive)
REMARK    1  A    between atoms: C_2  and  C_25
REMARK    2  A    between atoms: N_3  and  C_4
REMARK    3  A    between atoms: C_4  and  C_5
REMARK    4  A    between atoms: C_8  and  C_9
REMARK    5  A    between atoms: C_9  and  N_10
REMARK    6  A    between atoms: C_11  and  C_13
REMARK                            x       y       z     vdW  Elec       q    Type
REMARK                         _______ _______ _______ _____ _____    ______ ____
ROOT
ATOM      1  C   UNL     1      45.279   6.693  11.848  0.00  0.00    +0.000 A 
ATOM      2  C   UNL     1      46.293   6.011  12.534  0.00  0.00    +0.000 A 
ATOM      3  C   UNL     1      47.152   6.696  13.401  0.00  0.00    +0.000 A 
ATOM      4  C   UNL     1      46.999   8.072  13.615  0.00  0.00    +0.000 A 
ATOM      5  C   UNL     1      45.996   8.756  12.916  0.00  0.00    +0.000 A 
ATOM      6  C   UNL     1      45.138   8.072  12.050  0.00  0.00    +0.000 A 
ENDROOT
BRANCH   1   7
ATOM      7  C   UNL     1      44.333   5.951  10.941  0.00  0.00    +0.000 C 
BRANCH   7  10
ATOM      8  O   UNL     1      43.615   3.349  10.253  0.00  0.00    +0.000 OA
ATOM      9  C   UNL     1      44.610   3.840   9.725  0.00  0.00    +0.000 C 
ATOM     10  N   UNL     1      45.048   5.109  10.015  0.00  0.00    +0.000 N 
ATOM     11  H   UNL     1      45.812   5.510   9.492  0.00  0.00    +0.000 HD
BRANCH   9  12
ATOM     12  C   UNL     1      45.390   3.121   8.742  0.00  0.00    +0.000 A 
ATOM     13  C   UNL     1      46.090   3.535   7.616  0.00  0.00    +0.000 A 
ATOM     14  C   UNL     1      46.671   2.393   7.019  0.00  0.00    +0.000 A 
ATOM     15 CL   UNL     1      47.618   2.403   5.612  0.00  0.00    +0.000 Cl
ATOM     16  C   UNL     1      46.329   1.303   7.780  0.00  0.00    +0.000 A 
ATOM     17  N   UNL     1      45.566   1.753   8.823  0.00  0.00    +0.000 N 
ATOM     18  H   UNL     1      45.168   1.181   9.562  0.00  0.00    +0.000 HD
ENDBRANCH   9  12
ENDBRANCH   7  10
ENDBRANCH   1   7
BRANCH   4  19
ATOM     19  C   UNL     1      47.926   8.820  14.541  0.00  0.00    +0.000 C 
BRANCH  19  20
ATOM     20  N   UNL     1      48.929   7.940  15.084  0.00  0.00    +0.000 N 
ATOM     21  C   UNL     1      50.208   8.368  15.328  0.00  0.00    +0.000 C 
ATOM     22  O   UNL     1      50.552   9.534  15.151  0.00  0.00    +0.000 OA
ATOM     23  H   UNL     1      48.744   6.945  15.013  0.00  0.00    +0.000 HD
BRANCH  21  24
ATOM     24  C   UNL     1      51.134   7.368  15.877  0.00  0.00    +0.000 A 
ATOM     25  C   UNL     1      52.501   7.503  15.672  0.00  0.00    +0.000 A 
ATOM     26  S   UNL     1      53.431   6.299  16.443  0.00  0.00    +0.000 S 
ATOM     27  C   UNL     1      52.036   5.522  17.033  0.00  0.00    +0.000 A 
ATOM     28  N   UNL     1      52.129   4.389  17.779  0.00  0.00    +0.000 NA
ATOM     29  C   UNL     1      50.992   3.887  18.132  0.00  0.00    +0.000 A 
ATOM     30  N   UNL     1      49.770   4.416  17.806  0.00  0.00    +0.000 N 
ATOM     31  C   UNL     1      49.629   5.571  17.074  0.00  0.00    +0.000 A 
ATOM     32  O   UNL     1      48.520   6.033  16.828  0.00  0.00    +0.000 OA
ATOM     33  C   UNL     1      50.877   6.176  16.652  0.00  0.00    +0.000 A 
ATOM     34  H   UNL     1      48.916   3.976  18.114  0.00  0.00    +0.000 HD
ENDBRANCH  21  24
ENDBRANCH  19  20
ENDBRANCH   4  19
TORSDOF 6
ENDMDL
MODEL 5
REMARK VINA RESULT:    -6.457      3.957      8.902
REMARK INTER + INTRA:          -9.751
REMARK INTER:                  -8.780
REMARK INTRA:                  -0.971
REMARK UNBOUND:                -1.029
REMARK  Name = 
REMARK  6 active torsions:
REMARK  status: ('A' for Active; 'I' for Inactive)
REMARK    1  A    between atoms: C_2  and  C_25
REMARK    2  A    between atoms: N_3  and  C_4
REMARK    3  A    between atoms: C_4  and  C_5
REMARK    4  A    between atoms: C_8  and  C_9
REMARK    5  A    between atoms: C_9  and  N_10
REMARK    6  A    between atoms: C_11  and  C_13
REMARK                            x       y       z     vdW  Elec       q    Type
REMARK                         _______ _______ _______ _____ _____    ______ ____
ROOT
ATOM      1  C   UNL     1      48.946   7.713  16.066  0.00  0.00    +0.000 A 
ATOM      2  C   UNL     1      48.645   6.523  15.390  0.00  0.00    +0.000 A 
ATOM      3  C   UNL     1      48.079   6.554  14.111  0.00  0.00    +0.000 A 
ATOM      4  C   UNL     1      47.824   7.775  13.473  0.00  0.00    +0.000 A 
ATOM      5  C   UNL     1      48.110   8.964  14.156  0.00  0.00    +0.000 A 
ATOM      6  C   UNL     1      48.676   8.934  15.435  0.00  0.00    +0.000 A 
ENDROOT
BRANCH   1   7
ATOM      7  C   UNL     1      49.586   7.681  17.429  0.00  0.00    +0.000 C 
BRANCH   7  10
ATOM      8  O   UNL     1      49.180   5.468  19.071  0.00  0.00    +0.000 OA
ATOM      9  C   UNL     1      50.198   5.507  18.384  0.00  0.00    +0.000 C 
ATOM     10  N   UNL     1      50.489   6.565  17.557  0.00  0.00    +0.000 N 
ATOM     11  H   UNL     1      51.285   6.517  16.939  0.00  0.00    +0.000 HD
BRANCH   9  12
ATOM     12  C   UNL     1      51.163   4.431  18.381  0.00  0.00    +0.000 A 
ATOM     13  C   UNL     1      51.212   3.216  17.708  0.00  0.00    +0.000 A 
ATOM     14  C   UNL     1      52.400   2.552  18.090  0.00  0.00    +0.000 A 
ATOM     15 CL   UNL     1      52.889   1.028  17.529  0.00  0.00    +0.000 Cl
ATOM     16  C   UNL     1      53.063   3.360  18.980  0.00  0.00    +0.000 A 
ATOM     17  N   UNL     1      52.316   4.496  19.141  0.00  0.00    +0.000 N 
ATOM     18  H   UNL     1      52.550   5.285  19.734  0.00  0.00    +0.000 HD
ENDBRANCH   9  12
ENDBRANCH   7  10
ENDBRANCH   1   7
BRANCH   4  19
ATOM     19  C   UNL     1      47.207   7.817  12.098  0.00  0.00    +0.000 C 
BRANCH  19  20
ATOM     20  N   UNL     1      46.587   6.557  11.774  0.00  0.00    +0.000 N 
ATOM     21  C   UNL     1      45.225   6.418  11.714  0.00  0.00    +0.000 C 
ATOM     22  O   UNL     1      44.463   7.367  11.877  0.00  0.00    +0.000 OA
ATOM     23  H   UNL     1      47.167   5.731  11.872  0.00  0.00    +0.000 HD
BRANCH  21  24
ATOM     24  C   UNL     1      44.724   5.078  11.380  0.00  0.00    +0.000 A 
ATOM     25  C   UNL     1      43.973   4.367  12.307  0.00  0.00    +0.000 A 
ATOM     26  S   UNL     1      43.408   2.867  11.725  0.00  0.00    +0.000 S 
ATOM     27  C   UNL     1      44.194   3.088  10.231  0.00  0.00    +0.000 A 
ATOM     28  N   UNL     1      44.124   2.142   9.257  0.00  0.00    +0.000 NA
ATOM     29  C   UNL     1      44.794   2.425   8.190  0.00  0.00    +0.000 A 
ATOM     30  N   UNL     1      45.528   3.568   8.008  0.00  0.00    +0.000 N 
ATOM     31  C   UNL     1      45.608   4.560   8.955  0.00  0.00    +0.000 A 
ATOM     32  O   UNL     1      46.249   5.586   8.747  0.00  0.00    +0.000 OA
ATOM     33  C   UNL     1      44.872   4.293  10.175  0.00  0.00    +0.000 A 
ATOM     34  H   UNL     1      46.030   3.731   7.148  0.00  0.00    +0.000 HD
ENDBRANCH  21  24
ENDBRANCH  19  20
ENDBRANCH   4  19
TORSDOF 6
ENDMDL
MODEL 6
REMARK VINA RESULT:    -6.252      4.201      8.378
REMARK INTER + INTRA:          -9.474
REMARK INTER:                  -8.589
REMARK INTRA:                  -0.885
REMARK UNBOUND:                -1.029
REMARK  Name = 
REMARK  6 active torsions:
REMARK  status: ('A' for Active; 'I' for Inactive)
REMARK    1  A    between atoms: C_2  and  C_25
REMARK    2  A    between atoms: N_3  and  C_4
REMARK    3  A    between atoms: C_4  and  C_5
REMARK    4  A    between atoms: C_8  and  C_9
REMARK    5  A    between atoms: C_9  and  N_10
REMARK    6  A    between atoms: C_11  and  C_13
REMARK                            x       y       z     vdW  Elec       q    Type
REMARK                         _______ _______ _______ _____ _____    ______ ____
ROOT
ATOM      1  C   UNL     1      49.126   7.523  16.156  0.00  0.00    +0.000 A 
ATOM      2  C   UNL     1      48.243   8.560  15.826  0.00  0.00    +0.000 A 
ATOM      3  C   UNL     1      47.914   8.818  14.491  0.00  0.00    +0.000 A 
ATOM      4  C   UNL     1      48.442   8.030  13.461  0.00  0.00    +0.000 A 
ATOM      5  C   UNL     1      49.337   7.003  13.790  0.00  0.00    +0.000 A 
ATOM      6  C   UNL     1      49.667   6.745  15.124  0.00  0.00    +0.000 A 
ENDROOT
BRANCH   1   7
ATOM      7  C   UNL     1      49.454   7.223  17.594  0.00  0.00    +0.000 C 
BRANCH   7  10
ATOM      8  O   UNL     1      48.830   4.664  18.503  0.00  0.00    +0.000 OA
ATOM      9  C   UNL     1      49.984   4.893  18.147  0.00  0.00    +0.000 C 
ATOM     10  N   UNL     1      50.386   6.128  17.700  0.00  0.00    +0.000 N 
ATOM     11  H   UNL     1      51.316   6.251  17.329  0.00  0.00    +0.000 HD
BRANCH   9  12
ATOM     12  C   UNL     1      51.006   3.871  18.157  0.00  0.00    +0.000 A 
ATOM     13  C   UNL     1      51.165   2.695  17.434  0.00  0.00    +0.000 A 
ATOM     14  C   UNL     1      52.361   2.077  17.862  0.00  0.00    +0.000 A 
ATOM     15 CL   UNL     1      52.969   0.611  17.264  0.00  0.00    +0.000 Cl
ATOM     16  C   UNL     1      52.922   2.874  18.828  0.00  0.00    +0.000 A 
ATOM     17  N   UNL     1      52.104   3.959  18.992  0.00  0.00    +0.000 N 
ATOM     18  H   UNL     1      52.257   4.730  19.635  0.00  0.00    +0.000 HD
ENDBRANCH   9  12
ENDBRANCH   7  10
ENDBRANCH   1   7
BRANCH   4  19
ATOM     19  C   UNL     1      48.100   8.307  12.018  0.00  0.00    +0.000 C 
BRANCH  19  20
ATOM     20  N   UNL     1      47.447   7.171  11.418  0.00  0.00    +0.000 N 
ATOM     21  C   UNL     1      46.086   7.013  11.465  0.00  0.00    +0.000 C 
ATOM     22  O   UNL     1      45.348   7.856  11.968  0.00  0.00    +0.000 OA
ATOM     23  H   UNL     1      48.033   6.367  11.218  0.00  0.00    +0.000 HD
BRANCH  21  24
ATOM     24  C   UNL     1      45.550   5.808  10.820  0.00  0.00    +0.000 A 
ATOM     25  C   UNL     1      45.776   5.587   9.467  0.00  0.00    +0.000 A 
ATOM     26  S   UNL     1      45.151   4.105   8.902  0.00  0.00    +0.000 S 
ATOM     27  C   UNL     1      44.508   3.728  10.432  0.00  0.00    +0.000 A 
ATOM     28  N   UNL     1      43.820   2.574  10.637  0.00  0.00    +0.000 NA
ATOM     29  C   UNL     1      43.360   2.433  11.836  0.00  0.00    +0.000 A 
ATOM     30  N   UNL     1      43.526   3.342  12.849  0.00  0.00    +0.000 N 
ATOM     31  C   UNL     1      44.233   4.510  12.693  0.00  0.00    +0.000 A 
ATOM     32  O   UNL     1      44.389   5.286  13.630  0.00  0.00    +0.000 OA
ATOM     33  C   UNL     1      44.772   4.718  11.363  0.00  0.00    +0.000 A 
ATOM     34  H   UNL     1      43.142   3.172  13.766  0.00  0.00    +0.000 HD
ENDBRANCH  21  24
ENDBRANCH  19  20
ENDBRANCH   4  19
TORSDOF 6
ENDMDL
MODEL 7
REMARK VINA RESULT:    -6.205      5.856      7.728
REMARK INTER + INTRA:          -9.411
REMARK INTER:                  -8.496
REMARK INTRA:                  -0.915
REMARK UNBOUND:                -1.029
REMARK  Name = 
REMARK  6 active torsions:
REMARK  status: ('A' for Active; 'I' for Inactive)
REMARK    1  A    between atoms: C_2  and  C_25
REMARK    2  A    between atoms: N_3  and  C_4
REMARK    3  A    between atoms: C_4  and  C_5
REMARK    4  A    between atoms: C_8  and  C_9
REMARK    5  A    between atoms: C_9  and  N_10
REMARK    6  A    between atoms: C_11  and  C_13
REMARK                            x       y       z     vdW  Elec       q    Type
REMARK                         _______ _______ _______ _____ _____    ______ ____
ROOT
ATOM      1  C   UNL     1      47.557   8.309  12.560  0.00  0.00    +0.000 A 
ATOM      2  C   UNL     1      48.056   9.613  12.682  0.00  0.00    +0.000 A 
ATOM      3  C   UNL     1      49.372   9.909  12.311  0.00  0.00    +0.000 A 
ATOM      4  C   UNL     1      50.208   8.913  11.791  0.00  0.00    +0.000 A 
ATOM      5  C   UNL     1      49.714   7.606  11.685  0.00  0.00    +0.000 A 
ATOM      6  C   UNL     1      48.399   7.309  12.055  0.00  0.00    +0.000 A 
ENDROOT
BRANCH   1   7
ATOM      7  C   UNL     1      46.131   7.995  12.926  0.00  0.00    +0.000 C 
BRANCH   7  10
ATOM      8  O   UNL     1      43.943   7.405  11.306  0.00  0.00    +0.000 OA
ATOM      9  C   UNL     1      44.665   6.481  11.673  0.00  0.00    +0.000 C 
ATOM     10  N   UNL     1      45.755   6.675  12.485  0.00  0.00    +0.000 N 
ATOM     11  H   UNL     1      46.376   5.907  12.688  0.00  0.00    +0.000 HD
BRANCH   9  12
ATOM     12  C   UNL     1      44.429   5.115  11.263  0.00  0.00    +0.000 A 
ATOM     13  C   UNL     1      44.850   4.380  10.162  0.00  0.00    +0.000 A 
ATOM     14  C   UNL     1      44.311   3.078  10.273  0.00  0.00    +0.000 A 
ATOM     15 CL   UNL     1      44.549   1.825   9.155  0.00  0.00    +0.000 Cl
ATOM     16  C   UNL     1      43.577   3.027  11.431  0.00  0.00    +0.000 A 
ATOM     17  N   UNL     1      43.663   4.256  12.028  0.00  0.00    +0.000 N 
ATOM     18  H   UNL     1      43.228   4.525  12.905  0.00  0.00    +0.000 HD
ENDBRANCH   9  12
ENDBRANCH   7  10
ENDBRANCH   1   7
BRANCH   4  19
ATOM     19  C   UNL     1      51.631   9.222  11.398  0.00  0.00    +0.000 C 
BRANCH  19  20
ATOM     20  N   UNL     1      51.946   8.646  10.115  0.00  0.00    +0.000 N 
ATOM     21  C   UNL     1      53.106   8.952   9.452  0.00  0.00    +0.000 C 
ATOM     22  O   UNL     1      53.963   9.686   9.939  0.00  0.00    +0.000 OA
ATOM     23  H   UNL     1      51.172   8.242   9.599  0.00  0.00    +0.000 HD
BRANCH  21  24
ATOM     24  C   UNL     1      53.301   8.301   8.151  0.00  0.00    +0.000 A 
ATOM     25  C   UNL     1      53.294   9.060   6.988  0.00  0.00    +0.000 A 
ATOM     26  S   UNL     1      53.613   8.156   5.577  0.00  0.00    +0.000 S 
ATOM     27  C   UNL     1      53.716   6.706   6.464  0.00  0.00    +0.000 A 
ATOM     28  N   UNL     1      53.961   5.522   5.842  0.00  0.00    +0.000 NA
ATOM     29  C   UNL     1      53.980   4.499   6.631  0.00  0.00    +0.000 A 
ATOM     30  N   UNL     1      53.776   4.554   7.985  0.00  0.00    +0.000 N 
ATOM     31  C   UNL     1      53.548   5.730   8.658  0.00  0.00    +0.000 A 
ATOM     32  O   UNL     1      53.401   5.746   9.876  0.00  0.00    +0.000 OA
ATOM     33  C   UNL     1      53.517   6.911   7.818  0.00  0.00    +0.000 A 
ATOM     34  H   UNL     1      53.804   3.717   8.548  0.00  0.00    +0.000 HD
ENDBRANCH  21  24
ENDBRANCH  19  20
ENDBRANCH   4  19
TORSDOF 6
ENDMDL
MODEL 8
REMARK VINA RESULT:    -6.021      2.423      3.501
REMARK INTER + INTRA:          -9.163
REMARK INTER:                  -8.675
REMARK INTRA:                  -0.488
REMARK UNBOUND:                -1.029
REMARK  Name = 
REMARK  6 active torsions:
REMARK  status: ('A' for Active; 'I' for Inactive)
REMARK    1  A    between atoms: C_2  and  C_25
REMARK    2  A    between atoms: N_3  and  C_4
REMARK    3  A    between atoms: C_4  and  C_5
REMARK    4  A    between atoms: C_8  and  C_9
REMARK    5  A    between atoms: C_9  and  N_10
REMARK    6  A    between atoms: C_11  and  C_13
REMARK                            x       y       z     vdW  Elec       q    Type
REMARK                         _______ _______ _______ _____ _____    ______ ____
ROOT
ATOM      1  C   UNL     1      44.765   4.801  11.677  0.00  0.00    +0.000 A 
ATOM      2  C   UNL     1      44.218   5.409  12.815  0.00  0.00    +0.000 A 
ATOM      3  C   UNL     1      44.683   6.655  13.251  0.00  0.00    +0.000 A 
ATOM      4  C   UNL     1      45.688   7.328  12.544  0.00  0.00    +0.000 A 
ATOM      5  C   UNL     1      46.245   6.713  11.416  0.00  0.00    +0.000 A 
ATOM      6  C   UNL     1      45.781   5.468  10.980  0.00  0.00    +0.000 A 
ENDROOT
BRANCH   1   7
ATOM      7  C   UNL     1      44.242   3.477  11.187  0.00  0.00    +0.000 C 
BRANCH   7  10
ATOM      8  O   UNL     1      44.041   4.076   8.474  0.00  0.00    +0.000 OA
ATOM      9  C   UNL     1      44.919   3.298   8.837  0.00  0.00    +0.000 C 
ATOM     10  N   UNL     1      45.084   2.933  10.151  0.00  0.00    +0.000 N 
ATOM     11  H   UNL     1      45.874   2.368  10.422  0.00  0.00    +0.000 HD
BRANCH   9  12
ATOM     12  C   UNL     1      45.862   2.718   7.907  0.00  0.00    +0.000 A 
ATOM     13  C   UNL     1      46.451   3.200   6.745  0.00  0.00    +0.000 A 
ATOM     14  C   UNL     1      47.300   2.193   6.234  0.00  0.00    +0.000 A 
ATOM     15 CL   UNL     1      48.230   2.323   4.822  0.00  0.00    +0.000 Cl
ATOM     16  C   UNL     1      47.229   1.117   7.084  0.00  0.00    +0.000 A 
ATOM     17  N   UNL     1      46.368   1.446   8.095  0.00  0.00    +0.000 N 
ATOM     18  H   UNL     1      46.116   0.855   8.880  0.00  0.00    +0.000 HD
ENDBRANCH   9  12
ENDBRANCH   7  10
ENDBRANCH   1   7
BRANCH   4  19
ATOM     19  C   UNL     1      46.201   8.667  13.012  0.00  0.00    +0.000 C 
BRANCH  19  20
ATOM     20  N   UNL     1      46.934   8.534  14.245  0.00  0.00    +0.000 N 
ATOM     21  C   UNL     1      48.288   8.322  14.260  0.00  0.00    +0.000 C 
ATOM     22  O   UNL     1      48.956   8.292  13.230  0.00  0.00    +0.000 OA
ATOM     23  H   UNL     1      46.389   8.318  15.074  0.00  0.00    +0.000 HD
BRANCH  21  24
ATOM     24  C   UNL     1      48.911   8.198  15.584  0.00  0.00    +0.000 A 
ATOM     25  C   UNL     1      48.834   6.997  16.277  0.00  0.00    +0.000 A 
ATOM     26  S   UNL     1      49.677   7.005  17.759  0.00  0.00    +0.000 S 
ATOM     27  C   UNL     1      50.130   8.633  17.555  0.00  0.00    +0.000 A 
ATOM     28  N   UNL     1      50.872   9.276  18.496  0.00  0.00    +0.000 NA
ATOM     29  C   UNL     1      51.114  10.516  18.229  0.00  0.00    +0.000 A 
ATOM     30  N   UNL     1      50.682  11.172  17.106  0.00  0.00    +0.000 N 
ATOM     31  C   UNL     1      49.950  10.557  16.119  0.00  0.00    +0.000 A 
ATOM     32  O   UNL     1      49.606  11.166  15.111  0.00  0.00    +0.000 OA
ATOM     33  C   UNL     1      49.650   9.161  16.370  0.00  0.00    +0.000 A 
ATOM     34  H   UNL     1      50.906  12.144  16.954  0.00  0.00    +0.000 HD
ENDBRANCH  21  24
ENDBRANCH  19  20
ENDBRANCH   4  19
TORSDOF 6
ENDMDL
MODEL 9
REMARK VINA RESULT:    -5.885      3.808      5.077
REMARK INTER + INTRA:          -8.978
REMARK INTER:                  -8.041
REMARK INTRA:                  -0.938
REMARK UNBOUND:                -1.029
REMARK  Name = 
REMARK  6 active torsions:
REMARK  status: ('A' for Active; 'I' for Inactive)
REMARK    1  A    between atoms: C_2  and  C_25
REMARK    2  A    between atoms: N_3  and  C_4
REMARK    3  A    between atoms: C_4  and  C_5
REMARK    4  A    between atoms: C_8  and  C_9
REMARK    5  A    between atoms: C_9  and  N_10
REMARK    6  A    between atoms: C_11  and  C_13
REMARK                            x       y       z     vdW  Elec       q    Type
REMARK                         _______ _______ _______ _____ _____    ______ ____
ROOT
ATOM      1  C   UNL     1      45.400   6.371  12.044  0.00  0.00    +0.000 A 
ATOM      2  C   UNL     1      46.780   6.124  12.023  0.00  0.00    +0.000 A 
ATOM      3  C   UNL     1      47.686   7.108  12.432  0.00  0.00    +0.000 A 
ATOM      4  C   UNL     1      47.231   8.351  12.891  0.00  0.00    +0.000 A 
ATOM      5  C   UNL     1      45.853   8.603  12.897  0.00  0.00    +0.000 A 
ATOM      6  C   UNL     1      44.946   7.620  12.488  0.00  0.00    +0.000 A 
ENDROOT
BRANCH   1   7
ATOM      7  C   UNL     1      44.422   5.302  11.637  0.00  0.00    +0.000 C 
BRANCH   7  10
ATOM      8  O   UNL     1      43.683   4.725   9.014  0.00  0.00    +0.000 OA
ATOM      9  C   UNL     1      44.624   4.107   9.505  0.00  0.00    +0.000 C 
ATOM     10  N   UNL     1      45.048   4.313  10.795  0.00  0.00    +0.000 N 
ATOM     11  H   UNL     1      45.883   3.856  11.130  0.00  0.00    +0.000 HD
BRANCH   9  12
ATOM     12  C   UNL     1      45.371   3.122   8.754  0.00  0.00    +0.000 A 
ATOM     13  C   UNL     1      45.407   1.734   8.804  0.00  0.00    +0.000 A 
ATOM     14  C   UNL     1      46.329   1.286   7.831  0.00  0.00    +0.000 A 
ATOM     15 CL   UNL     1      46.712  -0.338   7.526  0.00  0.00    +0.000 Cl
ATOM     16  C   UNL     1      46.839   2.391   7.198  0.00  0.00    +0.000 A 
ATOM     17  N   UNL     1      46.248   3.494   7.753  0.00  0.00    +0.000 N 
ATOM     18  H   UNL     1      46.418   4.459   7.489  0.00  0.00    +0.000 HD
ENDBRANCH   9  12
ENDBRANCH   7  10
ENDBRANCH   1   7
BRANCH   4  19
ATOM     19  C   UNL     1      48.202   9.420  13.326  0.00  0.00    +0.000 C 
BRANCH  19  20
ATOM     20  N   UNL     1      49.559   8.941  13.256  0.00  0.00    +0.000 N 
ATOM     21  C   UNL     1      50.601   9.647  13.797  0.00  0.00    +0.000 C 
ATOM     22  O   UNL     1      50.430  10.693  14.417  0.00  0.00    +0.000 OA
ATOM     23  H   UNL     1      49.750   8.227  12.562  0.00  0.00    +0.000 HD
BRANCH  21  24
ATOM     24  C   UNL     1      51.935   9.049  13.651  0.00  0.00    +0.000 A 
ATOM     25  C   UNL     1      52.670   8.710  14.780  0.00  0.00    +0.000 A 
ATOM     26  S   UNL     1      54.158   7.957  14.427  0.00  0.00    +0.000 S 
ATOM     27  C   UNL     1      53.900   8.107  12.752  0.00  0.00    +0.000 A 
ATOM     28  N   UNL     1      54.824   7.661  11.859  0.00  0.00    +0.000 NA
ATOM     29  C   UNL     1      54.514   7.868  10.622  0.00  0.00    +0.000 A 
ATOM     30  N   UNL     1      53.363   8.481  10.197  0.00  0.00    +0.000 N 
ATOM     31  C   UNL     1      52.393   8.926  11.062  0.00  0.00    +0.000 A 
ATOM     32  O   UNL     1      51.361   9.441  10.646  0.00  0.00    +0.000 OA
ATOM     33  C   UNL     1      52.691   8.717  12.466  0.00  0.00    +0.000 A 
ATOM     34  H   UNL     1      53.179   8.612   9.214  0.00  0.00    +0.000 HD
ENDBRANCH  21  24
ENDBRANCH  19  20
ENDBRANCH   4  19
TORSDOF 6
ENDMDL
