MODEL 1
REMARK VINA RESULT:    -7.685      0.000      0.000
REMARK INTER + INTRA:         -11.152
REMARK INTER:                  -9.932
REMARK INTRA:                  -1.220
REMARK UNBOUND:                -1.220
REMARK  Name = 
REMARK  6 active torsions:
REMARK  status: ('A' for Active; 'I' for Inactive)
REMARK    1  A    between atoms: C_1  and  N_2
REMARK    2  A    between atoms: N_2  and  C_3
REMARK    3  A    between atoms: C_3  and  C_4
REMARK    4  A    between atoms: C_7  and  O_8
REMARK    5  A    between atoms: O_8  and  C_9
REMARK    6  A    between atoms: C_17  and  C_19
REMARK                            x       y       z     vdW  Elec       q    Type
REMARK                         _______ _______ _______ _____ _____    ______ ____
ROOT
ATOM      1  C   UNL     1      45.941   8.557  12.361  0.00  0.00    +0.000 C 
ATOM      2  N   UNL     1      45.788   7.111  12.254  0.00  0.00    +0.000 N 
ATOM      3  C   UNL     1      44.577   6.673  11.686  0.00  0.00    +0.000 C 
ATOM      4  O   UNL     1      43.709   7.471  11.344  0.00  0.00    +0.000 OA
ENDROOT
BRANCH   3   5
ATOM      5  C   UNL     1      44.343   5.224  11.544  0.00  0.00    +0.000 A 
ATOM      6  C   UNL     1      43.641   4.454  12.452  0.00  0.00    +0.000 A 
ATOM      7  S   UNL     1      43.486   2.821  11.996  0.00  0.00    +0.000 S 
ATOM      8  C   UNL     1      44.252   3.115  10.509  0.00  0.00    +0.000 A 
ATOM      9  N   UNL     1      44.367   2.131   9.580  0.00  0.00    +0.000 NA
ATOM     10  C   UNL     1      44.933   2.503   8.483  0.00  0.00    +0.000 A 
ATOM     11  N   UNL     1      45.430   3.760   8.245  0.00  0.00    +0.000 N 
ATOM     12  C   UNL     1      45.449   4.755   9.202  0.00  0.00    +0.000 A 
ATOM     13  O   UNL     1      46.104   5.777   9.032  0.00  0.00    +0.000 OA
ATOM     14  C   UNL     1      44.711   4.418  10.405  0.00  0.00    +0.000 A 
ATOM     15  H   UNL     1      45.927   3.963   7.391  0.00  0.00    +0.000 HD
ENDBRANCH   3   5
BRANCH   2  16
ATOM     16  C   UNL     1      46.966   6.244  12.340  0.00  0.00    +0.000 C 
BRANCH  16  17
ATOM     17  C   UNL     1      47.374   5.794  13.712  0.00  0.00    +0.000 A 
ATOM     18  C   UNL     1      46.831   4.620  14.258  0.00  0.00    +0.000 A 
ATOM     19  C   UNL     1      47.187   4.224  15.543  0.00  0.00    +0.000 A 
ATOM     20  C   UNL     1      48.139   4.954  16.259  0.00  0.00    +0.000 A 
ATOM     21  C   UNL     1      48.659   6.138  15.722  0.00  0.00    +0.000 A 
ATOM     22  C   UNL     1      48.271   6.557  14.456  0.00  0.00    +0.000 A 
BRANCH  20  23
ATOM     23  O   UNL     1      48.588   4.618  17.517  0.00  0.00    +0.000 OA
BRANCH  23  24
ATOM     24  C   UNL     1      49.781   3.948  17.661  0.00  0.00    +0.000 A 
ATOM     25  C   UNL     1      50.954   4.521  18.152  0.00  0.00    +0.000 A 
ATOM     26  C   UNL     1      52.097   3.745  18.172  0.00  0.00    +0.000 A 
ATOM     27  N   UNL     1      52.127   2.449  17.806  0.00  0.00    +0.000 NA
ATOM     28  C   UNL     1      50.960   1.898  17.407  0.00  0.00    +0.000 A 
ATOM     29  C   UNL     1      49.771   2.602  17.318  0.00  0.00    +0.000 A 
ENDBRANCH  23  24
ENDBRANCH  20  23
ENDBRANCH  16  17
ENDBRANCH   2  16
TORSDOF 5
ENDMDL
MODEL 2
REMARK VINA RESULT:    -7.214      1.839      2.476
REMARK INTER + INTRA:         -10.543
REMARK INTER:                  -9.256
REMARK INTRA:                  -1.287
REMARK UNBOUND:                -1.220
REMARK  Name = 
REMARK  6 active torsions:
REMARK  status: ('A' for Active; 'I' for Inactive)
REMARK    1  A    between atoms: C_1  and  N_2
REMARK    2  A    between atoms: N_2  and  C_3
REMARK    3  A    between atoms: C_3  and  C_4
REMARK    4  A    between atoms: C_7  and  O_8
REMARK    5  A    between atoms: O_8  and  C_9
REMARK    6  A    between atoms: C_17  and  C_19
REMARK                            x       y       z     vdW  Elec       q    Type
REMARK                         _______ _______ _______ _____ _____    ______ ____
ROOT
ATOM      1  C   UNL     1      45.908   8.586  12.325  0.00  0.00    +0.000 C 
ATOM      2  N   UNL     1      45.765   7.138  12.228  0.00  0.00    +0.000 N 
ATOM      3  C   UNL     1      44.565   6.687  11.647  0.00  0.00    +0.000 C 
ATOM      4  O   UNL     1      43.697   7.477  11.287  0.00  0.00    +0.000 OA
ENDROOT
BRANCH   3   5
ATOM      5  C   UNL     1      44.343   5.236  11.514  0.00  0.00    +0.000 A 
ATOM      6  C   UNL     1      43.630   4.469  12.417  0.00  0.00    +0.000 A 
ATOM      7  S   UNL     1      43.493   2.831  11.972  0.00  0.00    +0.000 S 
ATOM      8  C   UNL     1      44.283   3.118  10.496  0.00  0.00    +0.000 A 
ATOM      9  N   UNL     1      44.419   2.126   9.577  0.00  0.00    +0.000 NA
ATOM     10  C   UNL     1      45.002   2.493   8.487  0.00  0.00    +0.000 A 
ATOM     11  N   UNL     1      45.494   3.751   8.246  0.00  0.00    +0.000 N 
ATOM     12  C   UNL     1      45.491   4.754   9.195  0.00  0.00    +0.000 A 
ATOM     13  O   UNL     1      46.143   5.779   9.027  0.00  0.00    +0.000 OA
ATOM     14  C   UNL     1      44.735   4.422  10.388  0.00  0.00    +0.000 A 
ATOM     15  H   UNL     1      46.005   3.950   7.399  0.00  0.00    +0.000 HD
ENDBRANCH   3   5
BRANCH   2  16
ATOM     16  C   UNL     1      46.948   6.279  12.337  0.00  0.00    +0.000 C 
BRANCH  16  17
ATOM     17  C   UNL     1      47.362   5.874  13.721  0.00  0.00    +0.000 A 
ATOM     18  C   UNL     1      48.301   6.641  14.428  0.00  0.00    +0.000 A 
ATOM     19  C   UNL     1      48.706   6.244  15.698  0.00  0.00    +0.000 A 
ATOM     20  C   UNL     1      48.124   5.124  16.298  0.00  0.00    +0.000 A 
ATOM     21  C   UNL     1      47.207   4.347  15.580  0.00  0.00    +0.000 A 
ATOM     22  C   UNL     1      46.834   4.720  14.295  0.00  0.00    +0.000 A 
BRANCH  20  23
ATOM     23  O   UNL     1      48.427   4.679  17.565  0.00  0.00    +0.000 OA
BRANCH  23  24
ATOM     24  C   UNL     1      48.470   5.571  18.611  0.00  0.00    +0.000 A 
ATOM     25  C   UNL     1      47.359   6.241  19.123  0.00  0.00    +0.000 A 
ATOM     26  C   UNL     1      47.564   7.166  20.129  0.00  0.00    +0.000 A 
ATOM     27  N   UNL     1      48.765   7.407  20.688  0.00  0.00    +0.000 NA
ATOM     28  C   UNL     1      49.812   6.688  20.226  0.00  0.00    +0.000 A 
ATOM     29  C   UNL     1      49.714   5.767  19.197  0.00  0.00    +0.000 A 
ENDBRANCH  23  24
ENDBRANCH  20  23
ENDBRANCH  16  17
ENDBRANCH   2  16
TORSDOF 5
ENDMDL
MODEL 3
REMARK VINA RESULT:    -7.101      1.353      2.227
REMARK INTER + INTRA:         -10.397
REMARK INTER:                  -9.143
REMARK INTRA:                  -1.254
REMARK UNBOUND:                -1.220
REMARK  Name = 
REMARK  6 active torsions:
REMARK  status: ('A' for Active; 'I' for Inactive)
REMARK    1  A    between atoms: C_1  and  N_2
REMARK    2  A    between atoms: N_2  and  C_3
REMARK    3  A    between atoms: C_3  and  C_4
REMARK    4  A    between atoms: C_7  and  O_8
REMARK    5  A    between atoms: O_8  and  C_9
REMARK    6  A    between atoms: C_17  and  C_19
REMARK                            x       y       z     vdW  Elec       q    Type
REMARK                         _______ _______ _______ _____ _____    ______ ____
ROOT
ATOM      1  C   UNL     1      46.130   8.798  13.102  0.00  0.00    +0.000 C 
ATOM      2  N   UNL     1      46.083   7.488  12.462  0.00  0.00    +0.000 N 
ATOM      3  C   UNL     1      45.056   7.316  11.515  0.00  0.00    +0.000 C 
ATOM      4  O   UNL     1      44.246   8.209  11.286  0.00  0.00    +0.000 OA
ENDROOT
BRANCH   3   5
ATOM      5  C   UNL     1      44.939   6.019  10.825  0.00  0.00    +0.000 A 
ATOM      6  C   UNL     1      45.500   5.736   9.594  0.00  0.00    +0.000 A 
ATOM      7  S   UNL     1      45.244   4.136   9.070  0.00  0.00    +0.000 S 
ATOM      8  C   UNL     1      44.473   3.734  10.529  0.00  0.00    +0.000 A 
ATOM      9  N   UNL     1      44.075   2.458  10.775  0.00  0.00    +0.000 NA
ATOM     10  C   UNL     1      43.541   2.287  11.937  0.00  0.00    +0.000 A 
ATOM     11  N   UNL     1      43.334   3.281  12.860  0.00  0.00    +0.000 N 
ATOM     12  C   UNL     1      43.607   4.610  12.606  0.00  0.00    +0.000 A 
ATOM     13  O   UNL     1      43.196   5.490  13.355  0.00  0.00    +0.000 OA
ATOM     14  C   UNL     1      44.323   4.829  11.362  0.00  0.00    +0.000 A 
ATOM     15  H   UNL     1      42.844   3.090  13.720  0.00  0.00    +0.000 HD
ENDBRANCH   3   5
BRANCH   2  16
ATOM     16  C   UNL     1      47.256   6.612  12.506  0.00  0.00    +0.000 C 
BRANCH  16  17
ATOM     17  C   UNL     1      47.598   6.008  13.836  0.00  0.00    +0.000 A 
ATOM     18  C   UNL     1      46.949   4.840  14.266  0.00  0.00    +0.000 A 
ATOM     19  C   UNL     1      47.245   4.302  15.514  0.00  0.00    +0.000 A 
ATOM     20  C   UNL     1      48.240   4.882  16.306  0.00  0.00    +0.000 A 
ATOM     21  C   UNL     1      48.867   6.061  15.886  0.00  0.00    +0.000 A 
ATOM     22  C   UNL     1      48.540   6.623  14.658  0.00  0.00    +0.000 A 
BRANCH  20  23
ATOM     23  O   UNL     1      48.634   4.398  17.534  0.00  0.00    +0.000 OA
BRANCH  23  24
ATOM     24  C   UNL     1      49.799   3.674  17.641  0.00  0.00    +0.000 A 
ATOM     25  C   UNL     1      49.975   2.383  17.142  0.00  0.00    +0.000 A 
ATOM     26  C   UNL     1      51.178   1.750  17.388  0.00  0.00    +0.000 A 
ATOM     27  N   UNL     1      52.213   2.333  18.023  0.00  0.00    +0.000 NA
ATOM     28  C   UNL     1      52.042   3.611  18.427  0.00  0.00    +0.000 A 
ATOM     29  C   UNL     1      50.863   4.317  18.261  0.00  0.00    +0.000 A 
ENDBRANCH  23  24
ENDBRANCH  20  23
ENDBRANCH  16  17
ENDBRANCH   2  16
TORSDOF 5
ENDMDL
MODEL 4
REMARK VINA RESULT:    -6.766      3.112      8.350
REMARK INTER + INTRA:          -9.963
REMARK INTER:                  -8.825
REMARK INTRA:                  -1.138
REMARK UNBOUND:                -1.220
REMARK  Name = 
REMARK  6 active torsions:
REMARK  status: ('A' for Active; 'I' for Inactive)
REMARK    1  A    between atoms: C_1  and  N_2
REMARK    2  A    between atoms: N_2  and  C_3
REMARK    3  A    between atoms: C_3  and  C_4
REMARK    4  A    between atoms: C_7  and  O_8
REMARK    5  A    between atoms: O_8  and  C_9
REMARK    6  A    between atoms: C_17  and  C_19
REMARK                            x       y       z     vdW  Elec       q    Type
REMARK                         _______ _______ _______ _____ _____    ______ ____
ROOT
ATOM      1  C   UNL     1      49.573   7.739  12.973  0.00  0.00    +0.000 C 
ATOM      2  N   UNL     1      48.746   7.167  14.029  0.00  0.00    +0.000 N 
ATOM      3  C   UNL     1      49.433   6.792  15.198  0.00  0.00    +0.000 C 
ATOM      4  O   UNL     1      50.651   6.915  15.286  0.00  0.00    +0.000 OA
ENDROOT
BRANCH   3   5
ATOM      5  C   UNL     1      48.668   6.204  16.312  0.00  0.00    +0.000 A 
ATOM      6  C   UNL     1      48.215   4.898  16.344  0.00  0.00    +0.000 A 
ATOM      7  S   UNL     1      47.408   4.484  17.785  0.00  0.00    +0.000 S 
ATOM      8  C   UNL     1      47.742   6.005  18.464  0.00  0.00    +0.000 A 
ATOM      9  N   UNL     1      47.396   6.284  19.747  0.00  0.00    +0.000 NA
ATOM     10  C   UNL     1      47.746   7.459  20.145  0.00  0.00    +0.000 A 
ATOM     11  N   UNL     1      48.377   8.396  19.365  0.00  0.00    +0.000 N 
ATOM     12  C   UNL     1      48.635   8.204  18.022  0.00  0.00    +0.000 A 
ATOM     13  O   UNL     1      48.982   9.140  17.310  0.00  0.00    +0.000 OA
ATOM     14  C   UNL     1      48.371   6.852  17.567  0.00  0.00    +0.000 A 
ATOM     15  H   UNL     1      48.556   9.323  19.718  0.00  0.00    +0.000 HD
ENDBRANCH   3   5
BRANCH   2  16
ATOM     16  C   UNL     1      47.295   7.372  14.011  0.00  0.00    +0.000 C 
BRANCH  16  17
ATOM     17  C   UNL     1      46.515   6.590  12.994  0.00  0.00    +0.000 A 
ATOM     18  C   UNL     1      46.004   7.231  11.855  0.00  0.00    +0.000 A 
ATOM     19  C   UNL     1      45.254   6.509  10.932  0.00  0.00    +0.000 A 
ATOM     20  C   UNL     1      45.073   5.134  11.102  0.00  0.00    +0.000 A 
ATOM     21  C   UNL     1      45.562   4.504  12.253  0.00  0.00    +0.000 A 
ATOM     22  C   UNL     1      46.275   5.233  13.196  0.00  0.00    +0.000 A 
BRANCH  20  23
ATOM     23  O   UNL     1      44.386   4.327  10.222  0.00  0.00    +0.000 OA
BRANCH  23  24
ATOM     24  C   UNL     1      45.077   3.580   9.297  0.00  0.00    +0.000 A 
ATOM     25  C   UNL     1      45.141   2.187   9.297  0.00  0.00    +0.000 A 
ATOM     26  C   UNL     1      45.935   1.573   8.348  0.00  0.00    +0.000 A 
ATOM     27  N   UNL     1      46.597   2.239   7.383  0.00  0.00    +0.000 NA
ATOM     28  C   UNL     1      46.455   3.583   7.359  0.00  0.00    +0.000 A 
ATOM     29  C   UNL     1      45.713   4.292   8.288  0.00  0.00    +0.000 A 
ENDBRANCH  23  24
ENDBRANCH  20  23
ENDBRANCH  16  17
ENDBRANCH   2  16
TORSDOF 5
ENDMDL
MODEL 5
REMARK VINA RESULT:    -6.670      3.264      8.219
REMARK INTER + INTRA:          -9.840
REMARK INTER:                  -8.735
REMARK INTRA:                  -1.105
REMARK UNBOUND:                -1.220
REMARK  Name = 
REMARK  6 active torsions:
REMARK  status: ('A' for Active; 'I' for Inactive)
REMARK    1  A    between atoms: C_1  and  N_2
REMARK    2  A    between atoms: N_2  and  C_3
REMARK    3  A    between atoms: C_3  and  C_4
REMARK    4  A    between atoms: C_7  and  O_8
REMARK    5  A    between atoms: O_8  and  C_9
REMARK    6  A    between atoms: C_17  and  C_19
REMARK                            x       y       z     vdW  Elec       q    Type
REMARK                         _______ _______ _______ _____ _____    ______ ____
ROOT
ATOM      1  C   UNL     1      49.730   7.434  12.695  0.00  0.00    +0.000 C 
ATOM      2  N   UNL     1      49.042   7.650  13.963  0.00  0.00    +0.000 N 
ATOM      3  C   UNL     1      49.873   7.954  15.057  0.00  0.00    +0.000 C 
ATOM      4  O   UNL     1      51.094   7.994  14.936  0.00  0.00    +0.000 OA
ENDROOT
BRANCH   3   5
ATOM      5  C   UNL     1      49.255   8.185  16.375  0.00  0.00    +0.000 A 
ATOM      6  C   UNL     1      49.072   9.431  16.944  0.00  0.00    +0.000 A 
ATOM      7  S   UNL     1      48.280   9.391  18.451  0.00  0.00    +0.000 S 
ATOM      8  C   UNL     1      48.051   7.712  18.337  0.00  0.00    +0.000 A 
ATOM      9  N   UNL     1      47.343   7.043  19.284  0.00  0.00    +0.000 NA
ATOM     10  C   UNL     1      47.212   5.781  19.052  0.00  0.00    +0.000 A 
ATOM     11  N   UNL     1      47.757   5.121  17.980  0.00  0.00    +0.000 N 
ATOM     12  C   UNL     1      48.587   5.733  17.062  0.00  0.00    +0.000 A 
ATOM     13  O   UNL     1      49.237   5.070  16.262  0.00  0.00    +0.000 OA
ATOM     14  C   UNL     1      48.658   7.175  17.215  0.00  0.00    +0.000 A 
ATOM     15  H   UNL     1      47.677   4.118  17.898  0.00  0.00    +0.000 HD
ENDBRANCH   3   5
BRANCH   2  16
ATOM     16  C   UNL     1      47.605   7.939  13.973  0.00  0.00    +0.000 C 
BRANCH  16  17
ATOM     17  C   UNL     1      46.736   7.068  13.115  0.00  0.00    +0.000 A 
ATOM     18  C   UNL     1      46.707   5.680  13.323  0.00  0.00    +0.000 A 
ATOM     19  C   UNL     1      45.924   4.872  12.505  0.00  0.00    +0.000 A 
ATOM     20  C   UNL     1      45.113   5.450  11.524  0.00  0.00    +0.000 A 
ATOM     21  C   UNL     1      45.165   6.831  11.302  0.00  0.00    +0.000 A 
ATOM     22  C   UNL     1      45.979   7.633  12.091  0.00  0.00    +0.000 A 
BRANCH  20  23
ATOM     23  O   UNL     1      44.273   4.740  10.696  0.00  0.00    +0.000 OA
BRANCH  23  24
ATOM     24  C   UNL     1      44.802   3.892   9.750  0.00  0.00    +0.000 A 
ATOM     25  C   UNL     1      44.621   2.508   9.742  0.00  0.00    +0.000 A 
ATOM     26  C   UNL     1      45.273   1.774   8.770  0.00  0.00    +0.000 A 
ATOM     27  N   UNL     1      46.019   2.323   7.793  0.00  0.00    +0.000 NA
ATOM     28  C   UNL     1      46.114   3.671   7.780  0.00  0.00    +0.000 A 
ATOM     29  C   UNL     1      45.529   4.490   8.729  0.00  0.00    +0.000 A 
ENDBRANCH  23  24
ENDBRANCH  20  23
ENDBRANCH  16  17
ENDBRANCH   2  16
TORSDOF 5
ENDMDL
MODEL 6
REMARK VINA RESULT:    -6.338      3.650      5.185
REMARK INTER + INTRA:          -9.411
REMARK INTER:                  -8.674
REMARK INTRA:                  -0.737
REMARK UNBOUND:                -1.220
REMARK  Name = 
REMARK  6 active torsions:
REMARK  status: ('A' for Active; 'I' for Inactive)
REMARK    1  A    between atoms: C_1  and  N_2
REMARK    2  A    between atoms: N_2  and  C_3
REMARK    3  A    between atoms: C_3  and  C_4
REMARK    4  A    between atoms: C_7  and  O_8
REMARK    5  A    between atoms: O_8  and  C_9
REMARK    6  A    between atoms: C_17  and  C_19
REMARK                            x       y       z     vdW  Elec       q    Type
REMARK                         _______ _______ _______ _____ _____    ______ ____
ROOT
ATOM      1  C   UNL     1      45.417   8.649  12.683  0.00  0.00    +0.000 C 
ATOM      2  N   UNL     1      45.351   7.196  12.578  0.00  0.00    +0.000 N 
ATOM      3  C   UNL     1      44.366   6.697  11.705  0.00  0.00    +0.000 C 
ATOM      4  O   UNL     1      43.604   7.453  11.109  0.00  0.00    +0.000 OA
ENDROOT
BRANCH   3   5
ATOM      5  C   UNL     1      44.233   5.238  11.545  0.00  0.00    +0.000 A 
ATOM      6  C   UNL     1      43.526   4.420  12.406  0.00  0.00    +0.000 A 
ATOM      7  S   UNL     1      43.502   2.783  11.936  0.00  0.00    +0.000 S 
ATOM      8  C   UNL     1      44.338   3.135  10.501  0.00  0.00    +0.000 A 
ATOM      9  N   UNL     1      44.571   2.166   9.578  0.00  0.00    +0.000 NA
ATOM     10  C   UNL     1      45.179   2.580   8.519  0.00  0.00    +0.000 A 
ATOM     11  N   UNL     1      45.610   3.867   8.315  0.00  0.00    +0.000 N 
ATOM     12  C   UNL     1      45.507   4.855   9.274  0.00  0.00    +0.000 A 
ATOM     13  O   UNL     1      46.107   5.917   9.148  0.00  0.00    +0.000 OA
ATOM     14  C   UNL     1      44.719   4.464  10.429  0.00  0.00    +0.000 A 
ATOM     15  H   UNL     1      46.144   4.106   7.494  0.00  0.00    +0.000 HD
ENDBRANCH   3   5
BRANCH   2  16
ATOM     16  C   UNL     1      46.486   6.380  13.018  0.00  0.00    +0.000 C 
BRANCH  16  17
ATOM     17  C   UNL     1      47.853   6.965  12.819  0.00  0.00    +0.000 A 
ATOM     18  C   UNL     1      48.734   7.080  13.906  0.00  0.00    +0.000 A 
ATOM     19  C   UNL     1      49.989   7.652  13.724  0.00  0.00    +0.000 A 
ATOM     20  C   UNL     1      50.399   8.044  12.446  0.00  0.00    +0.000 A 
ATOM     21  C   UNL     1      49.509   7.951  11.369  0.00  0.00    +0.000 A 
ATOM     22  C   UNL     1      48.240   7.419  11.560  0.00  0.00    +0.000 A 
BRANCH  20  23
ATOM     23  O   UNL     1      51.635   8.578  12.158  0.00  0.00    +0.000 OA
BRANCH  23  24
ATOM     24  C   UNL     1      52.176   8.411  10.904  0.00  0.00    +0.000 A 
ATOM     25  C   UNL     1      52.443   7.173  10.319  0.00  0.00    +0.000 A 
ATOM     26  C   UNL     1      53.056   7.159   9.081  0.00  0.00    +0.000 A 
ATOM     27  N   UNL     1      53.351   8.271   8.380  0.00  0.00    +0.000 NA
ATOM     28  C   UNL     1      53.012   9.454   8.938  0.00  0.00    +0.000 A 
ATOM     29  C   UNL     1      52.428   9.574  10.187  0.00  0.00    +0.000 A 
ENDBRANCH  23  24
ENDBRANCH  20  23
ENDBRANCH  16  17
ENDBRANCH   2  16
TORSDOF 5
ENDMDL
MODEL 7
REMARK VINA RESULT:    -6.330      2.300      8.275
REMARK INTER + INTRA:          -9.400
REMARK INTER:                  -8.303
REMARK INTRA:                  -1.097
REMARK UNBOUND:                -1.220
REMARK  Name = 
REMARK  6 active torsions:
REMARK  status: ('A' for Active; 'I' for Inactive)
REMARK    1  A    between atoms: C_1  and  N_2
REMARK    2  A    between atoms: N_2  and  C_3
REMARK    3  A    between atoms: C_3  and  C_4
REMARK    4  A    between atoms: C_7  and  O_8
REMARK    5  A    between atoms: O_8  and  C_9
REMARK    6  A    between atoms: C_17  and  C_19
REMARK                            x       y       z     vdW  Elec       q    Type
REMARK                         _______ _______ _______ _____ _____    ______ ____
ROOT
ATOM      1  C   UNL     1      48.361   8.833  15.667  0.00  0.00    +0.000 C 
ATOM      2  N   UNL     1      48.824   7.457  15.806  0.00  0.00    +0.000 N 
ATOM      3  C   UNL     1      48.586   6.864  17.060  0.00  0.00    +0.000 C 
ATOM      4  O   UNL     1      48.055   7.493  17.970  0.00  0.00    +0.000 OA
ENDROOT
BRANCH   3   5
ATOM      5  C   UNL     1      49.026   5.475  17.281  0.00  0.00    +0.000 A 
ATOM      6  C   UNL     1      48.200   4.370  17.189  0.00  0.00    +0.000 A 
ATOM      7  S   UNL     1      49.000   2.888  17.444  0.00  0.00    +0.000 S 
ATOM      8  C   UNL     1      50.503   3.669  17.570  0.00  0.00    +0.000 A 
ATOM      9  N   UNL     1      51.649   2.951  17.706  0.00  0.00    +0.000 NA
ATOM     10  C   UNL     1      52.719   3.669  17.749  0.00  0.00    +0.000 A 
ATOM     11  N   UNL     1      52.746   5.040  17.707  0.00  0.00    +0.000 N 
ATOM     12  C   UNL     1      51.604   5.814  17.695  0.00  0.00    +0.000 A 
ATOM     13  O   UNL     1      51.662   7.023  17.892  0.00  0.00    +0.000 OA
ATOM     14  C   UNL     1      50.384   5.047  17.520  0.00  0.00    +0.000 A 
ATOM     15  H   UNL     1      53.615   5.541  17.819  0.00  0.00    +0.000 HD
ENDBRANCH   3   5
BRANCH   2  16
ATOM     16  C   UNL     1      49.115   6.662  14.611  0.00  0.00    +0.000 C 
BRANCH  16  17
ATOM     17  C   UNL     1      47.965   6.386  13.687  0.00  0.00    +0.000 A 
ATOM     18  C   UNL     1      47.786   7.167  12.534  0.00  0.00    +0.000 A 
ATOM     19  C   UNL     1      46.700   6.930  11.698  0.00  0.00    +0.000 A 
ATOM     20  C   UNL     1      45.831   5.869  11.967  0.00  0.00    +0.000 A 
ATOM     21  C   UNL     1      45.997   5.108  13.131  0.00  0.00    +0.000 A 
ATOM     22  C   UNL     1      47.058   5.373  13.988  0.00  0.00    +0.000 A 
BRANCH  20  23
ATOM     23  O   UNL     1      44.756   5.527  11.177  0.00  0.00    +0.000 OA
BRANCH  23  24
ATOM     24  C   UNL     1      44.882   4.520  10.248  0.00  0.00    +0.000 A 
ATOM     25  C   UNL     1      44.364   3.234  10.405  0.00  0.00    +0.000 A 
ATOM     26  C   UNL     1      44.632   2.302   9.420  0.00  0.00    +0.000 A 
ATOM     27  N   UNL     1      45.307   2.582   8.290  0.00  0.00    +0.000 NA
ATOM     28  C   UNL     1      45.732   3.855   8.129  0.00  0.00    +0.000 A 
ATOM     29  C   UNL     1      45.545   4.850   9.073  0.00  0.00    +0.000 A 
ENDBRANCH  23  24
ENDBRANCH  20  23
ENDBRANCH  16  17
ENDBRANCH   2  16
TORSDOF 5
ENDMDL
MODEL 8
REMARK VINA RESULT:    -6.279      2.943      7.795
REMARK INTER + INTRA:          -9.335
REMARK INTER:                  -7.980
REMARK INTRA:                  -1.355
REMARK UNBOUND:                -1.220
REMARK  Name = 
REMARK  6 active torsions:
REMARK  status: ('A' for Active; 'I' for Inactive)
REMARK    1  A    between atoms: C_1  and  N_2
REMARK    2  A    between atoms: N_2  and  C_3
REMARK    3  A    between atoms: C_3  and  C_4
REMARK    4  A    between atoms: C_7  and  O_8
REMARK    5  A    between atoms: O_8  and  C_9
REMARK    6  A    between atoms: C_17  and  C_19
REMARK                            x       y       z     vdW  Elec       q    Type
REMARK                         _______ _______ _______ _____ _____    ______ ____
ROOT
ATOM      1  C   UNL     1      47.860   9.386  17.422  0.00  0.00    +0.000 C 
ATOM      2  N   UNL     1      48.851   8.357  17.130  0.00  0.00    +0.000 N 
ATOM      3  C   UNL     1      48.858   7.258  18.009  0.00  0.00    +0.000 C 
ATOM      4  O   UNL     1      48.095   7.207  18.969  0.00  0.00    +0.000 OA
ENDROOT
BRANCH   3   5
ATOM      5  C   UNL     1      49.831   6.174  17.783  0.00  0.00    +0.000 A 
ATOM      6  C   UNL     1      51.189   6.282  18.023  0.00  0.00    +0.000 A 
ATOM      7  S   UNL     1      52.058   4.849  17.721  0.00  0.00    +0.000 S 
ATOM      8  C   UNL     1      50.628   4.002  17.371  0.00  0.00    +0.000 A 
ATOM      9  N   UNL     1      50.657   2.668  17.112  0.00  0.00    +0.000 NA
ATOM     10  C   UNL     1      49.497   2.145  16.903  0.00  0.00    +0.000 A 
ATOM     11  N   UNL     1      48.314   2.841  16.891  0.00  0.00    +0.000 N 
ATOM     12  C   UNL     1      48.248   4.214  17.023  0.00  0.00    +0.000 A 
ATOM     13  O   UNL     1      47.211   4.819  16.775  0.00  0.00    +0.000 OA
ATOM     14  C   UNL     1      49.515   4.824  17.385  0.00  0.00    +0.000 A 
ATOM     15  H   UNL     1      47.450   2.382  16.648  0.00  0.00    +0.000 HD
ENDBRANCH   3   5
BRANCH   2  16
ATOM     16  C   UNL     1      49.470   8.296  15.803  0.00  0.00    +0.000 C 
BRANCH  16  17
ATOM     17  C   UNL     1      48.587   7.877  14.665  0.00  0.00    +0.000 A 
ATOM     18  C   UNL     1      48.664   6.571  14.158  0.00  0.00    +0.000 A 
ATOM     19  C   UNL     1      47.867   6.196  13.082  0.00  0.00    +0.000 A 
ATOM     20  C   UNL     1      46.938   7.097  12.555  0.00  0.00    +0.000 A 
ATOM     21  C   UNL     1      46.881   8.407  13.046  0.00  0.00    +0.000 A 
ATOM     22  C   UNL     1      47.708   8.794  14.092  0.00  0.00    +0.000 A 
BRANCH  20  23
ATOM     23  O   UNL     1      46.075   6.806  11.521  0.00  0.00    +0.000 OA
BRANCH  23  24
ATOM     24  C   UNL     1      45.083   5.870  11.702  0.00  0.00    +0.000 A 
ATOM     25  C   UNL     1      44.325   5.739  12.866  0.00  0.00    +0.000 A 
ATOM     26  C   UNL     1      43.411   4.705  12.932  0.00  0.00    +0.000 A 
ATOM     27  N   UNL     1      43.165   3.859  11.914  0.00  0.00    +0.000 NA
ATOM     28  C   UNL     1      43.859   4.057  10.772  0.00  0.00    +0.000 A 
ATOM     29  C   UNL     1      44.820   5.040  10.619  0.00  0.00    +0.000 A 
ENDBRANCH  23  24
ENDBRANCH  20  23
ENDBRANCH  16  17
ENDBRANCH   2  16
TORSDOF 5
ENDMDL
MODEL 9
REMARK VINA RESULT:    -5.843      3.167      8.633
REMARK INTER + INTRA:          -8.771
REMARK INTER:                  -7.948
REMARK INTRA:                  -0.823
REMARK UNBOUND:                -1.220
REMARK  Name = 
REMARK  6 active torsions:
REMARK  status: ('A' for Active; 'I' for Inactive)
REMARK    1  A    between atoms: C_1  and  N_2
REMARK    2  A    between atoms: N_2  and  C_3
REMARK    3  A    between atoms: C_3  and  C_4
REMARK    4  A    between atoms: C_7  and  O_8
REMARK    5  A    between atoms: O_8  and  C_9
REMARK    6  A    between atoms: C_17  and  C_19
REMARK                            x       y       z     vdW  Elec       q    Type
REMARK                         _______ _______ _______ _____ _____    ______ ____
ROOT
ATOM      1  C   UNL     1      47.457   6.760  18.761  0.00  0.00    +0.000 C 
ATOM      2  N   UNL     1      48.771   6.344  18.284  0.00  0.00    +0.000 N 
ATOM      3  C   UNL     1      49.415   5.366  19.065  0.00  0.00    +0.000 C 
ATOM      4  O   UNL     1      48.901   4.934  20.093  0.00  0.00    +0.000 OA
ENDROOT
BRANCH   3   5
ATOM      5  C   UNL     1      50.748   4.893  18.652  0.00  0.00    +0.000 A 
ATOM      6  C   UNL     1      51.913   5.623  18.791  0.00  0.00    +0.000 A 
ATOM      7  S   UNL     1      53.310   4.797  18.275  0.00  0.00    +0.000 S 
ATOM      8  C   UNL     1      52.415   3.388  17.958  0.00  0.00    +0.000 A 
ATOM      9  N   UNL     1      53.036   2.246  17.564  0.00  0.00    +0.000 NA
ATOM     10  C   UNL     1      52.241   1.244  17.397  0.00  0.00    +0.000 A 
ATOM     11  N   UNL     1      50.878   1.290  17.552  0.00  0.00    +0.000 N 
ATOM     12  C   UNL     1      50.192   2.455  17.829  0.00  0.00    +0.000 A 
ATOM     13  O   UNL     1      48.971   2.503  17.729  0.00  0.00    +0.000 OA
ATOM     14  C   UNL     1      51.057   3.577  18.146  0.00  0.00    +0.000 A 
ATOM     15  H   UNL     1      50.309   0.486  17.335  0.00  0.00    +0.000 HD
ENDBRANCH   3   5
BRANCH   2  16
ATOM     16  C   UNL     1      49.165   6.617  16.900  0.00  0.00    +0.000 C 
BRANCH  16  17
ATOM     17  C   UNL     1      48.390   5.913  15.826  0.00  0.00    +0.000 A 
ATOM     18  C   UNL     1      48.271   6.488  14.551  0.00  0.00    +0.000 A 
ATOM     19  C   UNL     1      47.524   5.847  13.568  0.00  0.00    +0.000 A 
ATOM     20  C   UNL     1      46.955   4.598  13.827  0.00  0.00    +0.000 A 
ATOM     21  C   UNL     1      47.054   4.039  15.107  0.00  0.00    +0.000 A 
ATOM     22  C   UNL     1      47.763   4.700  16.102  0.00  0.00    +0.000 A 
BRANCH  20  23
ATOM     23  O   UNL     1      46.237   3.867  12.907  0.00  0.00    +0.000 OA
BRANCH  23  24
ATOM     24  C   UNL     1      45.070   4.378  12.389  0.00  0.00    +0.000 A 
ATOM     25  C   UNL     1      44.869   4.675  11.040  0.00  0.00    +0.000 A 
ATOM     26  C   UNL     1      43.669   5.253  10.674  0.00  0.00    +0.000 A 
ATOM     27  N   UNL     1      42.658   5.484  11.533  0.00  0.00    +0.000 NA
ATOM     28  C   UNL     1      42.851   5.116  12.819  0.00  0.00    +0.000 A 
ATOM     29  C   UNL     1      44.030   4.564  13.290  0.00  0.00    +0.000 A 
ENDBRANCH  23  24
ENDBRANCH  20  23
ENDBRANCH  16  17
ENDBRANCH   2  16
TORSDOF 5
ENDMDL
