MODEL 1
REMARK VINA RESULT:    -8.938      0.000      0.000
REMARK INTER + INTRA:         -11.273
REMARK INTER:                 -11.028
REMARK INTRA:                  -0.245
REMARK UNBOUND:                -0.245
REMARK  Name = 
REMARK  4 active torsions:
REMARK  status: ('A' for Active; 'I' for Inactive)
REMARK    1  A    between atoms: C_2  and  C_4
REMARK    2  A    between atoms: N_8  and  C_9
REMARK    3  A    between atoms: C_9  and  C_10
REMARK    4  A    between atoms: C_13  and  C_14
REMARK                            x       y       z     vdW  Elec       q    Type
REMARK                         _______ _______ _______ _____ _____    ______ ____
ROOT
ATOM      1  C   UNL     1      42.628   4.900  12.369  0.00  0.00    +0.000 C 
ENDROOT
BRANCH   1   6
ATOM      2  C   UNL     1      47.356   6.431  13.326  0.00  0.00    +0.000 A 
ATOM      3  C   UNL     1      46.717   5.256  13.708  0.00  0.00    +0.000 A 
ATOM      4  C   UNL     1      45.341   5.137  13.512  0.00  0.00    +0.000 A 
ATOM      5  C   UNL     1      44.630   6.177  12.917  0.00  0.00    +0.000 A 
ATOM      6  N   UNL     1      43.253   6.153  12.758  0.00  0.00    +0.000 N 
ATOM      7  N   UNL     1      45.242   7.316  12.539  0.00  0.00    +0.000 NA
ATOM      8  C   UNL     1      46.579   7.429  12.762  0.00  0.00    +0.000 A 
ATOM      9  H   UNL     1      43.007   6.938  12.157  0.00  0.00    +0.000 HD
BRANCH   2  11
ATOM     10  N   UNL     1      49.551   6.978  12.442  0.00  0.00    +0.000 N 
ATOM     11  C   UNL     1      48.799   6.663  13.540  0.00  0.00    +0.000 C 
ATOM     12  O   UNL     1      49.300   6.603  14.654  0.00  0.00    +0.000 OA
ATOM     13  H   UNL     1      50.520   7.221  12.613  0.00  0.00    +0.000 HD
ATOM     14  H   UNL     1      49.146   7.267  11.563  0.00  0.00    +0.000 HD
ENDBRANCH   2  11
ENDBRANCH   1   6
BRANCH   1  15
ATOM     15  C   UNL     1      43.379   4.246  11.226  0.00  0.00    +0.000 A 
ATOM     16  C   UNL     1      43.730   2.902  11.290  0.00  0.00    +0.000 A 
ATOM     17  C   UNL     1      44.502   2.353  10.265  0.00  0.00    +0.000 A 
ATOM     18  C   UNL     1      44.899   3.131   9.168  0.00  0.00    +0.000 A 
ATOM     19  C   UNL     1      44.442   4.451   9.179  0.00  0.00    +0.000 A 
ATOM     20  N   UNL     1      43.710   5.024  10.169  0.00  0.00    +0.000 NA
BRANCH  18  21
ATOM     21  C   UNL     1      45.755   2.597   8.084  0.00  0.00    +0.000 A 
ATOM     22  C   UNL     1      46.324   1.309   8.166  0.00  0.00    +0.000 A 
ATOM     23  C   UNL     1      47.131   0.790   7.146  0.00  0.00    +0.000 A 
ATOM     24  C   UNL     1      47.379   1.549   6.008  0.00  0.00    +0.000 A 
ATOM     25  C   UNL     1      46.822   2.816   5.906  0.00  0.00    +0.000 A 
ATOM     26  F   UNL     1      47.051   3.547   4.807  0.00  0.00    +0.000 F 
ATOM     27  C   UNL     1      46.028   3.341   6.924  0.00  0.00    +0.000 A 
ENDBRANCH  18  21
ENDBRANCH   1  15
TORSDOF 4
ENDMDL
MODEL 2
REMARK VINA RESULT:    -8.745      4.115      7.577
REMARK INTER + INTRA:         -11.035
REMARK INTER:                 -10.335
REMARK INTRA:                  -0.700
REMARK UNBOUND:                -0.245
REMARK  Name = 
REMARK  4 active torsions:
REMARK  status: ('A' for Active; 'I' for Inactive)
REMARK    1  A    between atoms: C_2  and  C_4
REMARK    2  A    between atoms: N_8  and  C_9
REMARK    3  A    between atoms: C_9  and  C_10
REMARK    4  A    between atoms: C_13  and  C_14
REMARK                            x       y       z     vdW  Elec       q    Type
REMARK                         _______ _______ _______ _____ _____    ______ ____
ROOT
ATOM      1  C   UNL     1      44.026   5.691  10.640  0.00  0.00    +0.000 C 
ENDROOT
BRANCH   1   6
ATOM      2  C   UNL     1      46.423   2.305   7.741  0.00  0.00    +0.000 A 
ATOM      3  C   UNL     1      46.327   3.683   7.587  0.00  0.00    +0.000 A 
ATOM      4  C   UNL     1      45.437   4.396   8.391  0.00  0.00    +0.000 A 
ATOM      5  C   UNL     1      44.678   3.729   9.349  0.00  0.00    +0.000 A 
ATOM      6  N   UNL     1      43.724   4.364  10.130  0.00  0.00    +0.000 N 
ATOM      7  N   UNL     1      44.768   2.394   9.509  0.00  0.00    +0.000 NA
ATOM      8  C   UNL     1      45.620   1.708   8.699  0.00  0.00    +0.000 A 
ATOM      9  H   UNL     1      43.439   3.703  10.852  0.00  0.00    +0.000 HD
BRANCH   2  11
ATOM     10  N   UNL     1      48.338   2.087   6.263  0.00  0.00    +0.000 N 
ATOM     11  C   UNL     1      47.302   1.465   6.902  0.00  0.00    +0.000 C 
ATOM     12  O   UNL     1      47.129   0.258   6.801  0.00  0.00    +0.000 OA
ATOM     13  H   UNL     1      48.985   1.488   5.762  0.00  0.00    +0.000 HD
ATOM     14  H   UNL     1      48.654   3.016   6.503  0.00  0.00    +0.000 HD
ENDBRANCH   2  11
ENDBRANCH   1   6
BRANCH   1  15
ATOM     15  C   UNL     1      44.932   5.618  11.853  0.00  0.00    +0.000 A 
ATOM     16  C   UNL     1      46.052   6.436  11.948  0.00  0.00    +0.000 A 
ATOM     17  C   UNL     1      46.917   6.279  13.032  0.00  0.00    +0.000 A 
ATOM     18  C   UNL     1      46.653   5.332  14.032  0.00  0.00    +0.000 A 
ATOM     19  C   UNL     1      45.471   4.606  13.865  0.00  0.00    +0.000 A 
ATOM     20  N   UNL     1      44.619   4.716  12.813  0.00  0.00    +0.000 NA
BRANCH  18  21
ATOM     21  C   UNL     1      47.568   5.105  15.173  0.00  0.00    +0.000 A 
ATOM     22  C   UNL     1      48.521   6.074  15.553  0.00  0.00    +0.000 A 
ATOM     23  C   UNL     1      49.389   5.874  16.633  0.00  0.00    +0.000 A 
ATOM     24  C   UNL     1      49.315   4.698  17.371  0.00  0.00    +0.000 A 
ATOM     25  C   UNL     1      48.379   3.737  17.017  0.00  0.00    +0.000 A 
ATOM     26  F   UNL     1      48.297   2.606  17.731  0.00  0.00    +0.000 F 
ATOM     27  C   UNL     1      47.521   3.926  15.935  0.00  0.00    +0.000 A 
ENDBRANCH  18  21
ENDBRANCH   1  15
TORSDOF 4
ENDMDL
MODEL 3
REMARK VINA RESULT:    -8.610      3.943      7.463
REMARK INTER + INTRA:         -10.868
REMARK INTER:                 -10.268
REMARK INTRA:                  -0.600
REMARK UNBOUND:                -0.245
REMARK  Name = 
REMARK  4 active torsions:
REMARK  status: ('A' for Active; 'I' for Inactive)
REMARK    1  A    between atoms: C_2  and  C_4
REMARK    2  A    between atoms: N_8  and  C_9
REMARK    3  A    between atoms: C_9  and  C_10
REMARK    4  A    between atoms: C_13  and  C_14
REMARK                            x       y       z     vdW  Elec       q    Type
REMARK                         _______ _______ _______ _____ _____    ______ ____
ROOT
ATOM      1  C   UNL     1      43.628   5.011  10.883  0.00  0.00    +0.000 C 
ENDROOT
BRANCH   1   6
ATOM      2  C   UNL     1      46.552   2.616   7.516  0.00  0.00    +0.000 A 
ATOM      3  C   UNL     1      46.070   3.920   7.493  0.00  0.00    +0.000 A 
ATOM      4  C   UNL     1      45.105   4.305   8.424  0.00  0.00    +0.000 A 
ATOM      5  C   UNL     1      44.655   3.393   9.377  0.00  0.00    +0.000 A 
ATOM      6  N   UNL     1      43.648   3.686  10.284  0.00  0.00    +0.000 N 
ATOM      7  N   UNL     1      45.120   2.129   9.410  0.00  0.00    +0.000 NA
ATOM      8  C   UNL     1      46.041   1.760   8.478  0.00  0.00    +0.000 A 
ATOM      9  H   UNL     1      43.627   2.928  10.964  0.00  0.00    +0.000 HD
BRANCH   2  11
ATOM     10  N   UNL     1      47.846   2.920   5.483  0.00  0.00    +0.000 N 
ATOM     11  C   UNL     1      47.537   2.109   6.540  0.00  0.00    +0.000 C 
ATOM     12  O   UNL     1      48.076   1.019   6.680  0.00  0.00    +0.000 OA
ATOM     13  H   UNL     1      48.586   2.600   4.870  0.00  0.00    +0.000 HD
ATOM     14  H   UNL     1      47.611   3.902   5.458  0.00  0.00    +0.000 HD
ENDBRANCH   2  11
ENDBRANCH   1   6
BRANCH   1  15
ATOM     15  C   UNL     1      44.825   5.218  11.791  0.00  0.00    +0.000 A 
ATOM     16  C   UNL     1      44.966   4.468  12.953  0.00  0.00    +0.000 A 
ATOM     17  C   UNL     1      46.028   4.746  13.815  0.00  0.00    +0.000 A 
ATOM     18  C   UNL     1      46.961   5.747  13.507  0.00  0.00    +0.000 A 
ATOM     19  C   UNL     1      46.755   6.396  12.288  0.00  0.00    +0.000 A 
ATOM     20  N   UNL     1      45.722   6.168  11.437  0.00  0.00    +0.000 NA
BRANCH  18  21
ATOM     21  C   UNL     1      48.074   6.102  14.417  0.00  0.00    +0.000 A 
ATOM     22  C   UNL     1      49.076   7.015  14.027  0.00  0.00    +0.000 A 
ATOM     23  C   UNL     1      50.131   7.364  14.879  0.00  0.00    +0.000 A 
ATOM     24  C   UNL     1      50.201   6.813  16.154  0.00  0.00    +0.000 A 
ATOM     25  C   UNL     1      49.221   5.918  16.557  0.00  0.00    +0.000 A 
ATOM     26  F   UNL     1      49.279   5.391  17.788  0.00  0.00    +0.000 F 
ATOM     27  C   UNL     1      48.175   5.559  15.708  0.00  0.00    +0.000 A 
ENDBRANCH  18  21
ENDBRANCH   1  15
TORSDOF 4
ENDMDL
MODEL 4
REMARK VINA RESULT:    -8.451      3.604      7.010
REMARK INTER + INTRA:         -10.672
REMARK INTER:                 -10.119
REMARK INTRA:                  -0.554
REMARK UNBOUND:                -0.245
REMARK  Name = 
REMARK  4 active torsions:
REMARK  status: ('A' for Active; 'I' for Inactive)
REMARK    1  A    between atoms: C_2  and  C_4
REMARK    2  A    between atoms: N_8  and  C_9
REMARK    3  A    between atoms: C_9  and  C_10
REMARK    4  A    between atoms: C_13  and  C_14
REMARK                            x       y       z     vdW  Elec       q    Type
REMARK                         _______ _______ _______ _____ _____    ______ ____
ROOT
ATOM      1  C   UNL     1      43.407   3.645  11.129  0.00  0.00    +0.000 C 
ENDROOT
BRANCH   1   6
ATOM      2  C   UNL     1      46.402   2.713   7.158  0.00  0.00    +0.000 A 
ATOM      3  C   UNL     1      45.403   3.668   7.300  0.00  0.00    +0.000 A 
ATOM      4  C   UNL     1      44.558   3.608   8.410  0.00  0.00    +0.000 A 
ATOM      5  C   UNL     1      44.739   2.614   9.369  0.00  0.00    +0.000 A 
ATOM      6  N   UNL     1      43.893   2.453  10.455  0.00  0.00    +0.000 N 
ATOM      7  N   UNL     1      45.709   1.687   9.241  0.00  0.00    +0.000 NA
ATOM      8  C   UNL     1      46.507   1.741   8.140  0.00  0.00    +0.000 A 
ATOM      9  H   UNL     1      44.333   1.779  11.081  0.00  0.00    +0.000 HD
BRANCH   2  11
ATOM     10  N   UNL     1      48.626   2.390   6.236  0.00  0.00    +0.000 N 
ATOM     11  C   UNL     1      47.310   2.671   5.994  0.00  0.00    +0.000 C 
ATOM     12  O   UNL     1      46.901   2.852   4.855  0.00  0.00    +0.000 OA
ATOM     13  H   UNL     1      49.221   2.278   5.423  0.00  0.00    +0.000 HD
ATOM     14  H   UNL     1      48.954   2.006   7.111  0.00  0.00    +0.000 HD
ENDBRANCH   2  11
ENDBRANCH   1   6
BRANCH   1  15
ATOM     15  C   UNL     1      44.551   4.442  11.724  0.00  0.00    +0.000 A 
ATOM     16  C   UNL     1      44.874   5.697  11.219  0.00  0.00    +0.000 A 
ATOM     17  C   UNL     1      45.989   6.366  11.724  0.00  0.00    +0.000 A 
ATOM     18  C   UNL     1      46.764   5.800  12.748  0.00  0.00    +0.000 A 
ATOM     19  C   UNL     1      46.315   4.564  13.219  0.00  0.00    +0.000 A 
ATOM     20  N   UNL     1      45.249   3.875  12.736  0.00  0.00    +0.000 NA
BRANCH  18  21
ATOM     21  C   UNL     1      47.980   6.457  13.279  0.00  0.00    +0.000 A 
ATOM     22  C   UNL     1      48.288   6.426  14.656  0.00  0.00    +0.000 A 
ATOM     23  C   UNL     1      49.437   7.038  15.170  0.00  0.00    +0.000 A 
ATOM     24  C   UNL     1      50.317   7.689  14.312  0.00  0.00    +0.000 A 
ATOM     25  C   UNL     1      50.035   7.723  12.954  0.00  0.00    +0.000 A 
ATOM     26  F   UNL     1      50.884   8.341  12.122  0.00  0.00    +0.000 F 
ATOM     27  C   UNL     1      48.886   7.125  12.439  0.00  0.00    +0.000 A 
ENDBRANCH  18  21
ENDBRANCH   1  15
TORSDOF 4
ENDMDL
MODEL 5
REMARK VINA RESULT:    -7.126      6.231      9.241
REMARK INTER + INTRA:          -9.037
REMARK INTER:                  -8.470
REMARK INTRA:                  -0.567
REMARK UNBOUND:                -0.245
REMARK  Name = 
REMARK  4 active torsions:
REMARK  status: ('A' for Active; 'I' for Inactive)
REMARK    1  A    between atoms: C_2  and  C_4
REMARK    2  A    between atoms: N_8  and  C_9
REMARK    3  A    between atoms: C_9  and  C_10
REMARK    4  A    between atoms: C_13  and  C_14
REMARK                            x       y       z     vdW  Elec       q    Type
REMARK                         _______ _______ _______ _____ _____    ______ ____
ROOT
ATOM      1  C   UNL     1      47.221   4.524  16.321  0.00  0.00    +0.000 C 
ENDROOT
BRANCH   1   6
ATOM      2  C   UNL     1      45.162   4.281  11.704  0.00  0.00    +0.000 A 
ATOM      3  C   UNL     1      45.672   3.257  12.495  0.00  0.00    +0.000 A 
ATOM      4  C   UNL     1      46.385   3.581  13.650  0.00  0.00    +0.000 A 
ATOM      5  C   UNL     1      46.556   4.916  14.009  0.00  0.00    +0.000 A 
ATOM      6  N   UNL     1      47.313   5.311  15.102  0.00  0.00    +0.000 N 
ATOM      7  N   UNL     1      46.061   5.914  13.252  0.00  0.00    +0.000 NA
ATOM      8  C   UNL     1      45.392   5.584  12.114  0.00  0.00    +0.000 A 
ATOM      9  H   UNL     1      47.142   6.305  15.242  0.00  0.00    +0.000 HD
BRANCH   2  11
ATOM     10  N   UNL     1      43.818   5.100   9.854  0.00  0.00    +0.000 N 
ATOM     11  C   UNL     1      44.437   4.032  10.442  0.00  0.00    +0.000 C 
ATOM     12  O   UNL     1      44.411   2.923   9.926  0.00  0.00    +0.000 OA
ATOM     13  H   UNL     1      43.400   4.936   8.946  0.00  0.00    +0.000 HD
ATOM     14  H   UNL     1      44.011   6.057  10.113  0.00  0.00    +0.000 HD
ENDBRANCH   2  11
ENDBRANCH   1   6
BRANCH   1  15
ATOM     15  C   UNL     1      48.556   3.893  16.666  0.00  0.00    +0.000 A 
ATOM     16  C   UNL     1      48.716   2.512  16.618  0.00  0.00    +0.000 A 
ATOM     17  C   UNL     1      49.927   1.955  17.030  0.00  0.00    +0.000 A 
ATOM     18  C   UNL     1      50.984   2.770  17.462  0.00  0.00    +0.000 A 
ATOM     19  C   UNL     1      50.732   4.143  17.415  0.00  0.00    +0.000 A 
ATOM     20  N   UNL     1      49.560   4.718  17.042  0.00  0.00    +0.000 NA
BRANCH  18  21
ATOM     21  C   UNL     1      52.267   2.215  17.949  0.00  0.00    +0.000 A 
ATOM     22  C   UNL     1      53.154   2.991  18.724  0.00  0.00    +0.000 A 
ATOM     23  C   UNL     1      54.368   2.477  19.196  0.00  0.00    +0.000 A 
ATOM     24  C   UNL     1      54.719   1.162  18.912  0.00  0.00    +0.000 A 
ATOM     25  C   UNL     1      53.855   0.381  18.158  0.00  0.00    +0.000 A 
ATOM     26  F   UNL     1      54.185  -0.890  17.889  0.00  0.00    +0.000 F 
ATOM     27  C   UNL     1      52.652   0.892  17.676  0.00  0.00    +0.000 A 
ENDBRANCH  18  21
ENDBRANCH   1  15
TORSDOF 4
ENDMDL
MODEL 6
REMARK VINA RESULT:    -6.796      1.610      2.102
REMARK INTER + INTRA:          -8.630
REMARK INTER:                  -8.706
REMARK INTRA:                   0.076
REMARK UNBOUND:                -0.245
REMARK  Name = 
REMARK  4 active torsions:
REMARK  status: ('A' for Active; 'I' for Inactive)
REMARK    1  A    between atoms: C_2  and  C_4
REMARK    2  A    between atoms: N_8  and  C_9
REMARK    3  A    between atoms: C_9  and  C_10
REMARK    4  A    between atoms: C_13  and  C_14
REMARK                            x       y       z     vdW  Elec       q    Type
REMARK                         _______ _______ _______ _____ _____    ______ ____
ROOT
ATOM      1  C   UNL     1      43.669   5.335  12.683  0.00  0.00    +0.000 C 
ENDROOT
BRANCH   1   6
ATOM      2  C   UNL     1      48.101   7.779  12.728  0.00  0.00    +0.000 A 
ATOM      3  C   UNL     1      47.766   6.553  13.293  0.00  0.00    +0.000 A 
ATOM      4  C   UNL     1      46.425   6.169  13.338  0.00  0.00    +0.000 A 
ATOM      5  C   UNL     1      45.446   7.000  12.798  0.00  0.00    +0.000 A 
ATOM      6  N   UNL     1      44.091   6.713  12.874  0.00  0.00    +0.000 N 
ATOM      7  N   UNL     1      45.761   8.186  12.244  0.00  0.00    +0.000 NA
ATOM      8  C   UNL     1      47.070   8.560  12.232  0.00  0.00    +0.000 A 
ATOM      9  H   UNL     1      43.610   7.377  12.268  0.00  0.00    +0.000 HD
BRANCH   2  11
ATOM     10  N   UNL     1      50.494   7.363  12.716  0.00  0.00    +0.000 N 
ATOM     11  C   UNL     1      49.487   8.287  12.680  0.00  0.00    +0.000 C 
ATOM     12  O   UNL     1      49.728   9.482  12.586  0.00  0.00    +0.000 OA
ATOM     13  H   UNL     1      51.436   7.716  12.595  0.00  0.00    +0.000 HD
ATOM     14  H   UNL     1      50.341   6.377  12.556  0.00  0.00    +0.000 HD
ENDBRANCH   2  11
ENDBRANCH   1   6
BRANCH   1  15
ATOM     15  C   UNL     1      44.368   4.709  11.494  0.00  0.00    +0.000 A 
ATOM     16  C   UNL     1      44.618   5.457  10.348  0.00  0.00    +0.000 A 
ATOM     17  C   UNL     1      45.179   4.828   9.236  0.00  0.00    +0.000 A 
ATOM     18  C   UNL     1      45.516   3.467   9.273  0.00  0.00    +0.000 A 
ATOM     19  C   UNL     1      45.274   2.828  10.492  0.00  0.00    +0.000 A 
ATOM     20  N   UNL     1      44.710   3.402  11.585  0.00  0.00    +0.000 NA
BRANCH  18  21
ATOM     21  C   UNL     1      46.070   2.753   8.100  0.00  0.00    +0.000 A 
ATOM     22  C   UNL     1      46.443   3.446   6.929  0.00  0.00    +0.000 A 
ATOM     23  C   UNL     1      46.974   2.784   5.816  0.00  0.00    +0.000 A 
ATOM     24  C   UNL     1      47.156   1.407   5.852  0.00  0.00    +0.000 A 
ATOM     25  C   UNL     1      46.801   0.709   6.998  0.00  0.00    +0.000 A 
ATOM     26  F   UNL     1      46.983  -0.618   7.041  0.00  0.00    +0.000 F 
ATOM     27  C   UNL     1      46.262   1.362   8.104  0.00  0.00    +0.000 A 
ENDBRANCH  18  21
ENDBRANCH   1  15
TORSDOF 4
ENDMDL
MODEL 7
REMARK VINA RESULT:    -6.695      3.803      6.530
REMARK INTER + INTRA:          -8.505
REMARK INTER:                  -8.003
REMARK INTRA:                  -0.503
REMARK UNBOUND:                -0.245
REMARK  Name = 
REMARK  4 active torsions:
REMARK  status: ('A' for Active; 'I' for Inactive)
REMARK    1  A    between atoms: C_2  and  C_4
REMARK    2  A    between atoms: N_8  and  C_9
REMARK    3  A    between atoms: C_9  and  C_10
REMARK    4  A    between atoms: C_13  and  C_14
REMARK                            x       y       z     vdW  Elec       q    Type
REMARK                         _______ _______ _______ _____ _____    ______ ____
ROOT
ATOM      1  C   UNL     1      50.033   8.241  14.413  0.00  0.00    +0.000 C 
ENDROOT
BRANCH   1   6
ATOM      2  C   UNL     1      49.016   5.656  18.645  0.00  0.00    +0.000 A 
ATOM      3  C   UNL     1      48.807   7.002  18.364  0.00  0.00    +0.000 A 
ATOM      4  C   UNL     1      49.358   7.548  17.204  0.00  0.00    +0.000 A 
ATOM      5  C   UNL     1      50.086   6.740  16.333  0.00  0.00    +0.000 A 
ATOM      6  N   UNL     1      50.720   7.231  15.203  0.00  0.00    +0.000 N 
ATOM      7  N   UNL     1      50.288   5.434  16.594  0.00  0.00    +0.000 NA
ATOM      8  C   UNL     1      49.768   4.922  17.743  0.00  0.00    +0.000 A 
ATOM      9  H   UNL     1      51.031   6.427  14.659  0.00  0.00    +0.000 HD
BRANCH   2  11
ATOM     10  N   UNL     1      48.563   3.641  19.922  0.00  0.00    +0.000 N 
ATOM     11  C   UNL     1      48.511   5.006  19.871  0.00  0.00    +0.000 C 
ATOM     12  O   UNL     1      48.087   5.659  20.814  0.00  0.00    +0.000 OA
ATOM     13  H   UNL     1      48.297   3.211  20.801  0.00  0.00    +0.000 HD
ATOM     14  H   UNL     1      49.113   3.087  19.280  0.00  0.00    +0.000 HD
ENDBRANCH   2  11
ENDBRANCH   1   6
BRANCH   1  15
ATOM     15  C   UNL     1      48.784   7.673  13.769  0.00  0.00    +0.000 A 
ATOM     16  C   UNL     1      47.646   8.459  13.621  0.00  0.00    +0.000 A 
ATOM     17  C   UNL     1      46.483   7.882  13.110  0.00  0.00    +0.000 A 
ATOM     18  C   UNL     1      46.461   6.535  12.721  0.00  0.00    +0.000 A 
ATOM     19  C   UNL     1      47.674   5.856  12.859  0.00  0.00    +0.000 A 
ATOM     20  N   UNL     1      48.817   6.379  13.373  0.00  0.00    +0.000 NA
BRANCH  18  21
ATOM     21  C   UNL     1      45.235   5.874  12.216  0.00  0.00    +0.000 A 
ATOM     22  C   UNL     1      44.112   5.679  13.048  0.00  0.00    +0.000 A 
ATOM     23  C   UNL     1      42.946   5.060  12.582  0.00  0.00    +0.000 A 
ATOM     24  C   UNL     1      42.870   4.631  11.262  0.00  0.00    +0.000 A 
ATOM     25  C   UNL     1      43.962   4.821  10.427  0.00  0.00    +0.000 A 
ATOM     26  F   UNL     1      43.892   4.418   9.151  0.00  0.00    +0.000 F 
ATOM     27  C   UNL     1      45.130   5.426  10.889  0.00  0.00    +0.000 A 
ENDBRANCH  18  21
ENDBRANCH   1  15
TORSDOF 4
ENDMDL
MODEL 8
REMARK VINA RESULT:    -5.951      4.035      5.992
REMARK INTER + INTRA:          -7.587
REMARK INTER:                  -7.011
REMARK INTRA:                  -0.577
REMARK UNBOUND:                -0.245
REMARK  Name = 
REMARK  4 active torsions:
REMARK  status: ('A' for Active; 'I' for Inactive)
REMARK    1  A    between atoms: C_2  and  C_4
REMARK    2  A    between atoms: N_8  and  C_9
REMARK    3  A    between atoms: C_9  and  C_10
REMARK    4  A    between atoms: C_13  and  C_14
REMARK                            x       y       z     vdW  Elec       q    Type
REMARK                         _______ _______ _______ _____ _____    ______ ____
ROOT
ATOM      1  C   UNL     1      48.214   9.233  14.304  0.00  0.00    +0.000 C 
ENDROOT
BRANCH   1   6
ATOM      2  C   UNL     1      48.357   7.241  18.954  0.00  0.00    +0.000 A 
ATOM      3  C   UNL     1      47.790   8.436  18.526  0.00  0.00    +0.000 A 
ATOM      4  C   UNL     1      48.053   8.888  17.233  0.00  0.00    +0.000 A 
ATOM      5  C   UNL     1      48.856   8.131  16.381  0.00  0.00    +0.000 A 
ATOM      6  N   UNL     1      49.216   8.556  15.112  0.00  0.00    +0.000 N 
ATOM      7  N   UNL     1      49.405   6.970  16.786  0.00  0.00    +0.000 NA
ATOM      8  C   UNL     1      49.161   6.555  18.059  0.00  0.00    +0.000 A 
ATOM      9  H   UNL     1      49.653   7.764  14.643  0.00  0.00    +0.000 HD
BRANCH   2  11
ATOM     10  N   UNL     1      47.298   7.375  21.136  0.00  0.00    +0.000 N 
ATOM     11  C   UNL     1      48.171   6.710  20.320  0.00  0.00    +0.000 C 
ATOM     12  O   UNL     1      48.753   5.704  20.701  0.00  0.00    +0.000 OA
ATOM     13  H   UNL     1      47.113   6.952  22.039  0.00  0.00    +0.000 HD
ATOM     14  H   UNL     1      46.632   8.052  20.793  0.00  0.00    +0.000 HD
ENDBRANCH   2  11
ENDBRANCH   1   6
BRANCH   1  15
ATOM     15  C   UNL     1      47.489   8.255  13.400  0.00  0.00    +0.000 A 
ATOM     16  C   UNL     1      46.203   8.532  12.949  0.00  0.00    +0.000 A 
ATOM     17  C   UNL     1      45.526   7.572  12.196  0.00  0.00    +0.000 A 
ATOM     18  C   UNL     1      46.137   6.352  11.870  0.00  0.00    +0.000 A 
ATOM     19  C   UNL     1      47.450   6.205  12.326  0.00  0.00    +0.000 A 
ATOM     20  N   UNL     1      48.130   7.107  13.079  0.00  0.00    +0.000 NA
BRANCH  18  21
ATOM     21  C   UNL     1      45.437   5.291  11.112  0.00  0.00    +0.000 A 
ATOM     22  C   UNL     1      45.588   5.166   9.715  0.00  0.00    +0.000 A 
ATOM     23  C   UNL     1      44.935   4.163   8.988  0.00  0.00    +0.000 A 
ATOM     24  C   UNL     1      44.122   3.248   9.647  0.00  0.00    +0.000 A 
ATOM     25  C   UNL     1      43.967   3.351  11.022  0.00  0.00    +0.000 A 
ATOM     26  F   UNL     1      43.191   2.467  11.663  0.00  0.00    +0.000 F 
ATOM     27  C   UNL     1      44.605   4.355  11.749  0.00  0.00    +0.000 A 
ENDBRANCH  18  21
ENDBRANCH   1  15
TORSDOF 4
ENDMDL
