MODEL 1
REMARK VINA RESULT:    -7.545      0.000      0.000
REMARK INTER + INTRA:         -10.091
REMARK INTER:                  -9.530
REMARK INTRA:                  -0.561
REMARK UNBOUND:                -0.561
REMARK  Name = 
REMARK  5 active torsions:
REMARK  status: ('A' for Active; 'I' for Inactive)
REMARK    1  A    between atoms: N_1  and  C_2
REMARK    2  A    between atoms: C_2  and  C_3
REMARK    3  A    between atoms: C_3  and  C_4
REMARK    4  A    between atoms: C_7  and  C_8
REMARK    5  A    between atoms: C_8  and  N_9
REMARK                            x       y       z     vdW  Elec       q    Type
REMARK                         _______ _______ _______ _____ _____    ______ ____
ROOT
ATOM      1  C   UNL     1      45.853   3.411   7.691  0.00  0.00    +0.000 A 
ATOM      2  C   UNL     1      45.097   2.530   8.460  0.00  0.00    +0.000 A 
ATOM      3  C   UNL     1      44.568   2.975   9.670  0.00  0.00    +0.000 A 
ATOM      4  C   UNL     1      44.807   4.283  10.095  0.00  0.00    +0.000 A 
ATOM      5  C   UNL     1      45.576   5.087   9.261  0.00  0.00    +0.000 A 
ATOM      6  N   UNL     1      46.098   4.684   8.081  0.00  0.00    +0.000 NA
ENDROOT
BRANCH   1   7
ATOM      7  C   UNL     1      46.475   2.956   6.396  0.00  0.00    +0.000 C 
BRANCH   7   8
ATOM      8  C   UNL     1      47.432   1.787   6.631  0.00  0.00    +0.000 C 
BRANCH   8   9
ATOM      9  N   UNL     1      48.584   1.854   5.728  0.00  0.00    +0.000 NA
ATOM     10  H   UNL     1      48.675   0.962   5.243  0.00  0.00    +0.000 HD
ATOM     11  H   UNL     1      49.436   1.958   6.280  0.00  0.00    +0.000 HD
ENDBRANCH   8   9
ENDBRANCH   7   8
ENDBRANCH   1   7
BRANCH   4  12
ATOM     12  C   UNL     1      44.259   4.812  11.387  0.00  0.00    +0.000 C 
BRANCH  12  13
ATOM     13  N   UNL     1      45.299   5.060  12.381  0.00  0.00    +0.000 N 
ATOM     14  C   UNL     1      46.038   4.070  12.980  0.00  0.00    +0.000 A 
ATOM     15  C   UNL     1      47.043   4.666  13.709  0.00  0.00    +0.000 A 
ATOM     16  C   UNL     1      46.917   6.077  13.551  0.00  0.00    +0.000 A 
ATOM     17  C   UNL     1      47.638   7.205  13.996  0.00  0.00    +0.000 A 
ATOM     18 CL   UNL     1      49.026   6.904  14.950  0.00  0.00    +0.000 Cl
ATOM     19  C   UNL     1      47.250   8.498  13.657  0.00  0.00    +0.000 A 
ATOM     20  C   UNL     1      46.119   8.690  12.872  0.00  0.00    +0.000 A 
ATOM     21  C   UNL     1      45.375   7.602  12.402  0.00  0.00    +0.000 A 
ATOM     22  C   UNL     1      45.796   6.301  12.739  0.00  0.00    +0.000 A 
ENDBRANCH  12  13
ENDBRANCH   4  12
TORSDOF 5
ENDMDL
MODEL 2
REMARK VINA RESULT:    -7.007      1.271      2.355
REMARK INTER + INTRA:          -9.412
REMARK INTER:                  -8.834
REMARK INTRA:                  -0.577
REMARK UNBOUND:                -0.561
REMARK  Name = 
REMARK  5 active torsions:
REMARK  status: ('A' for Active; 'I' for Inactive)
REMARK    1  A    between atoms: N_1  and  C_2
REMARK    2  A    between atoms: C_2  and  C_3
REMARK    3  A    between atoms: C_3  and  C_4
REMARK    4  A    between atoms: C_7  and  C_8
REMARK    5  A    between atoms: C_8  and  N_9
REMARK                            x       y       z     vdW  Elec       q    Type
REMARK                         _______ _______ _______ _____ _____    ______ ____
ROOT
ATOM      1  C   UNL     1      45.978   2.345   8.066  0.00  0.00    +0.000 A 
ATOM      2  C   UNL     1      46.100   3.720   7.889  0.00  0.00    +0.000 A 
ATOM      3  C   UNL     1      45.400   4.573   8.741  0.00  0.00    +0.000 A 
ATOM      4  C   UNL     1      44.591   4.043   9.747  0.00  0.00    +0.000 A 
ATOM      5  C   UNL     1      44.530   2.657   9.844  0.00  0.00    +0.000 A 
ATOM      6  N   UNL     1      45.200   1.806   9.034  0.00  0.00    +0.000 NA
ENDROOT
BRANCH   1   7
ATOM      7  C   UNL     1      46.686   1.389   7.141  0.00  0.00    +0.000 C 
BRANCH   7   8
ATOM      8  C   UNL     1      48.102   1.877   6.831  0.00  0.00    +0.000 C 
BRANCH   8   9
ATOM      9  N   UNL     1      48.350   1.903   5.388  0.00  0.00    +0.000 NA
ATOM     10  H   UNL     1      47.456   1.966   4.900  0.00  0.00    +0.000 HD
ATOM     11  H   UNL     1      48.759   1.013   5.103  0.00  0.00    +0.000 HD
ENDBRANCH   8   9
ENDBRANCH   7   8
ENDBRANCH   1   7
BRANCH   4  12
ATOM     12  C   UNL     1      43.820   4.917  10.692  0.00  0.00    +0.000 C 
BRANCH  12  13
ATOM     13  N   UNL     1      44.635   5.981  11.269  0.00  0.00    +0.000 N 
ATOM     14  C   UNL     1      44.390   7.319  11.086  0.00  0.00    +0.000 A 
ATOM     15  C   UNL     1      45.228   8.027  11.919  0.00  0.00    +0.000 A 
ATOM     16  C   UNL     1      46.018   7.087  12.643  0.00  0.00    +0.000 A 
ATOM     17  C   UNL     1      47.006   7.168  13.647  0.00  0.00    +0.000 A 
ATOM     18 CL   UNL     1      47.407   8.734  14.208  0.00  0.00    +0.000 Cl
ATOM     19  C   UNL     1      47.608   6.027  14.171  0.00  0.00    +0.000 A 
ATOM     20  C   UNL     1      47.242   4.777  13.688  0.00  0.00    +0.000 A 
ATOM     21  C   UNL     1      46.263   4.646  12.696  0.00  0.00    +0.000 A 
ATOM     22  C   UNL     1      45.651   5.810  12.194  0.00  0.00    +0.000 A 
ENDBRANCH  12  13
ENDBRANCH   4  12
TORSDOF 5
ENDMDL
MODEL 3
REMARK VINA RESULT:    -6.169      2.997      6.580
REMARK INTER + INTRA:          -8.353
REMARK INTER:                  -7.731
REMARK INTRA:                  -0.623
REMARK UNBOUND:                -0.561
REMARK  Name = 
REMARK  5 active torsions:
REMARK  status: ('A' for Active; 'I' for Inactive)
REMARK    1  A    between atoms: N_1  and  C_2
REMARK    2  A    between atoms: C_2  and  C_3
REMARK    3  A    between atoms: C_3  and  C_4
REMARK    4  A    between atoms: C_7  and  C_8
REMARK    5  A    between atoms: C_8  and  N_9
REMARK                            x       y       z     vdW  Elec       q    Type
REMARK                         _______ _______ _______ _____ _____    ______ ____
ROOT
ATOM      1  C   UNL     1      46.462   7.394  12.935  0.00  0.00    +0.000 A 
ATOM      2  C   UNL     1      45.466   8.101  12.267  0.00  0.00    +0.000 A 
ATOM      3  C   UNL     1      44.632   7.418  11.384  0.00  0.00    +0.000 A 
ATOM      4  C   UNL     1      44.807   6.049  11.179  0.00  0.00    +0.000 A 
ATOM      5  C   UNL     1      45.829   5.430  11.888  0.00  0.00    +0.000 A 
ATOM      6  N   UNL     1      46.652   6.066  12.753  0.00  0.00    +0.000 NA
ENDROOT
BRANCH   1   7
ATOM      7  C   UNL     1      47.411   8.103  13.867  0.00  0.00    +0.000 C 
BRANCH   7   8
ATOM      8  C   UNL     1      48.819   7.515  13.764  0.00  0.00    +0.000 C 
BRANCH   8   9
ATOM      9  N   UNL     1      48.966   6.338  14.624  0.00  0.00    +0.000 NA
ATOM     10  H   UNL     1      49.216   5.536  14.045  0.00  0.00    +0.000 HD
ATOM     11  H   UNL     1      48.061   6.111  15.037  0.00  0.00    +0.000 HD
ENDBRANCH   8   9
ENDBRANCH   7   8
ENDBRANCH   1   7
BRANCH   4  12
ATOM     12  C   UNL     1      43.934   5.267  10.243  0.00  0.00    +0.000 C 
BRANCH  12  13
ATOM     13  N   UNL     1      44.483   3.952   9.925  0.00  0.00    +0.000 N 
ATOM     14  C   UNL     1      44.017   2.777  10.461  0.00  0.00    +0.000 A 
ATOM     15  C   UNL     1      44.628   1.733   9.804  0.00  0.00    +0.000 A 
ATOM     16  C   UNL     1      45.503   2.288   8.824  0.00  0.00    +0.000 A 
ATOM     17  C   UNL     1      46.359   1.765   7.831  0.00  0.00    +0.000 A 
ATOM     18 CL   UNL     1      46.412   0.062   7.680  0.00  0.00    +0.000 Cl
ATOM     19  C   UNL     1      47.105   2.597   7.001  0.00  0.00    +0.000 A 
ATOM     20  C   UNL     1      47.020   3.976   7.158  0.00  0.00    +0.000 A 
ATOM     21  C   UNL     1      46.181   4.541   8.126  0.00  0.00    +0.000 A 
ATOM     22  C   UNL     1      45.419   3.683   8.941  0.00  0.00    +0.000 A 
ENDBRANCH  12  13
ENDBRANCH   4  12
TORSDOF 5
ENDMDL
MODEL 4
REMARK VINA RESULT:    -6.132      2.073      2.966
REMARK INTER + INTRA:          -8.306
REMARK INTER:                  -7.707
REMARK INTRA:                  -0.599
REMARK UNBOUND:                -0.561
REMARK  Name = 
REMARK  5 active torsions:
REMARK  status: ('A' for Active; 'I' for Inactive)
REMARK    1  A    between atoms: N_1  and  C_2
REMARK    2  A    between atoms: C_2  and  C_3
REMARK    3  A    between atoms: C_3  and  C_4
REMARK    4  A    between atoms: C_7  and  C_8
REMARK    5  A    between atoms: C_8  and  N_9
REMARK                            x       y       z     vdW  Elec       q    Type
REMARK                         _______ _______ _______ _____ _____    ______ ____
ROOT
ATOM      1  C   UNL     1      45.006   3.207   9.853  0.00  0.00    +0.000 A 
ATOM      2  C   UNL     1      45.133   4.536   9.457  0.00  0.00    +0.000 A 
ATOM      3  C   UNL     1      45.212   5.525  10.436  0.00  0.00    +0.000 A 
ATOM      4  C   UNL     1      45.159   5.175  11.786  0.00  0.00    +0.000 A 
ATOM      5  C   UNL     1      45.028   3.824  12.083  0.00  0.00    +0.000 A 
ATOM      6  N   UNL     1      44.952   2.842  11.156  0.00  0.00    +0.000 NA
ENDROOT
BRANCH   1   7
ATOM      7  C   UNL     1      44.877   2.112   8.826  0.00  0.00    +0.000 C 
BRANCH   7   8
ATOM      8  C   UNL     1      46.205   1.881   8.105  0.00  0.00    +0.000 C 
BRANCH   8   9
ATOM      9  N   UNL     1      46.496   0.451   7.974  0.00  0.00    +0.000 NA
ATOM     10  H   UNL     1      45.647  -0.034   7.683  0.00  0.00    +0.000 HD
ATOM     11  H   UNL     1      46.731   0.072   8.892  0.00  0.00    +0.000 HD
ENDBRANCH   8   9
ENDBRANCH   7   8
ENDBRANCH   1   7
BRANCH   4  12
ATOM     12  C   UNL     1      45.243   6.200  12.877  0.00  0.00    +0.000 C 
BRANCH  12  13
ATOM     13  N   UNL     1      46.410   7.067  12.749  0.00  0.00    +0.000 N 
ATOM     14  C   UNL     1      47.707   6.620  12.807  0.00  0.00    +0.000 A 
ATOM     15  C   UNL     1      48.537   7.663  12.460  0.00  0.00    +0.000 A 
ATOM     16  C   UNL     1      47.717   8.795  12.175  0.00  0.00    +0.000 A 
ATOM     17  C   UNL     1      47.949  10.117  11.740  0.00  0.00    +0.000 A 
ATOM     18 CL   UNL     1      49.574  10.555  11.439  0.00  0.00    +0.000 Cl
ATOM     19  C   UNL     1      46.901  11.013  11.545  0.00  0.00    +0.000 A 
ATOM     20  C   UNL     1      45.596  10.606  11.796  0.00  0.00    +0.000 A 
ATOM     21  C   UNL     1      45.317   9.303  12.223  0.00  0.00    +0.000 A 
ATOM     22  C   UNL     1      46.388   8.405  12.395  0.00  0.00    +0.000 A 
ENDBRANCH  12  13
ENDBRANCH   4  12
TORSDOF 5
ENDMDL
MODEL 5
REMARK VINA RESULT:    -5.819      3.185      6.560
REMARK INTER + INTRA:          -7.911
REMARK INTER:                  -7.354
REMARK INTRA:                  -0.557
REMARK UNBOUND:                -0.561
REMARK  Name = 
REMARK  5 active torsions:
REMARK  status: ('A' for Active; 'I' for Inactive)
REMARK    1  A    between atoms: N_1  and  C_2
REMARK    2  A    between atoms: C_2  and  C_3
REMARK    3  A    between atoms: C_3  and  C_4
REMARK    4  A    between atoms: C_7  and  C_8
REMARK    5  A    between atoms: C_8  and  N_9
REMARK                            x       y       z     vdW  Elec       q    Type
REMARK                         _______ _______ _______ _____ _____    ______ ____
ROOT
ATOM      1  C   UNL     1      48.684   7.583  13.368  0.00  0.00    +0.000 A 
ATOM      2  C   UNL     1      47.724   8.554  13.097  0.00  0.00    +0.000 A 
ATOM      3  C   UNL     1      46.409   8.156  12.866  0.00  0.00    +0.000 A 
ATOM      4  C   UNL     1      46.075   6.801  12.905  0.00  0.00    +0.000 A 
ATOM      5  C   UNL     1      47.102   5.905  13.180  0.00  0.00    +0.000 A 
ATOM      6  N   UNL     1      48.386   6.263  13.411  0.00  0.00    +0.000 NA
ENDROOT
BRANCH   1   7
ATOM      7  C   UNL     1      50.125   7.970  13.583  0.00  0.00    +0.000 C 
BRANCH   7   8
ATOM      8  C   UNL     1      50.474   7.967  15.072  0.00  0.00    +0.000 C 
BRANCH   8   9
ATOM      9  N   UNL     1      50.638   6.602  15.576  0.00  0.00    +0.000 NA
ATOM     10  H   UNL     1      51.634   6.395  15.651  0.00  0.00    +0.000 HD
ATOM     11  H   UNL     1      50.270   5.945  14.887  0.00  0.00    +0.000 HD
ENDBRANCH   8   9
ENDBRANCH   7   8
ENDBRANCH   1   7
BRANCH   4  12
ATOM     12  C   UNL     1      44.675   6.319  12.667  0.00  0.00    +0.000 C 
BRANCH  12  13
ATOM     13  N   UNL     1      44.630   5.001  12.041  0.00  0.00    +0.000 N 
ATOM     14  C   UNL     1      44.021   3.907  12.604  0.00  0.00    +0.000 A 
ATOM     15  C   UNL     1      44.003   2.897  11.667  0.00  0.00    +0.000 A 
ATOM     16  C   UNL     1      44.622   3.392  10.482  0.00  0.00    +0.000 A 
ATOM     17  C   UNL     1      44.874   2.879   9.192  0.00  0.00    +0.000 A 
ATOM     18 CL   UNL     1      44.323   1.291   8.873  0.00  0.00    +0.000 Cl
ATOM     19  C   UNL     1      45.520   3.637   8.219  0.00  0.00    +0.000 A 
ATOM     20  C   UNL     1      45.941   4.926   8.524  0.00  0.00    +0.000 A 
ATOM     21  C   UNL     1      45.710   5.480   9.789  0.00  0.00    +0.000 A 
ATOM     22  C   UNL     1      45.036   4.704  10.752  0.00  0.00    +0.000 A 
ENDBRANCH  12  13
ENDBRANCH   4  12
TORSDOF 5
ENDMDL
MODEL 6
REMARK VINA RESULT:    -5.475      3.814      5.745
REMARK INTER + INTRA:          -7.477
REMARK INTER:                  -6.677
REMARK INTRA:                  -0.800
REMARK UNBOUND:                -0.561
REMARK  Name = 
REMARK  5 active torsions:
REMARK  status: ('A' for Active; 'I' for Inactive)
REMARK    1  A    between atoms: N_1  and  C_2
REMARK    2  A    between atoms: C_2  and  C_3
REMARK    3  A    between atoms: C_3  and  C_4
REMARK    4  A    between atoms: C_7  and  C_8
REMARK    5  A    between atoms: C_8  and  N_9
REMARK                            x       y       z     vdW  Elec       q    Type
REMARK                         _______ _______ _______ _____ _____    ______ ____
ROOT
ATOM      1  C   UNL     1      44.659   5.152  12.937  0.00  0.00    +0.000 A 
ATOM      2  C   UNL     1      45.017   6.428  12.508  0.00  0.00    +0.000 A 
ATOM      3  C   UNL     1      46.296   6.901  12.795  0.00  0.00    +0.000 A 
ATOM      4  C   UNL     1      47.191   6.100  13.506  0.00  0.00    +0.000 A 
ATOM      5  C   UNL     1      46.742   4.843  13.895  0.00  0.00    +0.000 A 
ATOM      6  N   UNL     1      45.509   4.357  13.627  0.00  0.00    +0.000 NA
ENDROOT
BRANCH   1   7
ATOM      7  C   UNL     1      43.273   4.620  12.681  0.00  0.00    +0.000 C 
BRANCH   7   8
ATOM      8  C   UNL     1      43.312   3.436  11.713  0.00  0.00    +0.000 C 
BRANCH   8   9
ATOM      9  N   UNL     1      43.578   2.182  12.421  0.00  0.00    +0.000 NA
ATOM     10  H   UNL     1      42.690   1.725  12.627  0.00  0.00    +0.000 HD
ATOM     11  H   UNL     1      43.998   2.391  13.326  0.00  0.00    +0.000 HD
ENDBRANCH   8   9
ENDBRANCH   7   8
ENDBRANCH   1   7
BRANCH   4  12
ATOM     12  C   UNL     1      48.579   6.561  13.839  0.00  0.00    +0.000 C 
BRANCH  12  13
ATOM     13  N   UNL     1      48.641   7.310  15.090  0.00  0.00    +0.000 N 
ATOM     14  C   UNL     1      48.416   8.661  15.186  0.00  0.00    +0.000 A 
ATOM     15  C   UNL     1      48.366   8.995  16.521  0.00  0.00    +0.000 A 
ATOM     16  C   UNL     1      48.566   7.801  17.275  0.00  0.00    +0.000 A 
ATOM     17  C   UNL     1      48.589   7.473  18.648  0.00  0.00    +0.000 A 
ATOM     18 CL   UNL     1      48.298   8.749  19.749  0.00  0.00    +0.000 Cl
ATOM     19  C   UNL     1      48.815   6.169  19.081  0.00  0.00    +0.000 A 
ATOM     20  C   UNL     1      49.038   5.166  18.146  0.00  0.00    +0.000 A 
ATOM     21  C   UNL     1      49.020   5.442  16.774  0.00  0.00    +0.000 A 
ATOM     22  C   UNL     1      48.769   6.762  16.355  0.00  0.00    +0.000 A 
ENDBRANCH  12  13
ENDBRANCH   4  12
TORSDOF 5
ENDMDL
MODEL 7
REMARK VINA RESULT:    -5.261      3.149      4.415
REMARK INTER + INTRA:          -7.206
REMARK INTER:                  -6.431
REMARK INTRA:                  -0.775
REMARK UNBOUND:                -0.561
REMARK  Name = 
REMARK  5 active torsions:
REMARK  status: ('A' for Active; 'I' for Inactive)
REMARK    1  A    between atoms: N_1  and  C_2
REMARK    2  A    between atoms: C_2  and  C_3
REMARK    3  A    between atoms: C_3  and  C_4
REMARK    4  A    between atoms: C_7  and  C_8
REMARK    5  A    between atoms: C_8  and  N_9
REMARK                            x       y       z     vdW  Elec       q    Type
REMARK                         _______ _______ _______ _____ _____    ______ ____
ROOT
ATOM      1  C   UNL     1      44.560   4.988  10.806  0.00  0.00    +0.000 A 
ATOM      2  C   UNL     1      45.692   5.661  10.355  0.00  0.00    +0.000 A 
ATOM      3  C   UNL     1      46.222   6.686  11.136  0.00  0.00    +0.000 A 
ATOM      4  C   UNL     1      45.614   7.025  12.346  0.00  0.00    +0.000 A 
ATOM      5  C   UNL     1      44.487   6.298  12.711  0.00  0.00    +0.000 A 
ATOM      6  N   UNL     1      43.952   5.297  11.975  0.00  0.00    +0.000 NA
ENDROOT
BRANCH   1   7
ATOM      7  C   UNL     1      43.934   3.900   9.971  0.00  0.00    +0.000 C 
BRANCH   7   8
ATOM      8  C   UNL     1      44.105   2.534  10.637  0.00  0.00    +0.000 C 
BRANCH   8   9
ATOM      9  N   UNL     1      43.033   2.274  11.600  0.00  0.00    +0.000 NA
ATOM     10  H   UNL     1      42.573   3.155  11.827  0.00  0.00    +0.000 HD
ATOM     11  H   UNL     1      43.442   1.943  12.474  0.00  0.00    +0.000 HD
ENDBRANCH   8   9
ENDBRANCH   7   8
ENDBRANCH   1   7
BRANCH   4  12
ATOM     12  C   UNL     1      46.145   8.118  13.225  0.00  0.00    +0.000 C 
BRANCH  12  13
ATOM     13  N   UNL     1      47.604   8.136  13.284  0.00  0.00    +0.000 N 
ATOM     14  C   UNL     1      48.355   7.206  13.959  0.00  0.00    +0.000 A 
ATOM     15  C   UNL     1      49.680   7.415  13.646  0.00  0.00    +0.000 A 
ATOM     16  C   UNL     1      49.745   8.515  12.741  0.00  0.00    +0.000 A 
ATOM     17  C   UNL     1      50.774   9.179  12.041  0.00  0.00    +0.000 A 
ATOM     18 CL   UNL     1      52.362   8.577  12.253  0.00  0.00    +0.000 Cl
ATOM     19  C   UNL     1      50.506  10.257  11.202  0.00  0.00    +0.000 A 
ATOM     20  C   UNL     1      49.198  10.703  11.056  0.00  0.00    +0.000 A 
ATOM     21  C   UNL     1      48.143  10.072  11.727  0.00  0.00    +0.000 A 
ATOM     22  C   UNL     1      48.432   8.971  12.554  0.00  0.00    +0.000 A 
ENDBRANCH  12  13
ENDBRANCH   4  12
TORSDOF 5
ENDMDL
MODEL 8
REMARK VINA RESULT:    -5.222      4.904      7.970
REMARK INTER + INTRA:          -7.157
REMARK INTER:                  -6.591
REMARK INTRA:                  -0.566
REMARK UNBOUND:                -0.561
REMARK  Name = 
REMARK  5 active torsions:
REMARK  status: ('A' for Active; 'I' for Inactive)
REMARK    1  A    between atoms: N_1  and  C_2
REMARK    2  A    between atoms: C_2  and  C_3
REMARK    3  A    between atoms: C_3  and  C_4
REMARK    4  A    between atoms: C_7  and  C_8
REMARK    5  A    between atoms: C_8  and  N_9
REMARK                            x       y       z     vdW  Elec       q    Type
REMARK                         _______ _______ _______ _____ _____    ______ ____
ROOT
ATOM      1  C   UNL     1      51.702   3.384  17.798  0.00  0.00    +0.000 A 
ATOM      2  C   UNL     1      52.016   4.686  17.419  0.00  0.00    +0.000 A 
ATOM      3  C   UNL     1      50.984   5.547  17.050  0.00  0.00    +0.000 A 
ATOM      4  C   UNL     1      49.663   5.095  17.061  0.00  0.00    +0.000 A 
ATOM      5  C   UNL     1      49.449   3.779  17.451  0.00  0.00    +0.000 A 
ATOM      6  N   UNL     1      50.430   2.922  17.817  0.00  0.00    +0.000 NA
ENDROOT
BRANCH   1   7
ATOM      7  C   UNL     1      52.793   2.410  18.166  0.00  0.00    +0.000 C 
BRANCH   7   8
ATOM      8  C   UNL     1      52.591   1.071  17.455  0.00  0.00    +0.000 C 
BRANCH   8   9
ATOM      9  N   UNL     1      51.622   0.233  18.167  0.00  0.00    +0.000 NA
ATOM     10  H   UNL     1      52.097  -0.601  18.511  0.00  0.00    +0.000 HD
ATOM     11  H   UNL     1      50.920  -0.100  17.507  0.00  0.00    +0.000 HD
ENDBRANCH   8   9
ENDBRANCH   7   8
ENDBRANCH   1   7
BRANCH   4  12
ATOM     12  C   UNL     1      48.516   5.982  16.676  0.00  0.00    +0.000 C 
BRANCH  12  13
ATOM     13  N   UNL     1      47.918   5.608  15.398  0.00  0.00    +0.000 N 
ATOM     14  C   UNL     1      47.035   4.568  15.241  0.00  0.00    +0.000 A 
ATOM     15  C   UNL     1      46.532   4.622  13.960  0.00  0.00    +0.000 A 
ATOM     16  C   UNL     1      47.127   5.740  13.305  0.00  0.00    +0.000 A 
ATOM     17  C   UNL     1      47.005   6.340  12.034  0.00  0.00    +0.000 A 
ATOM     18 CL   UNL     1      45.882   5.635  10.954  0.00  0.00    +0.000 Cl
ATOM     19  C   UNL     1      47.749   7.465  11.685  0.00  0.00    +0.000 A 
ATOM     20  C   UNL     1      48.642   8.006  12.602  0.00  0.00    +0.000 A 
ATOM     21  C   UNL     1      48.793   7.448  13.877  0.00  0.00    +0.000 A 
ATOM     22  C   UNL     1      48.018   6.324  14.218  0.00  0.00    +0.000 A 
ENDBRANCH  12  13
ENDBRANCH   4  12
TORSDOF 5
ENDMDL
MODEL 9
REMARK VINA RESULT:    -5.202      4.016      8.289
REMARK INTER + INTRA:          -7.132
REMARK INTER:                  -6.391
REMARK INTRA:                  -0.741
REMARK UNBOUND:                -0.561
REMARK  Name = 
REMARK  5 active torsions:
REMARK  status: ('A' for Active; 'I' for Inactive)
REMARK    1  A    between atoms: N_1  and  C_2
REMARK    2  A    between atoms: C_2  and  C_3
REMARK    3  A    between atoms: C_3  and  C_4
REMARK    4  A    between atoms: C_7  and  C_8
REMARK    5  A    between atoms: C_8  and  N_9
REMARK                            x       y       z     vdW  Elec       q    Type
REMARK                         _______ _______ _______ _____ _____    ______ ____
ROOT
ATOM      1  C   UNL     1      48.496   6.230  18.402  0.00  0.00    +0.000 A 
ATOM      2  C   UNL     1      48.720   7.474  17.817  0.00  0.00    +0.000 A 
ATOM      3  C   UNL     1      48.740   7.570  16.427  0.00  0.00    +0.000 A 
ATOM      4  C   UNL     1      48.542   6.429  15.647  0.00  0.00    +0.000 A 
ATOM      5  C   UNL     1      48.329   5.233  16.321  0.00  0.00    +0.000 A 
ATOM      6  N   UNL     1      48.302   5.110  17.668  0.00  0.00    +0.000 NA
ENDROOT
BRANCH   1   7
ATOM      7  C   UNL     1      48.508   6.077  19.901  0.00  0.00    +0.000 C 
BRANCH   7   8
ATOM      8  C   UNL     1      49.287   4.829  20.317  0.00  0.00    +0.000 C 
BRANCH   8   9
ATOM      9  N   UNL     1      48.395   3.681  20.496  0.00  0.00    +0.000 NA
ATOM     10  H   UNL     1      47.723   3.662  19.728  0.00  0.00    +0.000 HD
ATOM     11  H   UNL     1      47.842   3.817  21.343  0.00  0.00    +0.000 HD
ENDBRANCH   8   9
ENDBRANCH   7   8
ENDBRANCH   1   7
BRANCH   4  12
ATOM     12  C   UNL     1      48.550   6.479  14.148  0.00  0.00    +0.000 C 
BRANCH  12  13
ATOM     13  N   UNL     1      47.210   6.575  13.578  0.00  0.00    +0.000 N 
ATOM     14  C   UNL     1      46.609   7.759  13.228  0.00  0.00    +0.000 A 
ATOM     15  C   UNL     1      45.443   7.466  12.555  0.00  0.00    +0.000 A 
ATOM     16  C   UNL     1      45.325   6.047  12.487  0.00  0.00    +0.000 A 
ATOM     17  C   UNL     1      44.405   5.142  11.914  0.00  0.00    +0.000 A 
ATOM     18 CL   UNL     1      43.090   5.821  11.058  0.00  0.00    +0.000 Cl
ATOM     19  C   UNL     1      44.574   3.765  12.024  0.00  0.00    +0.000 A 
ATOM     20  C   UNL     1      45.665   3.262  12.723  0.00  0.00    +0.000 A 
ATOM     21  C   UNL     1      46.606   4.120  13.304  0.00  0.00    +0.000 A 
ATOM     22  C   UNL     1      46.429   5.509  13.165  0.00  0.00    +0.000 A 
ENDBRANCH  12  13
ENDBRANCH   4  12
TORSDOF 5
ENDMDL
