MODEL 1
REMARK VINA RESULT:    -8.403      0.000      0.000
REMARK INTER + INTRA:         -10.542
REMARK INTER:                 -10.368
REMARK INTRA:                  -0.175
REMARK UNBOUND:                -0.175
REMARK  Name = 
REMARK  6 active torsions:
REMARK  status: ('A' for Active; 'I' for Inactive)
REMARK    1  A    between atoms: C_1  and  C_2
REMARK    2  A    between atoms: C_5  and  C_6
REMARK    3  A    between atoms: C_6  and  C_7
REMARK    4  A    between atoms: C_6  and  N_8
REMARK    5  A    between atoms: N_8  and  C_9
REMARK    6  A    between atoms: C_12  and  C_13
REMARK                            x       y       z     vdW  Elec       q    Type
REMARK                         _______ _______ _______ _____ _____    ______ ____
ROOT
ATOM      1  C   UNL     1      44.821   4.167   9.107  0.00  0.00    +0.000 A 
ATOM      2  N   UNL     1      45.615   4.695   8.147  0.00  0.00    +0.000 NA
ATOM      3  C   UNL     1      46.425   3.862   7.445  0.00  0.00    +0.000 A 
ATOM      4  C   UNL     1      46.536   2.501   7.691  0.00  0.00    +0.000 A 
ATOM      5  C   UNL     1      45.731   1.951   8.684  0.00  0.00    +0.000 A 
ATOM      6  C   UNL     1      44.858   2.785   9.385  0.00  0.00    +0.000 A 
ATOM      7 CL   UNL     1      43.815   2.066  10.561  0.00  0.00    +0.000 Cl
ENDROOT
BRANCH   4   8
ATOM      8  C   UNL     1      47.459   1.702   6.864  0.00  0.00    +0.000 C 
ATOM      9  N   UNL     1      48.575   2.327   6.382  0.00  0.00    +0.000 N 
ATOM     10  O   UNL     1      47.220   0.533   6.597  0.00  0.00    +0.000 OA
ATOM     11  H   UNL     1      48.687   3.331   6.375  0.00  0.00    +0.000 HD
ATOM     12  H   UNL     1      49.152   1.789   5.746  0.00  0.00    +0.000 HD
ENDBRANCH   4   8
BRANCH   1  13
ATOM     13  N   UNL     1      43.988   5.016   9.857  0.00  0.00    +0.000 N 
ATOM     14  H   UNL     1      44.175   5.980   9.586  0.00  0.00    +0.000 HD
BRANCH  13  15
ATOM     15  C   UNL     1      43.997   4.840  11.313  0.00  0.00    +0.000 C 
ATOM     16  C   UNL     1      42.774   5.517  11.939  0.00  0.00    +0.000 C 
BRANCH  15  21
ATOM     17  C   UNL     1      48.968   7.026  13.493  0.00  0.00    +0.000 C 
ATOM     18  C   UNL     1      47.682   6.475  12.953  0.00  0.00    +0.000 A 
ATOM     19  C   UNL     1      47.135   5.293  13.459  0.00  0.00    +0.000 A 
ATOM     20  C   UNL     1      45.950   4.776  12.926  0.00  0.00    +0.000 A 
ATOM     21  C   UNL     1      45.285   5.430  11.878  0.00  0.00    +0.000 A 
ATOM     22  C   UNL     1      45.837   6.620  11.378  0.00  0.00    +0.000 A 
ATOM     23  C   UNL     1      47.021   7.138  11.912  0.00  0.00    +0.000 A 
ENDBRANCH  15  21
ENDBRANCH  13  15
ENDBRANCH   1  13
TORSDOF 4
ENDMDL
MODEL 2
REMARK VINA RESULT:    -7.714      1.655      2.129
REMARK INTER + INTRA:          -9.693
REMARK INTER:                  -8.860
REMARK INTRA:                  -0.833
REMARK UNBOUND:                -0.175
REMARK  Name = 
REMARK  6 active torsions:
REMARK  status: ('A' for Active; 'I' for Inactive)
REMARK    1  A    between atoms: C_1  and  C_2
REMARK    2  A    between atoms: C_5  and  C_6
REMARK    3  A    between atoms: C_6  and  C_7
REMARK    4  A    between atoms: C_6  and  N_8
REMARK    5  A    between atoms: N_8  and  C_9
REMARK    6  A    between atoms: C_12  and  C_13
REMARK                            x       y       z     vdW  Elec       q    Type
REMARK                         _______ _______ _______ _____ _____    ______ ____
ROOT
ATOM      1  C   UNL     1      44.559   3.726   9.375  0.00  0.00    +0.000 A 
ATOM      2  N   UNL     1      44.189   2.425   9.342  0.00  0.00    +0.000 NA
ATOM      3  C   UNL     1      45.004   1.535   8.721  0.00  0.00    +0.000 A 
ATOM      4  C   UNL     1      46.173   1.885   8.061  0.00  0.00    +0.000 A 
ATOM      5  C   UNL     1      46.556   3.223   8.081  0.00  0.00    +0.000 A 
ATOM      6  C   UNL     1      45.754   4.145   8.754  0.00  0.00    +0.000 A 
ATOM      7 CL   UNL     1      46.289   5.787   8.828  0.00  0.00    +0.000 Cl
ENDROOT
BRANCH   4   8
ATOM      8  C   UNL     1      46.971   0.825   7.417  0.00  0.00    +0.000 C 
ATOM      9  N   UNL     1      46.612  -0.471   7.661  0.00  0.00    +0.000 N 
ATOM     10  O   UNL     1      47.933   1.096   6.713  0.00  0.00    +0.000 OA
ATOM     11  H   UNL     1      45.990  -0.741   8.411  0.00  0.00    +0.000 HD
ATOM     12  H   UNL     1      47.222  -1.186   7.282  0.00  0.00    +0.000 HD
ENDBRANCH   4   8
BRANCH   1  13
ATOM     13  N   UNL     1      43.719   4.666   9.998  0.00  0.00    +0.000 N 
ATOM     14  H   UNL     1      44.015   5.601   9.724  0.00  0.00    +0.000 HD
BRANCH  13  15
ATOM     15  C   UNL     1      43.546   4.544  11.449  0.00  0.00    +0.000 C 
ATOM     16  C   UNL     1      42.321   5.343  11.908  0.00  0.00    +0.000 C 
BRANCH  15  21
ATOM     17  C   UNL     1      48.344   6.547  14.132  0.00  0.00    +0.000 C 
ATOM     18  C   UNL     1      47.127   6.032  13.424  0.00  0.00    +0.000 A 
ATOM     19  C   UNL     1      46.326   6.882  12.656  0.00  0.00    +0.000 A 
ATOM     20  C   UNL     1      45.177   6.395  12.026  0.00  0.00    +0.000 A 
ATOM     21  C   UNL     1      44.806   5.047  12.145  0.00  0.00    +0.000 A 
ATOM     22  C   UNL     1      45.619   4.197  12.912  0.00  0.00    +0.000 A 
ATOM     23  C   UNL     1      46.768   4.685  13.542  0.00  0.00    +0.000 A 
ENDBRANCH  15  21
ENDBRANCH  13  15
ENDBRANCH   1  13
TORSDOF 4
ENDMDL
MODEL 3
REMARK VINA RESULT:    -7.708      3.038      6.213
REMARK INTER + INTRA:          -9.685
REMARK INTER:                  -9.623
REMARK INTRA:                  -0.062
REMARK UNBOUND:                -0.175
REMARK  Name = 
REMARK  6 active torsions:
REMARK  status: ('A' for Active; 'I' for Inactive)
REMARK    1  A    between atoms: C_1  and  C_2
REMARK    2  A    between atoms: C_5  and  C_6
REMARK    3  A    between atoms: C_6  and  C_7
REMARK    4  A    between atoms: C_6  and  N_8
REMARK    5  A    between atoms: N_8  and  C_9
REMARK    6  A    between atoms: C_12  and  C_13
REMARK                            x       y       z     vdW  Elec       q    Type
REMARK                         _______ _______ _______ _____ _____    ______ ____
ROOT
ATOM      1  C   UNL     1      44.760   5.550  10.897  0.00  0.00    +0.000 A 
ATOM      2  N   UNL     1      46.012   5.908  10.530  0.00  0.00    +0.000 NA
ATOM      3  C   UNL     1      46.767   6.616  11.408  0.00  0.00    +0.000 A 
ATOM      4  C   UNL     1      46.313   7.050  12.645  0.00  0.00    +0.000 A 
ATOM      5  C   UNL     1      45.022   6.695  13.026  0.00  0.00    +0.000 A 
ATOM      6  C   UNL     1      44.248   5.928  12.154  0.00  0.00    +0.000 A 
ATOM      7 CL   UNL     1      42.676   5.437  12.681  0.00  0.00    +0.000 Cl
ENDROOT
BRANCH   4   8
ATOM      8  C   UNL     1      47.228   7.820  13.508  0.00  0.00    +0.000 C 
ATOM      9  N   UNL     1      46.701   8.869  14.207  0.00  0.00    +0.000 N 
ATOM     10  O   UNL     1      48.418   7.546  13.574  0.00  0.00    +0.000 OA
ATOM     11  H   UNL     1      45.798   9.273  14.001  0.00  0.00    +0.000 HD
ATOM     12  H   UNL     1      47.359   9.440  14.726  0.00  0.00    +0.000 HD
ENDBRANCH   4   8
BRANCH   1  13
ATOM     13  N   UNL     1      43.956   4.832   9.993  0.00  0.00    +0.000 N 
ATOM     14  H   UNL     1      42.985   5.105  10.132  0.00  0.00    +0.000 HD
BRANCH  13  15
ATOM     15  C   UNL     1      44.122   3.374   9.969  0.00  0.00    +0.000 C 
ATOM     16  C   UNL     1      44.625   2.873  11.327  0.00  0.00    +0.000 C 
BRANCH  15  21
ATOM     17  C   UNL     1      47.918   2.030   5.724  0.00  0.00    +0.000 C 
ATOM     18  C   UNL     1      46.927   2.371   6.797  0.00  0.00    +0.000 A 
ATOM     19  C   UNL     1      46.339   3.637   6.859  0.00  0.00    +0.000 A 
ATOM     20  C   UNL     1      45.438   3.950   7.882  0.00  0.00    +0.000 A 
ATOM     21  C   UNL     1      45.104   3.003   8.862  0.00  0.00    +0.000 A 
ATOM     22  C   UNL     1      45.694   1.732   8.790  0.00  0.00    +0.000 A 
ATOM     23  C   UNL     1      46.593   1.419   7.767  0.00  0.00    +0.000 A 
ENDBRANCH  15  21
ENDBRANCH  13  15
ENDBRANCH   1  13
TORSDOF 4
ENDMDL
MODEL 4
REMARK VINA RESULT:    -7.585      1.679      2.433
REMARK INTER + INTRA:          -9.534
REMARK INTER:                  -8.990
REMARK INTRA:                  -0.543
REMARK UNBOUND:                -0.175
REMARK  Name = 
REMARK  6 active torsions:
REMARK  status: ('A' for Active; 'I' for Inactive)
REMARK    1  A    between atoms: C_1  and  C_2
REMARK    2  A    between atoms: C_5  and  C_6
REMARK    3  A    between atoms: C_6  and  C_7
REMARK    4  A    between atoms: C_6  and  N_8
REMARK    5  A    between atoms: N_8  and  C_9
REMARK    6  A    between atoms: C_12  and  C_13
REMARK                            x       y       z     vdW  Elec       q    Type
REMARK                         _______ _______ _______ _____ _____    ______ ____
ROOT
ATOM      1  C   UNL     1      45.137   4.452   9.390  0.00  0.00    +0.000 A 
ATOM      2  N   UNL     1      45.944   4.959   8.431  0.00  0.00    +0.000 NA
ATOM      3  C   UNL     1      46.566   4.098   7.585  0.00  0.00    +0.000 A 
ATOM      4  C   UNL     1      46.471   2.717   7.678  0.00  0.00    +0.000 A 
ATOM      5  C   UNL     1      45.651   2.186   8.669  0.00  0.00    +0.000 A 
ATOM      6  C   UNL     1      44.968   3.058   9.519  0.00  0.00    +0.000 A 
ATOM      7 CL   UNL     1      43.898   2.376  10.693  0.00  0.00    +0.000 Cl
ENDROOT
BRANCH   4   8
ATOM      8  C   UNL     1      47.201   1.886   6.702  0.00  0.00    +0.000 C 
ATOM      9  N   UNL     1      48.006   2.530   5.805  0.00  0.00    +0.000 N 
ATOM     10  O   UNL     1      47.068   0.671   6.680  0.00  0.00    +0.000 OA
ATOM     11  H   UNL     1      47.960   3.524   5.634  0.00  0.00    +0.000 HD
ATOM     12  H   UNL     1      48.431   1.953   5.088  0.00  0.00    +0.000 HD
ENDBRANCH   4   8
BRANCH   1  13
ATOM     13  N   UNL     1      44.499   5.326  10.288  0.00  0.00    +0.000 N 
ATOM     14  H   UNL     1      44.184   6.148   9.775  0.00  0.00    +0.000 HD
BRANCH  13  15
ATOM     15  C   UNL     1      45.237   5.684  11.504  0.00  0.00    +0.000 C 
ATOM     16  C   UNL     1      44.528   5.122  12.742  0.00  0.00    +0.000 C 
BRANCH  15  21
ATOM     17  C   UNL     1      45.571  11.516  11.852  0.00  0.00    +0.000 C 
ATOM     18  C   UNL     1      45.492  10.022  11.740  0.00  0.00    +0.000 A 
ATOM     19  C   UNL     1      44.378   9.400  11.170  0.00  0.00    +0.000 A 
ATOM     20  C   UNL     1      44.305   8.005  11.099  0.00  0.00    +0.000 A 
ATOM     21  C   UNL     1      45.346   7.203  11.592  0.00  0.00    +0.000 A 
ATOM     22  C   UNL     1      46.464   7.835  12.157  0.00  0.00    +0.000 A 
ATOM     23  C   UNL     1      46.537   9.230  12.228  0.00  0.00    +0.000 A 
ENDBRANCH  15  21
ENDBRANCH  13  15
ENDBRANCH   1  13
TORSDOF 4
ENDMDL
MODEL 5
REMARK VINA RESULT:    -7.563      3.698      6.527
REMARK INTER + INTRA:          -9.506
REMARK INTER:                  -8.994
REMARK INTRA:                  -0.512
REMARK UNBOUND:                -0.175
REMARK  Name = 
REMARK  6 active torsions:
REMARK  status: ('A' for Active; 'I' for Inactive)
REMARK    1  A    between atoms: C_1  and  C_2
REMARK    2  A    between atoms: C_5  and  C_6
REMARK    3  A    between atoms: C_6  and  C_7
REMARK    4  A    between atoms: C_6  and  N_8
REMARK    5  A    between atoms: N_8  and  C_9
REMARK    6  A    between atoms: C_12  and  C_13
REMARK                            x       y       z     vdW  Elec       q    Type
REMARK                         _______ _______ _______ _____ _____    ______ ____
ROOT
ATOM      1  C   UNL     1      45.164   5.953  11.871  0.00  0.00    +0.000 A 
ATOM      2  N   UNL     1      44.193   6.692  11.289  0.00  0.00    +0.000 NA
ATOM      3  C   UNL     1      44.264   8.044  11.381  0.00  0.00    +0.000 A 
ATOM      4  C   UNL     1      45.245   8.722  12.089  0.00  0.00    +0.000 A 
ATOM      5  C   UNL     1      46.244   7.968  12.701  0.00  0.00    +0.000 A 
ATOM      6  C   UNL     1      46.212   6.578  12.578  0.00  0.00    +0.000 A 
ATOM      7 CL   UNL     1      47.503   5.670  13.283  0.00  0.00    +0.000 Cl
ENDROOT
BRANCH   4   8
ATOM      8  C   UNL     1      45.211  10.195  12.121  0.00  0.00    +0.000 C 
ATOM      9  N   UNL     1      46.406  10.852  12.200  0.00  0.00    +0.000 N 
ATOM     10  O   UNL     1      44.150  10.804  12.106  0.00  0.00    +0.000 OA
ATOM     11  H   UNL     1      47.272  10.397  12.454  0.00  0.00    +0.000 HD
ATOM     12  H   UNL     1      46.360  11.859  12.308  0.00  0.00    +0.000 HD
ENDBRANCH   4   8
BRANCH   1  13
ATOM     13  N   UNL     1      45.098   4.550  11.802  0.00  0.00    +0.000 N 
ATOM     14  H   UNL     1      46.044   4.182  11.718  0.00  0.00    +0.000 HD
BRANCH  13  15
ATOM     15  C   UNL     1      44.191   3.975  10.803  0.00  0.00    +0.000 C 
ATOM     16  C   UNL     1      43.413   2.799  11.403  0.00  0.00    +0.000 C 
BRANCH  15  21
ATOM     17  C   UNL     1      47.262   2.160   6.165  0.00  0.00    +0.000 C 
ATOM     18  C   UNL     1      46.494   2.622   7.367  0.00  0.00    +0.000 A 
ATOM     19  C   UNL     1      45.953   1.706   8.273  0.00  0.00    +0.000 A 
ATOM     20  C   UNL     1      45.215   2.150   9.374  0.00  0.00    +0.000 A 
ATOM     21  C   UNL     1      45.004   3.520   9.596  0.00  0.00    +0.000 A 
ATOM     22  C   UNL     1      45.556   4.435   8.686  0.00  0.00    +0.000 A 
ATOM     23  C   UNL     1      46.295   3.990   7.585  0.00  0.00    +0.000 A 
ENDBRANCH  15  21
ENDBRANCH  13  15
ENDBRANCH   1  13
TORSDOF 4
ENDMDL
MODEL 6
REMARK VINA RESULT:    -7.138      3.320      6.219
REMARK INTER + INTRA:          -8.982
REMARK INTER:                  -9.831
REMARK INTRA:                   0.849
REMARK UNBOUND:                -0.175
REMARK  Name = 
REMARK  6 active torsions:
REMARK  status: ('A' for Active; 'I' for Inactive)
REMARK    1  A    between atoms: C_1  and  C_2
REMARK    2  A    between atoms: C_5  and  C_6
REMARK    3  A    between atoms: C_6  and  C_7
REMARK    4  A    between atoms: C_6  and  N_8
REMARK    5  A    between atoms: N_8  and  C_9
REMARK    6  A    between atoms: C_12  and  C_13
REMARK                            x       y       z     vdW  Elec       q    Type
REMARK                         _______ _______ _______ _____ _____    ______ ____
ROOT
ATOM      1  C   UNL     1      45.161   5.274  11.695  0.00  0.00    +0.000 A 
ATOM      2  N   UNL     1      45.483   4.038  12.142  0.00  0.00    +0.000 NA
ATOM      3  C   UNL     1      46.224   3.932  13.274  0.00  0.00    +0.000 A 
ATOM      4  C   UNL     1      46.727   5.017  13.976  0.00  0.00    +0.000 A 
ATOM      5  C   UNL     1      46.410   6.293  13.517  0.00  0.00    +0.000 A 
ATOM      6  C   UNL     1      45.610   6.422  12.380  0.00  0.00    +0.000 A 
ATOM      7 CL   UNL     1      45.169   8.014  11.873  0.00  0.00    +0.000 Cl
ENDROOT
BRANCH   4   8
ATOM      8  C   UNL     1      47.528   4.771  15.190  0.00  0.00    +0.000 C 
ATOM      9  N   UNL     1      47.168   3.714  15.977  0.00  0.00    +0.000 N 
ATOM     10  O   UNL     1      48.460   5.503  15.493  0.00  0.00    +0.000 OA
ATOM     11  H   UNL     1      46.279   3.241  15.897  0.00  0.00    +0.000 HD
ATOM     12  H   UNL     1      47.673   3.611  16.850  0.00  0.00    +0.000 HD
ENDBRANCH   4   8
BRANCH   1  13
ATOM     13  N   UNL     1      44.409   5.405  10.514  0.00  0.00    +0.000 N 
ATOM     14  H   UNL     1      43.710   6.133  10.651  0.00  0.00    +0.000 HD
BRANCH  13  15
ATOM     15  C   UNL     1      43.829   4.179   9.955  0.00  0.00    +0.000 C 
ATOM     16  C   UNL     1      43.398   3.233  11.081  0.00  0.00    +0.000 C 
BRANCH  15  21
ATOM     17  C   UNL     1      47.831   1.668   6.504  0.00  0.00    +0.000 C 
ATOM     18  C   UNL     1      46.790   2.312   7.371  0.00  0.00    +0.000 A 
ATOM     19  C   UNL     1      46.567   3.691   7.325  0.00  0.00    +0.000 A 
ATOM     20  C   UNL     1      45.613   4.281   8.159  0.00  0.00    +0.000 A 
ATOM     21  C   UNL     1      44.859   3.507   9.054  0.00  0.00    +0.000 A 
ATOM     22  C   UNL     1      45.084   2.122   9.090  0.00  0.00    +0.000 A 
ATOM     23  C   UNL     1      46.038   1.531   8.255  0.00  0.00    +0.000 A 
ENDBRANCH  15  21
ENDBRANCH  13  15
ENDBRANCH   1  13
TORSDOF 4
ENDMDL
MODEL 7
REMARK VINA RESULT:    -7.129      3.481      6.444
REMARK INTER + INTRA:          -8.970
REMARK INTER:                  -8.444
REMARK INTRA:                  -0.526
REMARK UNBOUND:                -0.175
REMARK  Name = 
REMARK  6 active torsions:
REMARK  status: ('A' for Active; 'I' for Inactive)
REMARK    1  A    between atoms: C_1  and  C_2
REMARK    2  A    between atoms: C_5  and  C_6
REMARK    3  A    between atoms: C_6  and  C_7
REMARK    4  A    between atoms: C_6  and  N_8
REMARK    5  A    between atoms: N_8  and  C_9
REMARK    6  A    between atoms: C_12  and  C_13
REMARK                            x       y       z     vdW  Elec       q    Type
REMARK                         _______ _______ _______ _____ _____    ______ ____
ROOT
ATOM      1  C   UNL     1      46.013   5.139  12.577  0.00  0.00    +0.000 A 
ATOM      2  N   UNL     1      45.742   6.338  12.011  0.00  0.00    +0.000 NA
ATOM      3  C   UNL     1      46.392   7.435  12.476  0.00  0.00    +0.000 A 
ATOM      4  C   UNL     1      47.280   7.416  13.541  0.00  0.00    +0.000 A 
ATOM      5  C   UNL     1      47.557   6.188  14.137  0.00  0.00    +0.000 A 
ATOM      6  C   UNL     1      46.932   5.043  13.642  0.00  0.00    +0.000 A 
ATOM      7 CL   UNL     1      47.348   3.521  14.349  0.00  0.00    +0.000 Cl
ENDROOT
BRANCH   4   8
ATOM      8  C   UNL     1      47.919   8.678  13.958  0.00  0.00    +0.000 C 
ATOM      9  N   UNL     1      47.534   9.214  15.155  0.00  0.00    +0.000 N 
ATOM     10  O   UNL     1      48.741   9.238  13.246  0.00  0.00    +0.000 OA
ATOM     11  H   UNL     1      46.703   8.922  15.650  0.00  0.00    +0.000 HD
ATOM     12  H   UNL     1      47.917  10.124  15.384  0.00  0.00    +0.000 HD
ENDBRANCH   4   8
BRANCH   1  13
ATOM     13  N   UNL     1      45.336   3.994  12.123  0.00  0.00    +0.000 N 
ATOM     14  H   UNL     1      46.018   3.257  11.954  0.00  0.00    +0.000 HD
BRANCH  13  15
ATOM     15  C   UNL     1      44.419   4.169  10.990  0.00  0.00    +0.000 C 
ATOM     16  C   UNL     1      43.125   3.383  11.226  0.00  0.00    +0.000 C 
BRANCH  15  21
ATOM     17  C   UNL     1      47.011   2.293   6.091  0.00  0.00    +0.000 C 
ATOM     18  C   UNL     1      46.367   2.769   7.359  0.00  0.00    +0.000 A 
ATOM     19  C   UNL     1      45.843   1.864   8.286  0.00  0.00    +0.000 A 
ATOM     20  C   UNL     1      45.220   2.323   9.450  0.00  0.00    +0.000 A 
ATOM     21  C   UNL     1      45.109   3.697   9.714  0.00  0.00    +0.000 A 
ATOM     22  C   UNL     1      45.643   4.600   8.782  0.00  0.00    +0.000 A 
ATOM     23  C   UNL     1      46.267   4.141   7.619  0.00  0.00    +0.000 A 
ENDBRANCH  15  21
ENDBRANCH  13  15
ENDBRANCH   1  13
TORSDOF 4
ENDMDL
MODEL 8
REMARK VINA RESULT:    -6.460      3.722      6.004
REMARK INTER + INTRA:          -8.146
REMARK INTER:                  -7.686
REMARK INTRA:                  -0.459
REMARK UNBOUND:                -0.175
REMARK  Name = 
REMARK  6 active torsions:
REMARK  status: ('A' for Active; 'I' for Inactive)
REMARK    1  A    between atoms: C_1  and  C_2
REMARK    2  A    between atoms: C_5  and  C_6
REMARK    3  A    between atoms: C_6  and  C_7
REMARK    4  A    between atoms: C_6  and  N_8
REMARK    5  A    between atoms: N_8  and  C_9
REMARK    6  A    between atoms: C_12  and  C_13
REMARK                            x       y       z     vdW  Elec       q    Type
REMARK                         _______ _______ _______ _____ _____    ______ ____
ROOT
ATOM      1  C   UNL     1      45.831   6.372  12.728  0.00  0.00    +0.000 A 
ATOM      2  N   UNL     1      46.860   5.560  13.064  0.00  0.00    +0.000 NA
ATOM      3  C   UNL     1      48.121   6.061  13.020  0.00  0.00    +0.000 A 
ATOM      4  C   UNL     1      48.430   7.344  12.592  0.00  0.00    +0.000 A 
ATOM      5  C   UNL     1      47.378   8.182  12.234  0.00  0.00    +0.000 A 
ATOM      6  C   UNL     1      46.071   7.699  12.317  0.00  0.00    +0.000 A 
ATOM      7 CL   UNL     1      44.778   8.782  11.939  0.00  0.00    +0.000 Cl
ENDROOT
BRANCH   4   8
ATOM      8  C   UNL     1      49.842   7.769  12.581  0.00  0.00    +0.000 C 
ATOM      9  N   UNL     1      50.624   7.333  11.549  0.00  0.00    +0.000 N 
ATOM     10  O   UNL     1      50.301   8.462  13.478  0.00  0.00    +0.000 OA
ATOM     11  H   UNL     1      50.356   6.579  10.932  0.00  0.00    +0.000 HD
ATOM     12  H   UNL     1      51.609   7.562  11.603  0.00  0.00    +0.000 HD
ENDBRANCH   4   8
BRANCH   1  13
ATOM     13  N   UNL     1      44.519   5.866  12.750  0.00  0.00    +0.000 N 
ATOM     14  H   UNL     1      44.529   4.949  13.194  0.00  0.00    +0.000 HD
BRANCH  13  15
ATOM     15  C   UNL     1      43.789   5.855  11.477  0.00  0.00    +0.000 C 
ATOM     16  C   UNL     1      42.296   5.611  11.722  0.00  0.00    +0.000 C 
BRANCH  15  21
ATOM     17  C   UNL     1      46.091   1.732   8.023  0.00  0.00    +0.000 C 
ATOM     18  C   UNL     1      45.484   2.793   8.892  0.00  0.00    +0.000 A 
ATOM     19  C   UNL     1      45.770   4.145   8.684  0.00  0.00    +0.000 A 
ATOM     20  C   UNL     1      45.220   5.121   9.520  0.00  0.00    +0.000 A 
ATOM     21  C   UNL     1      44.370   4.769  10.579  0.00  0.00    +0.000 A 
ATOM     22  C   UNL     1      44.082   3.409  10.778  0.00  0.00    +0.000 A 
ATOM     23  C   UNL     1      44.632   2.433   9.941  0.00  0.00    +0.000 A 
ENDBRANCH  15  21
ENDBRANCH  13  15
ENDBRANCH   1  13
TORSDOF 4
ENDMDL
MODEL 9
REMARK VINA RESULT:    -6.445      4.690      6.565
REMARK INTER + INTRA:          -8.127
REMARK INTER:                  -7.625
REMARK INTRA:                  -0.502
REMARK UNBOUND:                -0.175
REMARK  Name = 
REMARK  6 active torsions:
REMARK  status: ('A' for Active; 'I' for Inactive)
REMARK    1  A    between atoms: C_1  and  C_2
REMARK    2  A    between atoms: C_5  and  C_6
REMARK    3  A    between atoms: C_6  and  C_7
REMARK    4  A    between atoms: C_6  and  N_8
REMARK    5  A    between atoms: N_8  and  C_9
REMARK    6  A    between atoms: C_12  and  C_13
REMARK                            x       y       z     vdW  Elec       q    Type
REMARK                         _______ _______ _______ _____ _____    ______ ____
ROOT
ATOM      1  C   UNL     1      47.131   5.159  14.460  0.00  0.00    +0.000 A 
ATOM      2  N   UNL     1      46.422   4.020  14.289  0.00  0.00    +0.000 NA
ATOM      3  C   UNL     1      45.743   3.848  13.126  0.00  0.00    +0.000 A 
ATOM      4  C   UNL     1      45.681   4.798  12.117  0.00  0.00    +0.000 A 
ATOM      5  C   UNL     1      46.400   5.978  12.290  0.00  0.00    +0.000 A 
ATOM      6  C   UNL     1      47.140   6.152  13.460  0.00  0.00    +0.000 A 
ATOM      7 CL   UNL     1      48.083   7.593  13.618  0.00  0.00    +0.000 Cl
ENDROOT
BRANCH   4   8
ATOM      8  C   UNL     1      44.903   4.496  10.902  0.00  0.00    +0.000 C 
ATOM      9  N   UNL     1      44.057   5.464  10.438  0.00  0.00    +0.000 N 
ATOM     10  O   UNL     1      44.992   3.410  10.346  0.00  0.00    +0.000 OA
ATOM     11  H   UNL     1      43.777   6.263  10.989  0.00  0.00    +0.000 HD
ATOM     12  H   UNL     1      43.468   5.208   9.655  0.00  0.00    +0.000 HD
ENDBRANCH   4   8
BRANCH   1  13
ATOM     13  N   UNL     1      47.825   5.364  15.666  0.00  0.00    +0.000 N 
ATOM     14  H   UNL     1      48.806   5.536  15.452  0.00  0.00    +0.000 HD
BRANCH  13  15
ATOM     15  C   UNL     1      47.657   4.348  16.711  0.00  0.00    +0.000 C 
ATOM     16  C   UNL     1      47.063   4.978  17.975  0.00  0.00    +0.000 C 
BRANCH  15  21
ATOM     17  C   UNL     1      52.861   1.969  17.934  0.00  0.00    +0.000 C 
ATOM     18  C   UNL     1      51.536   2.588  17.600  0.00  0.00    +0.000 A 
ATOM     19  C   UNL     1      51.290   3.941  17.847  0.00  0.00    +0.000 A 
ATOM     20  C   UNL     1      50.040   4.497  17.557  0.00  0.00    +0.000 A 
ATOM     21  C   UNL     1      49.011   3.715  17.012  0.00  0.00    +0.000 A 
ATOM     22  C   UNL     1      49.268   2.358  16.761  0.00  0.00    +0.000 A 
ATOM     23  C   UNL     1      50.518   1.802  17.050  0.00  0.00    +0.000 A 
ENDBRANCH  15  21
ENDBRANCH  13  15
ENDBRANCH   1  13
TORSDOF 4
ENDMDL
