MODEL 1
REMARK VINA RESULT:    -7.549      0.000      0.000
REMARK INTER + INTRA:          -9.139
REMARK INTER:                  -8.873
REMARK INTRA:                  -0.266
REMARK UNBOUND:                -0.266
REMARK  Name = 
REMARK  3 active torsions:
REMARK  status: ('A' for Active; 'I' for Inactive)
REMARK    1  A    between atoms: C_2  and  C_3
REMARK    2  A    between atoms: C_10  and  C_11
REMARK    3  A    between atoms: C_15  and  N_16
REMARK                            x       y       z     vdW  Elec       q    Type
REMARK                         _______ _______ _______ _____ _____    ______ ____
ROOT
ATOM      1  C   UNL     1      50.623   9.533  11.569  0.00  0.00    +0.000 A 
ATOM      2  C   UNL     1      50.860   8.183  11.797  0.00  0.00    +0.000 A 
ATOM      3  C   UNL     1      49.774   7.313  11.885  0.00  0.00    +0.000 A 
ATOM      4  C   UNL     1      48.473   7.794  11.740  0.00  0.00    +0.000 A 
ATOM      5  N   UNL     1      47.382   6.969  11.875  0.00  0.00    +0.000 N 
ATOM      6  C   UNL     1      46.200   7.217  11.060  0.00  0.00    +0.000 C 
ATOM      7  C   UNL     1      44.937   7.256  11.923  0.00  0.00    +0.000 C 
ATOM      8  C   UNL     1      44.820   6.047  12.875  0.00  0.00    +0.000 C 
ATOM      9  C   UNL     1      46.114   6.004  13.718  0.00  0.00    +0.000 C 
ATOM     10  C   UNL     1      47.360   5.882  12.841  0.00  0.00    +0.000 C 
ATOM     11  N   UNL     1      48.252   9.102  11.479  0.00  0.00    +0.000 NA
ATOM     12  C   UNL     1      49.312   9.939  11.414  0.00  0.00    +0.000 A 
ENDROOT
BRANCH   8  13
ATOM     13  C   UNL     1      44.498   4.700  12.224  0.00  0.00    +0.000 A 
ATOM     14  C   UNL     1      43.739   3.709  12.854  0.00  0.00    +0.000 A 
ATOM     15  C   UNL     1      43.400   2.538  12.183  0.00  0.00    +0.000 A 
ATOM     16  C   UNL     1      43.827   2.334  10.873  0.00  0.00    +0.000 A 
ATOM     17  C   UNL     1      44.626   3.271  10.209  0.00  0.00    +0.000 A 
ATOM     18  C   UNL     1      44.975   4.427  10.925  0.00  0.00    +0.000 A 
BRANCH  17  19
ATOM     19  N   UNL     1      45.027   3.079   8.901  0.00  0.00    +0.000 N 
ATOM     20  C   UNL     1      45.201   1.738   8.347  0.00  0.00    +0.000 C 
ATOM     21  C   UNL     1      46.646   1.567   7.919  0.00  0.00    +0.000 C 
ATOM     22  C   UNL     1      47.024   2.697   6.983  0.00  0.00    +0.000 C 
ATOM     23  F   UNL     1      48.340   2.585   6.661  0.00  0.00    +0.000 F 
ATOM     24  F   UNL     1      46.341   2.557   5.814  0.00  0.00    +0.000 F 
ATOM     25  C   UNL     1      46.765   4.078   7.548  0.00  0.00    +0.000 C 
ATOM     26  C   UNL     1      45.316   4.192   7.998  0.00  0.00    +0.000 C 
ENDBRANCH  17  19
ENDBRANCH   8  13
BRANCH   1  28
ATOM     27  N   UNL     1      52.554  11.244  11.427  0.00  0.00    +0.000 NA
ATOM     28  C   UNL     1      51.690  10.475  11.493  0.00  0.00    +0.000 C 
ENDBRANCH   1  28
TORSDOF 3
ENDMDL
MODEL 2
REMARK VINA RESULT:    -6.922      4.359      6.177
REMARK INTER + INTRA:          -8.403
REMARK INTER:                  -7.869
REMARK INTRA:                  -0.533
REMARK UNBOUND:                -0.266
REMARK  Name = 
REMARK  3 active torsions:
REMARK  status: ('A' for Active; 'I' for Inactive)
REMARK    1  A    between atoms: C_2  and  C_3
REMARK    2  A    between atoms: C_10  and  C_11
REMARK    3  A    between atoms: C_15  and  N_16
REMARK                            x       y       z     vdW  Elec       q    Type
REMARK                         _______ _______ _______ _____ _____    ______ ____
ROOT
ATOM      1  C   UNL     1      50.557   5.777  18.650  0.00  0.00    +0.000 A 
ATOM      2  C   UNL     1      49.430   6.570  18.822  0.00  0.00    +0.000 A 
ATOM      3  C   UNL     1      48.793   7.090  17.697  0.00  0.00    +0.000 A 
ATOM      4  C   UNL     1      49.280   6.813  16.420  0.00  0.00    +0.000 A 
ATOM      5  N   UNL     1      48.704   7.356  15.296  0.00  0.00    +0.000 N 
ATOM      6  C   UNL     1      48.678   6.577  14.065  0.00  0.00    +0.000 C 
ATOM      7  C   UNL     1      49.211   7.395  12.887  0.00  0.00    +0.000 C 
ATOM      8  C   UNL     1      48.560   8.790  12.779  0.00  0.00    +0.000 C 
ATOM      9  C   UNL     1      48.772   9.497  14.136  0.00  0.00    +0.000 C 
ATOM     10  C   UNL     1      48.161   8.705  15.291  0.00  0.00    +0.000 C 
ATOM     11  N   UNL     1      50.354   6.008  16.257  0.00  0.00    +0.000 NA
ATOM     12  C   UNL     1      50.974   5.523  17.358  0.00  0.00    +0.000 A 
ENDROOT
BRANCH   8  13
ATOM     13  C   UNL     1      47.102   8.825  12.320  0.00  0.00    +0.000 A 
ATOM     14  C   UNL     1      46.395  10.013  12.106  0.00  0.00    +0.000 A 
ATOM     15  C   UNL     1      45.098   9.989  11.602  0.00  0.00    +0.000 A 
ATOM     16  C   UNL     1      44.481   8.773  11.317  0.00  0.00    +0.000 A 
ATOM     17  C   UNL     1      45.123   7.553  11.553  0.00  0.00    +0.000 A 
ATOM     18  C   UNL     1      46.418   7.611  12.091  0.00  0.00    +0.000 A 
BRANCH  17  19
ATOM     19  N   UNL     1      44.519   6.349  11.246  0.00  0.00    +0.000 N 
ATOM     20  C   UNL     1      43.077   6.160  11.397  0.00  0.00    +0.000 C 
ATOM     21  C   UNL     1      42.830   5.053  12.404  0.00  0.00    +0.000 C 
ATOM     22  C   UNL     1      43.594   3.815  11.980  0.00  0.00    +0.000 C 
ATOM     23  F   UNL     1      43.434   2.850  12.923  0.00  0.00    +0.000 F 
ATOM     24  F   UNL     1      43.043   3.318  10.840  0.00  0.00    +0.000 F 
ATOM     25  C   UNL     1      45.074   4.051  11.756  0.00  0.00    +0.000 C 
ATOM     26  C   UNL     1      45.275   5.192  10.770  0.00  0.00    +0.000 C 
ENDBRANCH  17  19
ENDBRANCH   8  13
BRANCH   1  28
ATOM     27  N   UNL     1      51.836   4.796  20.669  0.00  0.00    +0.000 NA
ATOM     28  C   UNL     1      51.266   5.235  19.762  0.00  0.00    +0.000 C 
ENDBRANCH   1  28
TORSDOF 3
ENDMDL
MODEL 3
REMARK VINA RESULT:    -6.452      1.901      2.145
REMARK INTER + INTRA:          -7.850
REMARK INTER:                  -7.231
REMARK INTRA:                  -0.619
REMARK UNBOUND:                -0.266
REMARK  Name = 
REMARK  3 active torsions:
REMARK  status: ('A' for Active; 'I' for Inactive)
REMARK    1  A    between atoms: C_2  and  C_3
REMARK    2  A    between atoms: C_10  and  C_11
REMARK    3  A    between atoms: C_15  and  N_16
REMARK                            x       y       z     vdW  Elec       q    Type
REMARK                         _______ _______ _______ _____ _____    ______ ____
ROOT
ATOM      1  C   UNL     1      51.999   8.900  14.590  0.00  0.00    +0.000 A 
ATOM      2  C   UNL     1      51.320   7.926  15.312  0.00  0.00    +0.000 A 
ATOM      3  C   UNL     1      50.145   7.392  14.785  0.00  0.00    +0.000 A 
ATOM      4  C   UNL     1      49.664   7.829  13.551  0.00  0.00    +0.000 A 
ATOM      5  N   UNL     1      48.481   7.359  13.032  0.00  0.00    +0.000 N 
ATOM      6  C   UNL     1      48.350   7.203  11.590  0.00  0.00    +0.000 C 
ATOM      7  C   UNL     1      47.073   7.873  11.078  0.00  0.00    +0.000 C 
ATOM      8  C   UNL     1      45.820   7.474  11.884  0.00  0.00    +0.000 C 
ATOM      9  C   UNL     1      46.108   7.800  13.366  0.00  0.00    +0.000 C 
ATOM     10  C   UNL     1      47.340   7.058  13.882  0.00  0.00    +0.000 C 
ATOM     11  N   UNL     1      50.351   8.748  12.835  0.00  0.00    +0.000 NA
ATOM     12  C   UNL     1      51.480   9.271  13.365  0.00  0.00    +0.000 A 
ENDROOT
BRANCH   8  13
ATOM     13  C   UNL     1      45.312   6.045  11.685  0.00  0.00    +0.000 A 
ATOM     14  C   UNL     1      44.580   5.352  12.655  0.00  0.00    +0.000 A 
ATOM     15  C   UNL     1      44.065   4.087  12.389  0.00  0.00    +0.000 A 
ATOM     16  C   UNL     1      44.286   3.488  11.150  0.00  0.00    +0.000 A 
ATOM     17  C   UNL     1      45.049   4.115  10.159  0.00  0.00    +0.000 A 
ATOM     18  C   UNL     1      45.579   5.377  10.471  0.00  0.00    +0.000 A 
BRANCH  17  19
ATOM     19  N   UNL     1      45.246   3.532   8.923  0.00  0.00    +0.000 N 
ATOM     20  C   UNL     1      44.976   2.112   8.699  0.00  0.00    +0.000 C 
ATOM     21  C   UNL     1      46.262   1.428   8.280  0.00  0.00    +0.000 C 
ATOM     22  C   UNL     1      46.850   2.160   7.090  0.00  0.00    +0.000 C 
ATOM     23  F   UNL     1      48.041   1.592   6.764  0.00  0.00    +0.000 F 
ATOM     24  F   UNL     1      46.042   1.979   6.010  0.00  0.00    +0.000 F 
ATOM     25  C   UNL     1      47.052   3.644   7.318  0.00  0.00    +0.000 C 
ATOM     26  C   UNL     1      45.747   4.282   7.773  0.00  0.00    +0.000 C 
ENDBRANCH  17  19
ENDBRANCH   8  13
BRANCH   1  28
ATOM     27  N   UNL     1      54.159   9.993  15.491  0.00  0.00    +0.000 NA
ATOM     28  C   UNL     1      53.192   9.500  15.086  0.00  0.00    +0.000 C 
ENDBRANCH   1  28
TORSDOF 3
ENDMDL
MODEL 4
REMARK VINA RESULT:    -6.193      5.497      7.155
REMARK INTER + INTRA:          -7.546
REMARK INTER:                  -6.912
REMARK INTRA:                  -0.634
REMARK UNBOUND:                -0.266
REMARK  Name = 
REMARK  3 active torsions:
REMARK  status: ('A' for Active; 'I' for Inactive)
REMARK    1  A    between atoms: C_2  and  C_3
REMARK    2  A    between atoms: C_10  and  C_11
REMARK    3  A    between atoms: C_15  and  N_16
REMARK                            x       y       z     vdW  Elec       q    Type
REMARK                         _______ _______ _______ _____ _____    ______ ____
ROOT
ATOM      1  C   UNL     1      53.188   3.648  19.242  0.00  0.00    +0.000 A 
ATOM      2  C   UNL     1      52.200   3.014  18.499  0.00  0.00    +0.000 A 
ATOM      3  C   UNL     1      51.437   3.768  17.609  0.00  0.00    +0.000 A 
ATOM      4  C   UNL     1      51.668   5.135  17.466  0.00  0.00    +0.000 A 
ATOM      5  N   UNL     1      50.895   5.913  16.636  0.00  0.00    +0.000 N 
ATOM      6  C   UNL     1      51.511   7.033  15.938  0.00  0.00    +0.000 C 
ATOM      7  C   UNL     1      50.698   8.315  16.133  0.00  0.00    +0.000 C 
ATOM      8  C   UNL     1      49.195   8.125  15.843  0.00  0.00    +0.000 C 
ATOM      9  C   UNL     1      48.701   6.967  16.739  0.00  0.00    +0.000 C 
ATOM     10  C   UNL     1      49.471   5.674  16.472  0.00  0.00    +0.000 C 
ATOM     11  N   UNL     1      52.657   5.739  18.163  0.00  0.00    +0.000 NA
ATOM     12  C   UNL     1      53.379   5.000  19.036  0.00  0.00    +0.000 A 
ENDROOT
BRANCH   8  13
ATOM     13  C   UNL     1      48.805   7.939  14.376  0.00  0.00    +0.000 A 
ATOM     14  C   UNL     1      49.598   8.380  13.312  0.00  0.00    +0.000 A 
ATOM     15  C   UNL     1      49.240   8.106  11.995  0.00  0.00    +0.000 A 
ATOM     16  C   UNL     1      48.072   7.397  11.721  0.00  0.00    +0.000 A 
ATOM     17  C   UNL     1      47.217   6.972  12.743  0.00  0.00    +0.000 A 
ATOM     18  C   UNL     1      47.592   7.291  14.058  0.00  0.00    +0.000 A 
BRANCH  17  19
ATOM     19  N   UNL     1      46.072   6.247  12.471  0.00  0.00    +0.000 N 
ATOM     20  C   UNL     1      45.601   5.200  13.376  0.00  0.00    +0.000 C 
ATOM     21  C   UNL     1      45.590   3.878  12.634  0.00  0.00    +0.000 C 
ATOM     22  C   UNL     1      44.784   4.030  11.359  0.00  0.00    +0.000 C 
ATOM     23  F   UNL     1      44.840   2.866  10.659  0.00  0.00    +0.000 F 
ATOM     24  F   UNL     1      43.474   4.211  11.678  0.00  0.00    +0.000 F 
ATOM     25  C   UNL     1      45.243   5.169  10.472  0.00  0.00    +0.000 C 
ATOM     26  C   UNL     1      45.274   6.466  11.266  0.00  0.00    +0.000 C 
ENDBRANCH  17  19
ENDBRANCH   8  13
BRANCH   1  28
ATOM     27  N   UNL     1      54.634   2.354  20.948  0.00  0.00    +0.000 NA
ATOM     28  C   UNL     1      53.985   2.937  20.185  0.00  0.00    +0.000 C 
ENDBRANCH   1  28
TORSDOF 3
ENDMDL
MODEL 5
REMARK VINA RESULT:    -6.015      5.526      9.297
REMARK INTER + INTRA:          -7.336
REMARK INTER:                  -6.911
REMARK INTRA:                  -0.425
REMARK UNBOUND:                -0.266
REMARK  Name = 
REMARK  3 active torsions:
REMARK  status: ('A' for Active; 'I' for Inactive)
REMARK    1  A    between atoms: C_2  and  C_3
REMARK    2  A    between atoms: C_10  and  C_11
REMARK    3  A    between atoms: C_15  and  N_16
REMARK                            x       y       z     vdW  Elec       q    Type
REMARK                         _______ _______ _______ _____ _____    ______ ____
ROOT
ATOM      1  C   UNL     1      45.236   4.167  11.124  0.00  0.00    +0.000 A 
ATOM      2  C   UNL     1      45.609   3.786  12.407  0.00  0.00    +0.000 A 
ATOM      3  C   UNL     1      46.265   4.708  13.221  0.00  0.00    +0.000 A 
ATOM      4  C   UNL     1      46.536   5.993  12.752  0.00  0.00    +0.000 A 
ATOM      5  N   UNL     1      47.228   6.906  13.513  0.00  0.00    +0.000 N 
ATOM      6  C   UNL     1      46.891   8.319  13.406  0.00  0.00    +0.000 C 
ATOM      7  C   UNL     1      48.143   9.166  13.172  0.00  0.00    +0.000 C 
ATOM      8  C   UNL     1      49.279   8.849  14.168  0.00  0.00    +0.000 C 
ATOM      9  C   UNL     1      49.561   7.333  14.069  0.00  0.00    +0.000 C 
ATOM     10  C   UNL     1      48.318   6.502  14.386  0.00  0.00    +0.000 C 
ATOM     11  N   UNL     1      46.135   6.370  11.517  0.00  0.00    +0.000 NA
ATOM     12  C   UNL     1      45.515   5.461  10.731  0.00  0.00    +0.000 A 
ENDROOT
BRANCH   8  13
ATOM     13  C   UNL     1      49.068   9.315  15.609  0.00  0.00    +0.000 A 
ATOM     14  C   UNL     1      48.820  10.647  15.954  0.00  0.00    +0.000 A 
ATOM     15  C   UNL     1      48.546  11.003  17.271  0.00  0.00    +0.000 A 
ATOM     16  C   UNL     1      48.530  10.031  18.269  0.00  0.00    +0.000 A 
ATOM     17  C   UNL     1      48.816   8.690  17.990  0.00  0.00    +0.000 A 
ATOM     18  C   UNL     1      49.118   8.370  16.657  0.00  0.00    +0.000 A 
BRANCH  17  19
ATOM     19  N   UNL     1      48.774   7.723  18.976  0.00  0.00    +0.000 N 
ATOM     20  C   UNL     1      49.992   7.074  19.457  0.00  0.00    +0.000 C 
ATOM     21  C   UNL     1      49.897   5.586  19.182  0.00  0.00    +0.000 C 
ATOM     22  C   UNL     1      48.611   5.051  19.780  0.00  0.00    +0.000 C 
ATOM     23  F   UNL     1      48.490   3.734  19.468  0.00  0.00    +0.000 F 
ATOM     24  F   UNL     1      48.693   5.106  21.137  0.00  0.00    +0.000 F 
ATOM     25  C   UNL     1      47.367   5.788  19.326  0.00  0.00    +0.000 C 
ATOM     26  C   UNL     1      47.523   7.279  19.586  0.00  0.00    +0.000 C 
ENDBRANCH  17  19
ENDBRANCH   8  13
BRANCH   1  28
ATOM     27  N   UNL     1      44.059   2.524   9.513  0.00  0.00    +0.000 NA
ATOM     28  C   UNL     1      44.584   3.261  10.237  0.00  0.00    +0.000 C 
ENDBRANCH   1  28
TORSDOF 3
ENDMDL
MODEL 6
REMARK VINA RESULT:    -5.925      6.998      9.705
REMARK INTER + INTRA:          -7.230
REMARK INTER:                  -6.662
REMARK INTRA:                  -0.569
REMARK UNBOUND:                -0.266
REMARK  Name = 
REMARK  3 active torsions:
REMARK  status: ('A' for Active; 'I' for Inactive)
REMARK    1  A    between atoms: C_2  and  C_3
REMARK    2  A    between atoms: C_10  and  C_11
REMARK    3  A    between atoms: C_15  and  N_16
REMARK                            x       y       z     vdW  Elec       q    Type
REMARK                         _______ _______ _______ _____ _____    ______ ____
ROOT
ATOM      1  C   UNL     1      45.289   4.627  11.784  0.00  0.00    +0.000 A 
ATOM      2  C   UNL     1      46.033   5.721  12.209  0.00  0.00    +0.000 A 
ATOM      3  C   UNL     1      46.820   5.599  13.353  0.00  0.00    +0.000 A 
ATOM      4  C   UNL     1      46.862   4.394  14.054  0.00  0.00    +0.000 A 
ATOM      5  N   UNL     1      47.586   4.262  15.214  0.00  0.00    +0.000 N 
ATOM      6  C   UNL     1      48.219   2.984  15.514  0.00  0.00    +0.000 C 
ATOM      7  C   UNL     1      47.880   2.522  16.933  0.00  0.00    +0.000 C 
ATOM      8  C   UNL     1      48.111   3.618  17.994  0.00  0.00    +0.000 C 
ATOM      9  C   UNL     1      47.290   4.853  17.559  0.00  0.00    +0.000 C 
ATOM     10  C   UNL     1      47.700   5.349  16.173  0.00  0.00    +0.000 C 
ATOM     11  N   UNL     1      46.166   3.321  13.613  0.00  0.00    +0.000 NA
ATOM     12  C   UNL     1      45.393   3.458  12.512  0.00  0.00    +0.000 A 
ENDROOT
BRANCH   8  13
ATOM     13  C   UNL     1      49.568   3.962  18.308  0.00  0.00    +0.000 A 
ATOM     14  C   UNL     1      49.944   5.066  19.081  0.00  0.00    +0.000 A 
ATOM     15  C   UNL     1      51.278   5.282  19.411  0.00  0.00    +0.000 A 
ATOM     16  C   UNL     1      52.261   4.403  18.961  0.00  0.00    +0.000 A 
ATOM     17  C   UNL     1      51.949   3.309  18.147  0.00  0.00    +0.000 A 
ATOM     18  C   UNL     1      50.598   3.137  17.807  0.00  0.00    +0.000 A 
BRANCH  17  19
ATOM     19  N   UNL     1      52.922   2.425  17.723  0.00  0.00    +0.000 N 
ATOM     20  C   UNL     1      52.589   1.055  17.337  0.00  0.00    +0.000 C 
ATOM     21  C   UNL     1      53.321   0.095  18.254  0.00  0.00    +0.000 C 
ATOM     22  C   UNL     1      54.801   0.420  18.237  0.00  0.00    +0.000 C 
ATOM     23  F   UNL     1      55.444  -0.391  19.117  0.00  0.00    +0.000 F 
ATOM     24  F   UNL     1      55.310   0.119  17.011  0.00  0.00    +0.000 F 
ATOM     25  C   UNL     1      55.118   1.864  18.566  0.00  0.00    +0.000 C 
ATOM     26  C   UNL     1      54.335   2.791  17.648  0.00  0.00    +0.000 C 
ENDBRANCH  17  19
ENDBRANCH   8  13
BRANCH   1  28
ATOM     27  N   UNL     1      43.768   4.753   9.699  0.00  0.00    +0.000 NA
ATOM     28  C   UNL     1      44.448   4.697  10.636  0.00  0.00    +0.000 C 
ENDBRANCH   1  28
TORSDOF 3
ENDMDL
MODEL 7
REMARK VINA RESULT:    -5.693      4.921      9.244
REMARK INTER + INTRA:          -6.957
REMARK INTER:                  -6.854
REMARK INTRA:                  -0.103
REMARK UNBOUND:                -0.266
REMARK  Name = 
REMARK  3 active torsions:
REMARK  status: ('A' for Active; 'I' for Inactive)
REMARK    1  A    between atoms: C_2  and  C_3
REMARK    2  A    between atoms: C_10  and  C_11
REMARK    3  A    between atoms: C_15  and  N_16
REMARK                            x       y       z     vdW  Elec       q    Type
REMARK                         _______ _______ _______ _____ _____    ______ ____
ROOT
ATOM      1  C   UNL     1      44.671   3.961  12.092  0.00  0.00    +0.000 A 
ATOM      2  C   UNL     1      45.724   3.714  12.964  0.00  0.00    +0.000 A 
ATOM      3  C   UNL     1      46.605   4.751  13.270  0.00  0.00    +0.000 A 
ATOM      4  C   UNL     1      46.425   6.016  12.710  0.00  0.00    +0.000 A 
ATOM      5  N   UNL     1      47.307   7.041  12.951  0.00  0.00    +0.000 N 
ATOM      6  C   UNL     1      46.805   8.407  13.026  0.00  0.00    +0.000 C 
ATOM      7  C   UNL     1      47.619   9.342  12.129  0.00  0.00    +0.000 C 
ATOM      8  C   UNL     1      49.142   9.204  12.341  0.00  0.00    +0.000 C 
ATOM      9  C   UNL     1      49.499   7.716  12.127  0.00  0.00    +0.000 C 
ATOM     10  C   UNL     1      48.735   6.805  13.087  0.00  0.00    +0.000 C 
ATOM     11  N   UNL     1      45.375   6.260  11.893  0.00  0.00    +0.000 NA
ATOM     12  C   UNL     1      44.538   5.241  11.591  0.00  0.00    +0.000 A 
ENDROOT
BRANCH   8  13
ATOM     13  C   UNL     1      49.697   9.758  13.654  0.00  0.00    +0.000 A 
ATOM     14  C   UNL     1      50.320  11.006  13.755  0.00  0.00    +0.000 A 
ATOM     15  C   UNL     1      50.728  11.501  14.990  0.00  0.00    +0.000 A 
ATOM     16  C   UNL     1      50.529  10.747  16.145  0.00  0.00    +0.000 A 
ATOM     17  C   UNL     1      49.952   9.474  16.099  0.00  0.00    +0.000 A 
ATOM     18  C   UNL     1      49.581   8.992  14.834  0.00  0.00    +0.000 A 
BRANCH  17  19
ATOM     19  N   UNL     1      49.733   8.739  17.248  0.00  0.00    +0.000 N 
ATOM     20  C   UNL     1      50.082   7.322  17.323  0.00  0.00    +0.000 C 
ATOM     21  C   UNL     1      48.823   6.519  17.590  0.00  0.00    +0.000 C 
ATOM     22  C   UNL     1      48.132   7.072  18.820  0.00  0.00    +0.000 C 
ATOM     23  F   UNL     1      46.965   6.402  19.013  0.00  0.00    +0.000 F 
ATOM     24  F   UNL     1      48.896   6.813  19.916  0.00  0.00    +0.000 F 
ATOM     25  C   UNL     1      47.847   8.558  18.752  0.00  0.00    +0.000 C 
ATOM     26  C   UNL     1      49.129   9.319  18.446  0.00  0.00    +0.000 C 
ENDBRANCH  17  19
ENDBRANCH   8  13
BRANCH   1  28
ATOM     27  N   UNL     1      43.009   2.102  11.418  0.00  0.00    +0.000 NA
ATOM     28  C   UNL     1      43.752   2.936  11.723  0.00  0.00    +0.000 C 
ENDBRANCH   1  28
TORSDOF 3
ENDMDL
MODEL 8
REMARK VINA RESULT:    -5.653      1.860      2.351
REMARK INTER + INTRA:          -6.911
REMARK INTER:                  -6.527
REMARK INTRA:                  -0.384
REMARK UNBOUND:                -0.266
REMARK  Name = 
REMARK  3 active torsions:
REMARK  status: ('A' for Active; 'I' for Inactive)
REMARK    1  A    between atoms: C_2  and  C_3
REMARK    2  A    between atoms: C_10  and  C_11
REMARK    3  A    between atoms: C_15  and  N_16
REMARK                            x       y       z     vdW  Elec       q    Type
REMARK                         _______ _______ _______ _____ _____    ______ ____
ROOT
ATOM      1  C   UNL     1      49.561   8.866  14.631  0.00  0.00    +0.000 A 
ATOM      2  C   UNL     1      49.506   7.520  14.970  0.00  0.00    +0.000 A 
ATOM      3  C   UNL     1      48.594   6.695  14.311  0.00  0.00    +0.000 A 
ATOM      4  C   UNL     1      47.758   7.217  13.325  0.00  0.00    +0.000 A 
ATOM      5  N   UNL     1      46.814   6.440  12.697  0.00  0.00    +0.000 N 
ATOM      6  C   UNL     1      46.501   6.695  11.297  0.00  0.00    +0.000 C 
ATOM      7  C   UNL     1      44.991   6.820  11.085  0.00  0.00    +0.000 C 
ATOM      8  C   UNL     1      44.196   5.659  11.720  0.00  0.00    +0.000 C 
ATOM      9  C   UNL     1      44.584   5.606  13.215  0.00  0.00    +0.000 C 
ATOM     10  C   UNL     1      46.086   5.399  13.406  0.00  0.00    +0.000 C 
ATOM     11  N   UNL     1      47.845   8.520  12.972  0.00  0.00    +0.000 NA
ATOM     12  C   UNL     1      48.721   9.312  13.631  0.00  0.00    +0.000 A 
ENDROOT
BRANCH   8  13
ATOM     13  C   UNL     1      44.318   4.298  11.033  0.00  0.00    +0.000 A 
ATOM     14  C   UNL     1      43.471   3.221  11.316  0.00  0.00    +0.000 A 
ATOM     15  C   UNL     1      43.567   2.033  10.598  0.00  0.00    +0.000 A 
ATOM     16  C   UNL     1      44.524   1.898   9.593  0.00  0.00    +0.000 A 
ATOM     17  C   UNL     1      45.426   2.926   9.299  0.00  0.00    +0.000 A 
ATOM     18  C   UNL     1      45.322   4.099  10.062  0.00  0.00    +0.000 A 
BRANCH  17  19
ATOM     19  N   UNL     1      46.357   2.800   8.285  0.00  0.00    +0.000 N 
ATOM     20  C   UNL     1      46.916   3.973   7.615  0.00  0.00    +0.000 C 
ATOM     21  C   UNL     1      46.562   3.912   6.142  0.00  0.00    +0.000 C 
ATOM     22  C   UNL     1      47.013   2.580   5.577  0.00  0.00    +0.000 C 
ATOM     23  F   UNL     1      46.627   2.497   4.276  0.00  0.00    +0.000 F 
ATOM     24  F   UNL     1      48.373   2.536   5.566  0.00  0.00    +0.000 F 
ATOM     25  C   UNL     1      46.482   1.379   6.332  0.00  0.00    +0.000 C 
ATOM     26  C   UNL     1      46.826   1.500   7.809  0.00  0.00    +0.000 C 
ENDBRANCH  17  19
ENDBRANCH   8  13
BRANCH   1  28
ATOM     27  N   UNL     1      51.177  10.497  15.816  0.00  0.00    +0.000 NA
ATOM     28  C   UNL     1      50.455   9.763  15.285  0.00  0.00    +0.000 C 
ENDBRANCH   1  28
TORSDOF 3
ENDMDL
MODEL 9
REMARK VINA RESULT:    -5.616      3.292      8.133
REMARK INTER + INTRA:          -6.867
REMARK INTER:                  -6.523
REMARK INTRA:                  -0.344
REMARK UNBOUND:                -0.266
REMARK  Name = 
REMARK  3 active torsions:
REMARK  status: ('A' for Active; 'I' for Inactive)
REMARK    1  A    between atoms: C_2  and  C_3
REMARK    2  A    between atoms: C_10  and  C_11
REMARK    3  A    between atoms: C_15  and  N_16
REMARK                            x       y       z     vdW  Elec       q    Type
REMARK                         _______ _______ _______ _____ _____    ______ ____
ROOT
ATOM      1  C   UNL     1      44.668   3.951  11.795  0.00  0.00    +0.000 A 
ATOM      2  C   UNL     1      44.796   4.893  10.782  0.00  0.00    +0.000 A 
ATOM      3  C   UNL     1      45.750   5.902  10.916  0.00  0.00    +0.000 A 
ATOM      4  C   UNL     1      46.563   5.957  12.048  0.00  0.00    +0.000 A 
ATOM      5  N   UNL     1      47.474   6.970  12.231  0.00  0.00    +0.000 N 
ATOM      6  C   UNL     1      48.729   6.681  12.912  0.00  0.00    +0.000 C 
ATOM      7  C   UNL     1      48.989   7.687  14.035  0.00  0.00    +0.000 C 
ATOM      8  C   UNL     1      48.827   9.152  13.579  0.00  0.00    +0.000 C 
ATOM      9  C   UNL     1      47.411   9.288  12.976  0.00  0.00    +0.000 C 
ATOM     10  C   UNL     1      47.198   8.332  11.803  0.00  0.00    +0.000 C 
ATOM     11  N   UNL     1      46.460   5.013  13.011  0.00  0.00    +0.000 NA
ATOM     12  C   UNL     1      45.519   4.051  12.878  0.00  0.00    +0.000 A 
ENDROOT
BRANCH   8  13
ATOM     13  C   UNL     1      49.914   9.699  12.652  0.00  0.00    +0.000 A 
ATOM     14  C   UNL     1      50.111  11.065  12.427  0.00  0.00    +0.000 A 
ATOM     15  C   UNL     1      51.172  11.513  11.645  0.00  0.00    +0.000 A 
ATOM     16  C   UNL     1      52.047  10.597  11.064  0.00  0.00    +0.000 A 
ATOM     17  C   UNL     1      51.872   9.217  11.218  0.00  0.00    +0.000 A 
ATOM     18  C   UNL     1      50.775   8.800  11.987  0.00  0.00    +0.000 A 
BRANCH  17  19
ATOM     19  N   UNL     1      52.755   8.312  10.662  0.00  0.00    +0.000 N 
ATOM     20  C   UNL     1      54.201   8.513  10.739  0.00  0.00    +0.000 C 
ATOM     21  C   UNL     1      54.756   8.624   9.332  0.00  0.00    +0.000 C 
ATOM     22  C   UNL     1      54.323   7.414   8.529  0.00  0.00    +0.000 C 
ATOM     23  F   UNL     1      54.757   7.553   7.249  0.00  0.00    +0.000 F 
ATOM     24  F   UNL     1      54.946   6.307   9.017  0.00  0.00    +0.000 F 
ATOM     25  C   UNL     1      52.826   7.181   8.525  0.00  0.00    +0.000 C 
ATOM     26  C   UNL     1      52.307   7.114   9.954  0.00  0.00    +0.000 C 
ENDBRANCH  17  19
ENDBRANCH   8  13
BRANCH   1  28
ATOM     27  N   UNL     1      42.906   2.065  11.666  0.00  0.00    +0.000 NA
ATOM     28  C   UNL     1      43.696   2.910  11.727  0.00  0.00    +0.000 C 
ENDBRANCH   1  28
TORSDOF 3
ENDMDL
