MODEL 1
REMARK VINA RESULT:    -7.894      0.000      0.000
REMARK INTER + INTRA:         -11.391
REMARK INTER:                 -10.663
REMARK INTRA:                  -0.729
REMARK UNBOUND:                -0.729
REMARK  Name = 
REMARK  7 active torsions:
REMARK  status: ('A' for Active; 'I' for Inactive)
REMARK    1  A    between atoms: C_1  and  N_2
REMARK    2  A    between atoms: N_2  and  C_3
REMARK    3  A    between atoms: C_3  and  C_4
REMARK    4  A    between atoms: C_7  and  C_8
REMARK    5  A    between atoms: C_8  and  N_9
REMARK    6  A    between atoms: C_10  and  C_12
REMARK    7  A    between atoms: C_24  and  C_26
REMARK                            x       y       z     vdW  Elec       q    Type
REMARK                         _______ _______ _______ _____ _____    ______ ____
ROOT
ATOM      1  C   UNL     1      45.225   6.773  11.416  0.00  0.00    +0.000 A 
ATOM      2  C   UNL     1      44.884   7.978  12.048  0.00  0.00    +0.000 A 
ATOM      3  C   UNL     1      45.789   8.620  12.900  0.00  0.00    +0.000 A 
ATOM      4  C   UNL     1      47.064   8.084  13.124  0.00  0.00    +0.000 A 
ATOM      5  C   UNL     1      47.421   6.904  12.456  0.00  0.00    +0.000 A 
ATOM      6  C   UNL     1      46.515   6.261  11.605  0.00  0.00    +0.000 A 
ENDROOT
BRANCH   1   7
ATOM      7  C   UNL     1      44.183   5.976  10.663  0.00  0.00    +0.000 C 
BRANCH   7   9
ATOM      8  C   UNL     1      42.674   5.009  12.454  0.00  0.00    +0.000 C 
ATOM      9  N   UNL     1      43.551   4.823  11.311  0.00  0.00    +0.000 N 
ATOM     10  C   UNL     1      43.617   3.532  10.749  0.00  0.00    +0.000 C 
ATOM     11  O   UNL     1      42.957   2.604  11.228  0.00  0.00    +0.000 OA
BRANCH  10  12
ATOM     12  C   UNL     1      44.484   3.268   9.598  0.00  0.00    +0.000 A 
ATOM     13  N   UNL     1      44.700   4.037   8.543  0.00  0.00    +0.000 NA
ATOM     14  C   UNL     1      45.593   3.365   7.750  0.00  0.00    +0.000 A 
ATOM     15  C   UNL     1      45.940   2.168   8.322  0.00  0.00    +0.000 A 
ATOM     16  N   UNL     1      45.231   2.114   9.488  0.00  0.00    +0.000 N 
ATOM     17  H   UNL     1      45.233   1.374  10.178  0.00  0.00    +0.000 HD
ENDBRANCH  10  12
ENDBRANCH   7   9
ENDBRANCH   1   7
BRANCH   4  18
ATOM     18  C   UNL     1      48.009   8.723  14.112  0.00  0.00    +0.000 C 
BRANCH  18  19
ATOM     19  N   UNL     1      48.227   7.873  15.260  0.00  0.00    +0.000 N 
ATOM     20  C   UNL     1      49.355   7.096  15.361  0.00  0.00    +0.000 C 
ATOM     21  O   UNL     1      50.242   7.131  14.512  0.00  0.00    +0.000 OA
ATOM     22  H   UNL     1      47.426   7.673  15.852  0.00  0.00    +0.000 HD
BRANCH  20  23
ATOM     23  C   UNL     1      49.485   6.256  16.562  0.00  0.00    +0.000 A 
ATOM     24  C   UNL     1      50.467   6.551  17.500  0.00  0.00    +0.000 A 
ATOM     25  S   UNL     1      50.462   5.511  18.851  0.00  0.00    +0.000 S 
ATOM     26  C   UNL     1      49.181   4.595  18.210  0.00  0.00    +0.000 A 
ATOM     27  N   UNL     1      48.698   3.510  18.873  0.00  0.00    +0.000 NA
ATOM     28  C   UNL     1      47.750   2.887  18.257  0.00  0.00    +0.000 A 
ATOM     29  N   UNL     1      47.234   3.257  17.042  0.00  0.00    +0.000 N 
ATOM     30  C   UNL     1      47.671   4.361  16.348  0.00  0.00    +0.000 A 
ATOM     31  O   UNL     1      47.163   4.685  15.280  0.00  0.00    +0.000 OA
ATOM     32  C   UNL     1      48.749   5.089  16.990  0.00  0.00    +0.000 A 
ATOM     33  H   UNL     1      46.486   2.730  16.617  0.00  0.00    +0.000 HD
ENDBRANCH  20  23
ENDBRANCH  18  19
ENDBRANCH   4  18
TORSDOF 6
ENDMDL
MODEL 2
REMARK VINA RESULT:    -7.769      2.106      2.379
REMARK INTER + INTRA:         -11.223
REMARK INTER:                 -10.537
REMARK INTRA:                  -0.685
REMARK UNBOUND:                -0.729
REMARK  Name = 
REMARK  7 active torsions:
REMARK  status: ('A' for Active; 'I' for Inactive)
REMARK    1  A    between atoms: C_1  and  N_2
REMARK    2  A    between atoms: N_2  and  C_3
REMARK    3  A    between atoms: C_3  and  C_4
REMARK    4  A    between atoms: C_7  and  C_8
REMARK    5  A    between atoms: C_8  and  N_9
REMARK    6  A    between atoms: C_10  and  C_12
REMARK    7  A    between atoms: C_24  and  C_26
REMARK                            x       y       z     vdW  Elec       q    Type
REMARK                         _______ _______ _______ _____ _____    ______ ____
ROOT
ATOM      1  C   UNL     1      46.595   6.109  12.287  0.00  0.00    +0.000 A 
ATOM      2  C   UNL     1      47.006   7.449  12.322  0.00  0.00    +0.000 A 
ATOM      3  C   UNL     1      47.793   7.928  13.376  0.00  0.00    +0.000 A 
ATOM      4  C   UNL     1      48.203   7.074  14.408  0.00  0.00    +0.000 A 
ATOM      5  C   UNL     1      47.830   5.724  14.348  0.00  0.00    +0.000 A 
ATOM      6  C   UNL     1      47.043   5.245  13.295  0.00  0.00    +0.000 A 
ENDROOT
BRANCH   1   7
ATOM      7  C   UNL     1      45.582   5.641  11.265  0.00  0.00    +0.000 C 
BRANCH   7   9
ATOM      8  C   UNL     1      43.685   5.230  12.894  0.00  0.00    +0.000 C 
ATOM      9  N   UNL     1      44.428   4.850  11.704  0.00  0.00    +0.000 N 
ATOM     10  C   UNL     1      43.891   3.821  10.905  0.00  0.00    +0.000 C 
ATOM     11  O   UNL     1      42.833   3.267  11.223  0.00  0.00    +0.000 OA
BRANCH  10  12
ATOM     12  C   UNL     1      44.589   3.382   9.695  0.00  0.00    +0.000 A 
ATOM     13  N   UNL     1      44.748   4.040   8.559  0.00  0.00    +0.000 NA
ATOM     14  C   UNL     1      45.477   3.221   7.735  0.00  0.00    +0.000 A 
ATOM     15  C   UNL     1      45.777   2.043   8.370  0.00  0.00    +0.000 A 
ATOM     16  N   UNL     1      45.208   2.152   9.607  0.00  0.00    +0.000 N 
ATOM     17  H   UNL     1      45.224   1.472  10.356  0.00  0.00    +0.000 HD
ENDBRANCH  10  12
ENDBRANCH   7   9
ENDBRANCH   1   7
BRANCH   4  18
ATOM     18  C   UNL     1      48.972   7.606  15.592  0.00  0.00    +0.000 C 
BRANCH  18  19
ATOM     19  N   UNL     1      49.988   6.675  16.025  0.00  0.00    +0.000 N 
ATOM     20  C   UNL     1      49.916   6.068  17.254  0.00  0.00    +0.000 C 
ATOM     21  O   UNL     1      48.963   6.249  18.009  0.00  0.00    +0.000 OA
ATOM     22  H   UNL     1      50.870   6.678  15.518  0.00  0.00    +0.000 HD
BRANCH  20  23
ATOM     23  C   UNL     1      51.002   5.142  17.610  0.00  0.00    +0.000 A 
ATOM     24  C   UNL     1      52.192   5.647  18.119  0.00  0.00    +0.000 A 
ATOM     25  S   UNL     1      53.334   4.444  18.520  0.00  0.00    +0.000 S 
ATOM     26  C   UNL     1      52.301   3.207  17.979  0.00  0.00    +0.000 A 
ATOM     27  N   UNL     1      52.692   1.905  18.017  0.00  0.00    +0.000 NA
ATOM     28  C   UNL     1      51.825   1.073  17.545  0.00  0.00    +0.000 A 
ATOM     29  N   UNL     1      50.598   1.426  17.046  0.00  0.00    +0.000 N 
ATOM     30  C   UNL     1      50.148   2.724  17.012  0.00  0.00    +0.000 A 
ATOM     31  O   UNL     1      49.029   3.002  16.593  0.00  0.00    +0.000 OA
ATOM     32  C   UNL     1      51.093   3.703  17.518  0.00  0.00    +0.000 A 
ATOM     33  H   UNL     1      49.962   0.724  16.697  0.00  0.00    +0.000 HD
ENDBRANCH  20  23
ENDBRANCH  18  19
ENDBRANCH   4  18
TORSDOF 6
ENDMDL
MODEL 3
REMARK VINA RESULT:    -7.279      1.742      2.116
REMARK INTER + INTRA:         -10.560
REMARK INTER:                  -9.943
REMARK INTRA:                  -0.618
REMARK UNBOUND:                -0.729
REMARK  Name = 
REMARK  7 active torsions:
REMARK  status: ('A' for Active; 'I' for Inactive)
REMARK    1  A    between atoms: C_1  and  N_2
REMARK    2  A    between atoms: N_2  and  C_3
REMARK    3  A    between atoms: C_3  and  C_4
REMARK    4  A    between atoms: C_7  and  C_8
REMARK    5  A    between atoms: C_8  and  N_9
REMARK    6  A    between atoms: C_10  and  C_12
REMARK    7  A    between atoms: C_24  and  C_26
REMARK                            x       y       z     vdW  Elec       q    Type
REMARK                         _______ _______ _______ _____ _____    ______ ____
ROOT
ATOM      1  C   UNL     1      45.480   6.568  11.790  0.00  0.00    +0.000 A 
ATOM      2  C   UNL     1      45.294   7.924  12.100  0.00  0.00    +0.000 A 
ATOM      3  C   UNL     1      46.177   8.589  12.958  0.00  0.00    +0.000 A 
ATOM      4  C   UNL     1      47.278   7.920  13.510  0.00  0.00    +0.000 A 
ATOM      5  C   UNL     1      47.489   6.578  13.164  0.00  0.00    +0.000 A 
ATOM      6  C   UNL     1      46.605   5.912  12.306  0.00  0.00    +0.000 A 
ENDROOT
BRANCH   1   7
ATOM      7  C   UNL     1      44.420   5.798  11.033  0.00  0.00    +0.000 C 
BRANCH   7   9
ATOM      8  C   UNL     1      43.017   4.836  12.910  0.00  0.00    +0.000 C 
ATOM      9  N   UNL     1      43.762   4.657  11.675  0.00  0.00    +0.000 N 
ATOM     10  C   UNL     1      43.669   3.404  11.038  0.00  0.00    +0.000 C 
ATOM     11  O   UNL     1      42.985   2.499  11.529  0.00  0.00    +0.000 OA
BRANCH  10  12
ATOM     12  C   UNL     1      44.397   3.149   9.794  0.00  0.00    +0.000 A 
ATOM     13  N   UNL     1      45.317   2.228   9.558  0.00  0.00    +0.000 NA
ATOM     14  C   UNL     1      45.691   2.379   8.247  0.00  0.00    +0.000 A 
ATOM     15  C   UNL     1      44.991   3.403   7.662  0.00  0.00    +0.000 A 
ATOM     16  N   UNL     1      44.179   3.886   8.648  0.00  0.00    +0.000 N 
ATOM     17  H   UNL     1      43.515   4.647   8.583  0.00  0.00    +0.000 HD
ENDBRANCH  10  12
ENDBRANCH   7   9
ENDBRANCH   1   7
BRANCH   4  18
ATOM     18  C   UNL     1      48.178   8.607  14.507  0.00  0.00    +0.000 C 
BRANCH  18  19
ATOM     19  N   UNL     1      48.309   7.835  15.721  0.00  0.00    +0.000 N 
ATOM     20  C   UNL     1      49.483   7.195  16.031  0.00  0.00    +0.000 C 
ATOM     21  O   UNL     1      50.480   7.295  15.321  0.00  0.00    +0.000 OA
ATOM     22  H   UNL     1      47.452   7.570  16.199  0.00  0.00    +0.000 HD
BRANCH  20  23
ATOM     23  C   UNL     1      49.517   6.425  17.284  0.00  0.00    +0.000 A 
ATOM     24  C   UNL     1      50.229   5.233  17.336  0.00  0.00    +0.000 A 
ATOM     25  S   UNL     1      50.204   4.483  18.867  0.00  0.00    +0.000 S 
ATOM     26  C   UNL     1      49.198   5.696  19.505  0.00  0.00    +0.000 A 
ATOM     27  N   UNL     1      48.768   5.640  20.794  0.00  0.00    +0.000 NA
ATOM     28  C   UNL     1      47.984   6.606  21.138  0.00  0.00    +0.000 A 
ATOM     29  N   UNL     1      47.598   7.629  20.311  0.00  0.00    +0.000 N 
ATOM     30  C   UNL     1      48.029   7.743  19.010  0.00  0.00    +0.000 A 
ATOM     31  O   UNL     1      47.694   8.691  18.308  0.00  0.00    +0.000 OA
ATOM     32  C   UNL     1      48.902   6.672  18.567  0.00  0.00    +0.000 A 
ATOM     33  H   UNL     1      46.987   8.360  20.644  0.00  0.00    +0.000 HD
ENDBRANCH  20  23
ENDBRANCH  18  19
ENDBRANCH   4  18
TORSDOF 6
ENDMDL
MODEL 4
REMARK VINA RESULT:    -7.255      3.135      7.897
REMARK INTER + INTRA:         -10.529
REMARK INTER:                  -9.417
REMARK INTRA:                  -1.112
REMARK UNBOUND:                -0.729
REMARK  Name = 
REMARK  7 active torsions:
REMARK  status: ('A' for Active; 'I' for Inactive)
REMARK    1  A    between atoms: C_1  and  N_2
REMARK    2  A    between atoms: N_2  and  C_3
REMARK    3  A    between atoms: C_3  and  C_4
REMARK    4  A    between atoms: C_7  and  C_8
REMARK    5  A    between atoms: C_8  and  N_9
REMARK    6  A    between atoms: C_10  and  C_12
REMARK    7  A    between atoms: C_24  and  C_26
REMARK                            x       y       z     vdW  Elec       q    Type
REMARK                         _______ _______ _______ _____ _____    ______ ____
ROOT
ATOM      1  C   UNL     1      50.219   6.893  15.794  0.00  0.00    +0.000 A 
ATOM      2  C   UNL     1      50.821   7.795  14.905  0.00  0.00    +0.000 A 
ATOM      3  C   UNL     1      50.154   8.211  13.747  0.00  0.00    +0.000 A 
ATOM      4  C   UNL     1      48.861   7.752  13.463  0.00  0.00    +0.000 A 
ATOM      5  C   UNL     1      48.242   6.886  14.375  0.00  0.00    +0.000 A 
ATOM      6  C   UNL     1      48.909   6.469  15.533  0.00  0.00    +0.000 A 
ENDROOT
BRANCH   1   7
ATOM      7  C   UNL     1      51.012   6.287  16.931  0.00  0.00    +0.000 C 
BRANCH   7   9
ATOM      8  C   UNL     1      50.107   7.375  19.032  0.00  0.00    +0.000 C 
ATOM      9  N   UNL     1      50.402   6.180  18.259  0.00  0.00    +0.000 N 
ATOM     10  C   UNL     1      49.916   4.953  18.753  0.00  0.00    +0.000 C 
ATOM     11  O   UNL     1      49.274   4.911  19.808  0.00  0.00    +0.000 OA
BRANCH  10  12
ATOM     12  C   UNL     1      50.180   3.707  18.031  0.00  0.00    +0.000 A 
ATOM     13  N   UNL     1      49.457   3.148  17.074  0.00  0.00    +0.000 NA
ATOM     14  C   UNL     1      50.118   2.004  16.708  0.00  0.00    +0.000 A 
ATOM     15  C   UNL     1      51.266   1.853  17.443  0.00  0.00    +0.000 A 
ATOM     16  N   UNL     1      51.295   2.933  18.279  0.00  0.00    +0.000 N 
ATOM     17  H   UNL     1      51.999   3.161  18.969  0.00  0.00    +0.000 HD
ENDBRANCH  10  12
ENDBRANCH   7   9
ENDBRANCH   1   7
BRANCH   4  18
ATOM     18  C   UNL     1      48.175   8.125  12.171  0.00  0.00    +0.000 C 
BRANCH  18  19
ATOM     19  N   UNL     1      47.530   6.983  11.567  0.00  0.00    +0.000 N 
ATOM     20  C   UNL     1      46.166   6.940  11.409  0.00  0.00    +0.000 C 
ATOM     21  O   UNL     1      45.450   7.888  11.725  0.00  0.00    +0.000 OA
ATOM     22  H   UNL     1      48.069   6.124  11.499  0.00  0.00    +0.000 HD
BRANCH  20  23
ATOM     23  C   UNL     1      45.600   5.732  10.791  0.00  0.00    +0.000 A 
ATOM     24  C   UNL     1      45.787   5.505   9.433  0.00  0.00    +0.000 A 
ATOM     25  S   UNL     1      45.105   4.043   8.879  0.00  0.00    +0.000 S 
ATOM     26  C   UNL     1      44.488   3.684  10.422  0.00  0.00    +0.000 A 
ATOM     27  N   UNL     1      43.756   2.557  10.636  0.00  0.00    +0.000 NA
ATOM     28  C   UNL     1      43.321   2.425  11.844  0.00  0.00    +0.000 A 
ATOM     29  N   UNL     1      43.559   3.314  12.860  0.00  0.00    +0.000 N 
ATOM     30  C   UNL     1      44.314   4.451  12.699  0.00  0.00    +0.000 A 
ATOM     31  O   UNL     1      44.538   5.208  13.638  0.00  0.00    +0.000 OA
ATOM     32  C   UNL     1      44.816   4.656  11.353  0.00  0.00    +0.000 A 
ATOM     33  H   UNL     1      43.195   3.148  13.787  0.00  0.00    +0.000 HD
ENDBRANCH  20  23
ENDBRANCH  18  19
ENDBRANCH   4  18
TORSDOF 6
ENDMDL
MODEL 5
REMARK VINA RESULT:    -7.240      2.145      2.282
REMARK INTER + INTRA:         -10.508
REMARK INTER:                  -9.835
REMARK INTRA:                  -0.672
REMARK UNBOUND:                -0.729
REMARK  Name = 
REMARK  7 active torsions:
REMARK  status: ('A' for Active; 'I' for Inactive)
REMARK    1  A    between atoms: C_1  and  N_2
REMARK    2  A    between atoms: N_2  and  C_3
REMARK    3  A    between atoms: C_3  and  C_4
REMARK    4  A    between atoms: C_7  and  C_8
REMARK    5  A    between atoms: C_8  and  N_9
REMARK    6  A    between atoms: C_10  and  C_12
REMARK    7  A    between atoms: C_24  and  C_26
REMARK                            x       y       z     vdW  Elec       q    Type
REMARK                         _______ _______ _______ _____ _____    ______ ____
ROOT
ATOM      1  C   UNL     1      45.592   6.348  11.888  0.00  0.00    +0.000 A 
ATOM      2  C   UNL     1      45.777   7.736  11.976  0.00  0.00    +0.000 A 
ATOM      3  C   UNL     1      46.827   8.271  12.730  0.00  0.00    +0.000 A 
ATOM      4  C   UNL     1      47.729   7.431  13.396  0.00  0.00    +0.000 A 
ATOM      5  C   UNL     1      47.571   6.044  13.271  0.00  0.00    +0.000 A 
ATOM      6  C   UNL     1      46.520   5.508  12.517  0.00  0.00    +0.000 A 
ENDROOT
BRANCH   1   7
ATOM      7  C   UNL     1      44.346   5.776  11.248  0.00  0.00    +0.000 C 
BRANCH   7   9
ATOM      8  C   UNL     1      42.969   4.696  13.080  0.00  0.00    +0.000 C 
ATOM      9  N   UNL     1      43.712   4.592  11.836  0.00  0.00    +0.000 N 
ATOM     10  C   UNL     1      43.643   3.370  11.139  0.00  0.00    +0.000 C 
ATOM     11  O   UNL     1      42.977   2.429  11.587  0.00  0.00    +0.000 OA
BRANCH  10  12
ATOM     12  C   UNL     1      44.371   3.190   9.882  0.00  0.00    +0.000 A 
ATOM     13  N   UNL     1      44.341   3.955   8.803  0.00  0.00    +0.000 NA
ATOM     14  C   UNL     1      45.197   3.383   7.897  0.00  0.00    +0.000 A 
ATOM     15  C   UNL     1      45.768   2.252   8.422  0.00  0.00    +0.000 A 
ATOM     16  N   UNL     1      45.237   2.136   9.675  0.00  0.00    +0.000 N 
ATOM     17  H   UNL     1      45.428   1.418  10.363  0.00  0.00    +0.000 HD
ENDBRANCH  10  12
ENDBRANCH   7   9
ENDBRANCH   1   7
BRANCH   4  18
ATOM     18  C   UNL     1      48.806   8.004  14.284  0.00  0.00    +0.000 C 
BRANCH  18  19
ATOM     19  N   UNL     1      48.372   8.081  15.660  0.00  0.00    +0.000 N 
ATOM     20  C   UNL     1      49.246   8.424  16.661  0.00  0.00    +0.000 C 
ATOM     21  O   UNL     1      50.413   8.729  16.424  0.00  0.00    +0.000 OA
ATOM     22  H   UNL     1      47.490   7.634  15.896  0.00  0.00    +0.000 HD
BRANCH  20  23
ATOM     23  C   UNL     1      48.714   8.466  18.032  0.00  0.00    +0.000 A 
ATOM     24  C   UNL     1      48.666   9.678  18.710  0.00  0.00    +0.000 A 
ATOM     25  S   UNL     1      47.987   9.567  20.270  0.00  0.00    +0.000 S 
ATOM     26  C   UNL     1      47.778   7.887  20.118  0.00  0.00    +0.000 A 
ATOM     27  N   UNL     1      47.258   7.153  21.139  0.00  0.00    +0.000 NA
ATOM     28  C   UNL     1      47.186   5.886  20.903  0.00  0.00    +0.000 A 
ATOM     29  N   UNL     1      47.581   5.287  19.734  0.00  0.00    +0.000 N 
ATOM     30  C   UNL     1      48.087   5.990  18.666  0.00  0.00    +0.000 A 
ATOM     31  O   UNL     1      48.397   5.427  17.621  0.00  0.00    +0.000 OA
ATOM     32  C   UNL     1      48.203   7.420  18.885  0.00  0.00    +0.000 A 
ATOM     33  H   UNL     1      47.492   4.289  19.610  0.00  0.00    +0.000 HD
ENDBRANCH  20  23
ENDBRANCH  18  19
ENDBRANCH   4  18
TORSDOF 6
ENDMDL
MODEL 6
REMARK VINA RESULT:    -7.180      2.899      7.912
REMARK INTER + INTRA:         -10.428
REMARK INTER:                  -9.202
REMARK INTRA:                  -1.225
REMARK UNBOUND:                -0.729
REMARK  Name = 
REMARK  7 active torsions:
REMARK  status: ('A' for Active; 'I' for Inactive)
REMARK    1  A    between atoms: C_1  and  N_2
REMARK    2  A    between atoms: N_2  and  C_3
REMARK    3  A    between atoms: C_3  and  C_4
REMARK    4  A    between atoms: C_7  and  C_8
REMARK    5  A    between atoms: C_8  and  N_9
REMARK    6  A    between atoms: C_10  and  C_12
REMARK    7  A    between atoms: C_24  and  C_26
REMARK                            x       y       z     vdW  Elec       q    Type
REMARK                         _______ _______ _______ _____ _____    ______ ____
ROOT
ATOM      1  C   UNL     1      49.346   8.011  15.832  0.00  0.00    +0.000 A 
ATOM      2  C   UNL     1      49.619   7.003  14.896  0.00  0.00    +0.000 A 
ATOM      3  C   UNL     1      49.007   7.011  13.637  0.00  0.00    +0.000 A 
ATOM      4  C   UNL     1      48.124   8.037  13.278  0.00  0.00    +0.000 A 
ATOM      5  C   UNL     1      47.886   9.069  14.197  0.00  0.00    +0.000 A 
ATOM      6  C   UNL     1      48.497   9.061  15.456  0.00  0.00    +0.000 A 
ENDROOT
BRANCH   1   7
ATOM      7  C   UNL     1      49.842   7.895  17.257  0.00  0.00    +0.000 C 
BRANCH   7   9
ATOM      8  C   UNL     1      48.627   9.172  19.076  0.00  0.00    +0.000 C 
ATOM      9  N   UNL     1      48.879   7.933  18.361  0.00  0.00    +0.000 N 
ATOM     10  C   UNL     1      48.040   6.837  18.647  0.00  0.00    +0.000 C 
ATOM     11  O   UNL     1      47.136   6.941  19.483  0.00  0.00    +0.000 OA
BRANCH  10  12
ATOM     12  C   UNL     1      48.238   5.555  17.970  0.00  0.00    +0.000 A 
ATOM     13  N   UNL     1      49.194   4.662  18.171  0.00  0.00    +0.000 NA
ATOM     14  C   UNL     1      48.946   3.627  17.307  0.00  0.00    +0.000 A 
ATOM     15  C   UNL     1      47.822   3.878  16.563  0.00  0.00    +0.000 A 
ATOM     16  N   UNL     1      47.383   5.101  16.986  0.00  0.00    +0.000 N 
ATOM     17  H   UNL     1      46.572   5.612  16.662  0.00  0.00    +0.000 HD
ENDBRANCH  10  12
ENDBRANCH   7   9
ENDBRANCH   1   7
BRANCH   4  18
ATOM     18  C   UNL     1      47.392   8.000  11.959  0.00  0.00    +0.000 C 
BRANCH  18  19
ATOM     19  N   UNL     1      46.761   6.719  11.740  0.00  0.00    +0.000 N 
ATOM     20  C   UNL     1      45.395   6.601  11.688  0.00  0.00    +0.000 C 
ATOM     21  O   UNL     1      44.658   7.581  11.771  0.00  0.00    +0.000 OA
ATOM     22  H   UNL     1      47.331   5.889  11.881  0.00  0.00    +0.000 HD
BRANCH  20  23
ATOM     23  C   UNL     1      44.845   5.255  11.471  0.00  0.00    +0.000 A 
ATOM     24  C   UNL     1      44.139   4.630  12.492  0.00  0.00    +0.000 A 
ATOM     25  S   UNL     1      43.533   3.093  12.069  0.00  0.00    +0.000 S 
ATOM     26  C   UNL     1      44.235   3.181  10.524  0.00  0.00    +0.000 A 
ATOM     27  N   UNL     1      44.117   2.151   9.643  0.00  0.00    +0.000 NA
ATOM     28  C   UNL     1      44.726   2.336   8.520  0.00  0.00    +0.000 A 
ATOM     29  N   UNL     1      45.436   3.463   8.195  0.00  0.00    +0.000 N 
ATOM     30  C   UNL     1      45.560   4.540   9.040  0.00  0.00    +0.000 A 
ATOM     31  O   UNL     1      46.172   5.548   8.703  0.00  0.00    +0.000 OA
ATOM     32  C   UNL     1      44.906   4.377  10.325  0.00  0.00    +0.000 A 
ATOM     33  H   UNL     1      45.884   3.548   7.294  0.00  0.00    +0.000 HD
ENDBRANCH  20  23
ENDBRANCH  18  19
ENDBRANCH   4  18
TORSDOF 6
ENDMDL
MODEL 7
REMARK VINA RESULT:    -6.428      2.294      2.885
REMARK INTER + INTRA:          -9.411
REMARK INTER:                  -8.344
REMARK INTRA:                  -1.067
REMARK UNBOUND:                -0.729
REMARK  Name = 
REMARK  7 active torsions:
REMARK  status: ('A' for Active; 'I' for Inactive)
REMARK    1  A    between atoms: C_1  and  N_2
REMARK    2  A    between atoms: N_2  and  C_3
REMARK    3  A    between atoms: C_3  and  C_4
REMARK    4  A    between atoms: C_7  and  C_8
REMARK    5  A    between atoms: C_8  and  N_9
REMARK    6  A    between atoms: C_10  and  C_12
REMARK    7  A    between atoms: C_24  and  C_26
REMARK                            x       y       z     vdW  Elec       q    Type
REMARK                         _______ _______ _______ _____ _____    ______ ____
ROOT
ATOM      1  C   UNL     1      46.064   7.117  11.737  0.00  0.00    +0.000 A 
ATOM      2  C   UNL     1      45.687   8.139  12.619  0.00  0.00    +0.000 A 
ATOM      3  C   UNL     1      46.641   8.794  13.406  0.00  0.00    +0.000 A 
ATOM      4  C   UNL     1      47.998   8.455  13.314  0.00  0.00    +0.000 A 
ATOM      5  C   UNL     1      48.380   7.464  12.399  0.00  0.00    +0.000 A 
ATOM      6  C   UNL     1      47.426   6.809  11.612  0.00  0.00    +0.000 A 
ENDROOT
BRANCH   1   7
ATOM      7  C   UNL     1      45.018   6.273  11.042  0.00  0.00    +0.000 C 
BRANCH   7   9
ATOM      8  C   UNL     1      42.502   6.326  11.328  0.00  0.00    +0.000 C 
ATOM      9  N   UNL     1      43.810   5.877  11.771  0.00  0.00    +0.000 N 
ATOM     10  C   UNL     1      43.851   4.915  12.800  0.00  0.00    +0.000 C 
ATOM     11  O   UNL     1      42.805   4.486  13.300  0.00  0.00    +0.000 OA
BRANCH  10  12
ATOM     12  C   UNL     1      45.134   4.420  13.301  0.00  0.00    +0.000 A 
ATOM     13  N   UNL     1      45.810   3.353  12.908  0.00  0.00    +0.000 NA
ATOM     14  C   UNL     1      46.952   3.315  13.665  0.00  0.00    +0.000 A 
ATOM     15  C   UNL     1      46.987   4.374  14.536  0.00  0.00    +0.000 A 
ATOM     16  N   UNL     1      45.832   5.064  14.302  0.00  0.00    +0.000 N 
ATOM     17  H   UNL     1      45.515   5.910  14.759  0.00  0.00    +0.000 HD
ENDBRANCH  10  12
ENDBRANCH   7   9
ENDBRANCH   1   7
BRANCH   4  18
ATOM     18  C   UNL     1      49.017   9.093  14.226  0.00  0.00    +0.000 C 
BRANCH  18  19
ATOM     19  N   UNL     1      48.775   8.753  15.609  0.00  0.00    +0.000 N 
ATOM     20  C   UNL     1      49.580   7.861  16.271  0.00  0.00    +0.000 C 
ATOM     21  O   UNL     1      50.566   7.359  15.735  0.00  0.00    +0.000 OA
ATOM     22  H   UNL     1      47.863   8.987  15.993  0.00  0.00    +0.000 HD
BRANCH  20  23
ATOM     23  C   UNL     1      49.249   7.571  17.675  0.00  0.00    +0.000 A 
ATOM     24  C   UNL     1      48.989   8.621  18.547  0.00  0.00    +0.000 A 
ATOM     25  S   UNL     1      48.582   8.119  20.126  0.00  0.00    +0.000 S 
ATOM     26  C   UNL     1      48.788   6.482  19.716  0.00  0.00    +0.000 A 
ATOM     27  N   UNL     1      48.617   5.503  20.645  0.00  0.00    +0.000 NA
ATOM     28  C   UNL     1      48.838   4.309  20.209  0.00  0.00    +0.000 A 
ATOM     29  N   UNL     1      49.206   4.004  18.924  0.00  0.00    +0.000 N 
ATOM     30  C   UNL     1      49.365   4.955  17.945  0.00  0.00    +0.000 A 
ATOM     31  O   UNL     1      49.660   4.645  16.795  0.00  0.00    +0.000 OA
ATOM     32  C   UNL     1      49.143   6.320  18.387  0.00  0.00    +0.000 A 
ATOM     33  H   UNL     1      49.357   3.046  18.644  0.00  0.00    +0.000 HD
ENDBRANCH  20  23
ENDBRANCH  18  19
ENDBRANCH   4  18
TORSDOF 6
ENDMDL
MODEL 8
REMARK VINA RESULT:    -6.049      3.038      8.527
REMARK INTER + INTRA:          -8.900
REMARK INTER:                  -7.788
REMARK INTRA:                  -1.112
REMARK UNBOUND:                -0.729
REMARK  Name = 
REMARK  7 active torsions:
REMARK  status: ('A' for Active; 'I' for Inactive)
REMARK    1  A    between atoms: C_1  and  N_2
REMARK    2  A    between atoms: N_2  and  C_3
REMARK    3  A    between atoms: C_3  and  C_4
REMARK    4  A    between atoms: C_7  and  C_8
REMARK    5  A    between atoms: C_8  and  N_9
REMARK    6  A    between atoms: C_10  and  C_12
REMARK    7  A    between atoms: C_24  and  C_26
REMARK                            x       y       z     vdW  Elec       q    Type
REMARK                         _______ _______ _______ _____ _____    ______ ____
ROOT
ATOM      1  C   UNL     1      49.926   8.061  14.390  0.00  0.00    +0.000 A 
ATOM      2  C   UNL     1      49.694   9.132  13.515  0.00  0.00    +0.000 A 
ATOM      3  C   UNL     1      48.573   9.142  12.677  0.00  0.00    +0.000 A 
ATOM      4  C   UNL     1      47.647   8.090  12.710  0.00  0.00    +0.000 A 
ATOM      5  C   UNL     1      47.855   7.042  13.617  0.00  0.00    +0.000 A 
ATOM      6  C   UNL     1      48.977   7.032  14.455  0.00  0.00    +0.000 A 
ENDROOT
BRANCH   1   7
ATOM      7  C   UNL     1      51.234   7.950  15.143  0.00  0.00    +0.000 C 
BRANCH   7   9
ATOM      8  C   UNL     1      51.623  10.023  16.546  0.00  0.00    +0.000 C 
ATOM      9  N   UNL     1      51.369   8.595  16.452  0.00  0.00    +0.000 N 
ATOM     10  C   UNL     1      51.081   7.908  17.647  0.00  0.00    +0.000 C 
ATOM     11  O   UNL     1      51.058   8.509  18.727  0.00  0.00    +0.000 OA
BRANCH  10  12
ATOM     12  C   UNL     1      50.821   6.467  17.630  0.00  0.00    +0.000 A 
ATOM     13  N   UNL     1      49.654   5.846  17.674  0.00  0.00    +0.000 NA
ATOM     14  C   UNL     1      49.926   4.503  17.620  0.00  0.00    +0.000 A 
ATOM     15  C   UNL     1      51.278   4.289  17.537  0.00  0.00    +0.000 A 
ATOM     16  N   UNL     1      51.836   5.535  17.548  0.00  0.00    +0.000 N 
ATOM     17  H   UNL     1      52.818   5.773  17.498  0.00  0.00    +0.000 HD
ENDBRANCH  10  12
ENDBRANCH   7   9
ENDBRANCH   1   7
BRANCH   4  18
ATOM     18  C   UNL     1      46.488   8.051  11.744  0.00  0.00    +0.000 C 
BRANCH  18  19
ATOM     19  N   UNL     1      46.087   6.695  11.454  0.00  0.00    +0.000 N 
ATOM     20  C   UNL     1      44.761   6.349  11.377  0.00  0.00    +0.000 C 
ATOM     21  O   UNL     1      43.868   7.184  11.498  0.00  0.00    +0.000 OA
ATOM     22  H   UNL     1      46.789   5.968  11.562  0.00  0.00    +0.000 HD
BRANCH  20  23
ATOM     23  C   UNL     1      44.450   4.941  11.086  0.00  0.00    +0.000 A 
ATOM     24  C   UNL     1      43.662   4.216  11.972  0.00  0.00    +0.000 A 
ATOM     25  S   UNL     1      43.361   2.614  11.473  0.00  0.00    +0.000 S 
ATOM     26  C   UNL     1      44.315   2.811  10.080  0.00  0.00    +0.000 A 
ATOM     27  N   UNL     1      44.502   1.782   9.210  0.00  0.00    +0.000 NA
ATOM     28  C   UNL     1      45.275   2.058   8.214  0.00  0.00    +0.000 A 
ATOM     29  N   UNL     1      45.871   3.275   8.005  0.00  0.00    +0.000 N 
ATOM     30  C   UNL     1      45.689   4.352   8.839  0.00  0.00    +0.000 A 
ATOM     31  O   UNL     1      46.208   5.438   8.603  0.00  0.00    +0.000 OA
ATOM     32  C   UNL     1      44.840   4.090   9.986  0.00  0.00    +0.000 A 
ATOM     33  H   UNL     1      46.460   3.429   7.199  0.00  0.00    +0.000 HD
ENDBRANCH  20  23
ENDBRANCH  18  19
ENDBRANCH   4  18
TORSDOF 6
ENDMDL
MODEL 9
REMARK VINA RESULT:    -5.909      2.752      3.868
REMARK INTER + INTRA:          -8.711
REMARK INTER:                  -7.460
REMARK INTRA:                  -1.250
REMARK UNBOUND:                -0.729
REMARK  Name = 
REMARK  7 active torsions:
REMARK  status: ('A' for Active; 'I' for Inactive)
REMARK    1  A    between atoms: C_1  and  N_2
REMARK    2  A    between atoms: N_2  and  C_3
REMARK    3  A    between atoms: C_3  and  C_4
REMARK    4  A    between atoms: C_7  and  C_8
REMARK    5  A    between atoms: C_8  and  N_9
REMARK    6  A    between atoms: C_10  and  C_12
REMARK    7  A    between atoms: C_24  and  C_26
REMARK                            x       y       z     vdW  Elec       q    Type
REMARK                         _______ _______ _______ _____ _____    ______ ____
ROOT
ATOM      1  C   UNL     1      46.129   7.084  11.646  0.00  0.00    +0.000 A 
ATOM      2  C   UNL     1      47.492   6.758  11.609  0.00  0.00    +0.000 A 
ATOM      3  C   UNL     1      48.461   7.687  12.006  0.00  0.00    +0.000 A 
ATOM      4  C   UNL     1      48.088   8.956  12.468  0.00  0.00    +0.000 A 
ATOM      5  C   UNL     1      46.723   9.265  12.549  0.00  0.00    +0.000 A 
ATOM      6  C   UNL     1      45.754   8.336  12.151  0.00  0.00    +0.000 A 
ENDROOT
BRANCH   1   7
ATOM      7  C   UNL     1      45.099   6.164  11.028  0.00  0.00    +0.000 C 
BRANCH   7   9
ATOM      8  C   UNL     1      42.584   6.242  11.322  0.00  0.00    +0.000 C 
ATOM      9  N   UNL     1      43.894   5.818  11.787  0.00  0.00    +0.000 N 
ATOM     10  C   UNL     1      43.937   4.923  12.874  0.00  0.00    +0.000 C 
ATOM     11  O   UNL     1      42.892   4.530  13.406  0.00  0.00    +0.000 OA
BRANCH  10  12
ATOM     12  C   UNL     1      45.221   4.457  13.400  0.00  0.00    +0.000 A 
ATOM     13  N   UNL     1      45.886   3.359  13.081  0.00  0.00    +0.000 NA
ATOM     14  C   UNL     1      47.034   3.369  13.829  0.00  0.00    +0.000 A 
ATOM     15  C   UNL     1      47.085   4.488  14.620  0.00  0.00    +0.000 A 
ATOM     16  N   UNL     1      45.932   5.168  14.345  0.00  0.00    +0.000 N 
ATOM     17  H   UNL     1      45.625   6.047  14.741  0.00  0.00    +0.000 HD
ENDBRANCH  10  12
ENDBRANCH   7   9
ENDBRANCH   1   7
BRANCH   4  18
ATOM     18  C   UNL     1      49.131   9.991  12.809  0.00  0.00    +0.000 C 
BRANCH  18  19
ATOM     19  N   UNL     1      49.999   9.537  13.871  0.00  0.00    +0.000 N 
ATOM     20  C   UNL     1      51.256   9.054  13.601  0.00  0.00    +0.000 C 
ATOM     21  O   UNL     1      51.710   9.038  12.460  0.00  0.00    +0.000 OA
ATOM     22  H   UNL     1      49.572   9.347  14.773  0.00  0.00    +0.000 HD
BRANCH  20  23
ATOM     23  C   UNL     1      52.063   8.607  14.747  0.00  0.00    +0.000 A 
ATOM     24  C   UNL     1      53.312   9.174  14.967  0.00  0.00    +0.000 A 
ATOM     25  S   UNL     1      54.103   8.578  16.356  0.00  0.00    +0.000 S 
ATOM     26  C   UNL     1      52.829   7.502  16.686  0.00  0.00    +0.000 A 
ATOM     27  N   UNL     1      52.887   6.656  17.749  0.00  0.00    +0.000 NA
ATOM     28  C   UNL     1      51.869   5.871  17.864  0.00  0.00    +0.000 A 
ATOM     29  N   UNL     1      50.793   5.862  17.015  0.00  0.00    +0.000 N 
ATOM     30  C   UNL     1      50.676   6.716  15.944  0.00  0.00    +0.000 A 
ATOM     31  O   UNL     1      49.682   6.706  15.225  0.00  0.00    +0.000 OA
ATOM     32  C   UNL     1      51.804   7.611  15.761  0.00  0.00    +0.000 A 
ATOM     33  H   UNL     1      50.023   5.226  17.164  0.00  0.00    +0.000 HD
ENDBRANCH  20  23
ENDBRANCH  18  19
ENDBRANCH   4  18
TORSDOF 6
ENDMDL
