MODEL 1
REMARK VINA RESULT:    -7.591      0.000      0.000
REMARK INTER + INTRA:         -13.855
REMARK INTER:                 -11.807
REMARK INTRA:                  -2.048
REMARK UNBOUND:                -2.048
REMARK  Name = 
REMARK  10 active torsions:
REMARK  status: ('A' for Active; 'I' for Inactive)
REMARK    1  A    between atoms: N_1  and  C_2
REMARK    2  A    between atoms: C_2  and  C_3
REMARK    3  A    between atoms: C_3  and  N_4
REMARK    4  A    between atoms: N_4  and  C_5
REMARK    5  A    between atoms: C_5  and  C_6
REMARK    6  A    between atoms: C_8  and  C_9
REMARK    7  A    between atoms: C_9  and  N_10
REMARK    8  A    between atoms: C_11  and  C_13
REMARK    9  A    between atoms: C_25  and  C_26
REMARK   10  A    between atoms: C_26  and  N_27
REMARK                            x       y       z     vdW  Elec       q    Type
REMARK                         _______ _______ _______ _____ _____    ______ ____
ROOT
ATOM      1  C   UNL     1      45.689   5.664  12.895  0.00  0.00    +0.000 A 
ATOM      2  C   UNL     1      46.512   6.674  13.443  0.00  0.00    +0.000 A 
ATOM      3  C   UNL     1      46.478   7.986  12.991  0.00  0.00    +0.000 A 
ATOM      4  C   UNL     1      45.590   8.239  11.959  0.00  0.00    +0.000 A 
ATOM      5  N   UNL     1      44.786   7.306  11.382  0.00  0.00    +0.000 NA
ATOM      6  C   UNL     1      44.826   6.017  11.840  0.00  0.00    +0.000 A 
ENDROOT
BRANCH   1   7
ATOM      7  C   UNL     1      45.920   4.295  13.509  0.00  0.00    +0.000 C 
BRANCH   7   8
ATOM      8  N   UNL     1      46.446   4.351  14.869  0.00  0.00    +0.000 NA
ATOM      9  H   UNL     1      46.883   5.265  15.008  0.00  0.00    +0.000 HD
BRANCH   8  10
ATOM     10  C   UNL     1      47.477   3.315  15.031  0.00  0.00    +0.000 C 
BRANCH  10  11
ATOM     11  C   UNL     1      47.859   3.108  16.496  0.00  0.00    +0.000 C 
BRANCH  11  12
ATOM     12  N   UNL     1      46.740   3.458  17.365  0.00  0.00    +0.000 NA
ATOM     13  H   UNL     1      46.831   2.941  18.234  0.00  0.00    +0.000 HD
ATOM     14  H   UNL     1      45.876   3.145  16.925  0.00  0.00    +0.000 HD
ENDBRANCH  11  12
ENDBRANCH  10  11
ENDBRANCH   8  10
ENDBRANCH   7   8
ENDBRANCH   1   7
BRANCH   3  15
ATOM     15  C   UNL     1      47.354   9.062  13.579  0.00  0.00    +0.000 C 
BRANCH  15  16
ATOM     16  N   UNL     1      47.415   9.008  15.023  0.00  0.00    +0.000 N 
ATOM     17  C   UNL     1      48.515   9.388  15.742  0.00  0.00    +0.000 C 
ATOM     18  O   UNL     1      49.545   9.825  15.222  0.00  0.00    +0.000 OA
ATOM     19  H   UNL     1      46.835   8.300  15.462  0.00  0.00    +0.000 HD
BRANCH  17  20
ATOM     20  C   UNL     1      48.367   9.299  17.205  0.00  0.00    +0.000 A 
ATOM     21  C   UNL     1      48.283  10.448  17.978  0.00  0.00    +0.000 A 
ATOM     22  S   UNL     1      48.072  10.134  19.643  0.00  0.00    +0.000 S 
ATOM     23  C   UNL     1      48.124   8.451  19.394  0.00  0.00    +0.000 A 
ATOM     24  N   UNL     1      48.026   7.577  20.433  0.00  0.00    +0.000 NA
ATOM     25  C   UNL     1      48.104   6.335  20.098  0.00  0.00    +0.000 A 
ATOM     26  N   UNL     1      48.265   5.881  18.808  0.00  0.00    +0.000 N 
ATOM     27  C   UNL     1      48.329   6.726  17.743  0.00  0.00    +0.000 A 
ATOM     28  O   UNL     1      48.403   6.287  16.572  0.00  0.00    +0.000 OA
ATOM     29  C   UNL     1      48.273   8.133  18.054  0.00  0.00    +0.000 A 
ATOM     30  H   UNL     1      48.287   4.890  18.614  0.00  0.00    +0.000 HD
ENDBRANCH  17  20
ENDBRANCH  15  16
ENDBRANCH   3  15
BRANCH   6  31
ATOM     31  C   UNL     1      43.894   5.055  11.077  0.00  0.00    +0.000 C 
BRANCH  31  32
ATOM     32  N   UNL     1      44.230   5.028   9.673  0.00  0.00    +0.000 N 
ATOM     33  C   UNL     1      44.961   4.026   9.091  0.00  0.00    +0.000 A 
ATOM     34  N   UNL     1      44.989   2.752   9.520  0.00  0.00    +0.000 NA
ATOM     35  C   UNL     1      45.719   1.887   8.770  0.00  0.00    +0.000 A 
ATOM     36  C   UNL     1      46.414   2.245   7.633  0.00  0.00    +0.000 A 
ATOM     37 CL   UNL     1      47.326   1.135   6.711  0.00  0.00    +0.000 Cl
ATOM     38  C   UNL     1      46.322   3.568   7.289  0.00  0.00    +0.000 A 
ATOM     39  N   UNL     1      45.619   4.460   8.004  0.00  0.00    +0.000 NA
ATOM     40  H   UNL     1      44.724   5.867   9.382  0.00  0.00    +0.000 HD
ENDBRANCH  31  32
ENDBRANCH   6  31
TORSDOF 10
ENDMDL
MODEL 2
REMARK VINA RESULT:    -7.437      1.412      3.643
REMARK INTER + INTRA:         -13.615
REMARK INTER:                 -11.753
REMARK INTRA:                  -1.862
REMARK UNBOUND:                -2.048
REMARK  Name = 
REMARK  10 active torsions:
REMARK  status: ('A' for Active; 'I' for Inactive)
REMARK    1  A    between atoms: N_1  and  C_2
REMARK    2  A    between atoms: C_2  and  C_3
REMARK    3  A    between atoms: C_3  and  N_4
REMARK    4  A    between atoms: N_4  and  C_5
REMARK    5  A    between atoms: C_5  and  C_6
REMARK    6  A    between atoms: C_8  and  C_9
REMARK    7  A    between atoms: C_9  and  N_10
REMARK    8  A    between atoms: C_11  and  C_13
REMARK    9  A    between atoms: C_25  and  C_26
REMARK   10  A    between atoms: C_26  and  N_27
REMARK                            x       y       z     vdW  Elec       q    Type
REMARK                         _______ _______ _______ _____ _____    ______ ____
ROOT
ATOM      1  C   UNL     1      45.242   5.821  12.389  0.00  0.00    +0.000 A 
ATOM      2  C   UNL     1      46.239   5.704  13.384  0.00  0.00    +0.000 A 
ATOM      3  C   UNL     1      46.669   4.474  13.864  0.00  0.00    +0.000 A 
ATOM      4  C   UNL     1      46.048   3.368  13.308  0.00  0.00    +0.000 A 
ATOM      5  N   UNL     1      45.074   3.419  12.361  0.00  0.00    +0.000 NA
ATOM      6  C   UNL     1      44.663   4.637  11.894  0.00  0.00    +0.000 A 
ENDROOT
BRANCH   1   7
ATOM      7  C   UNL     1      44.897   7.258  12.044  0.00  0.00    +0.000 C 
BRANCH   7   8
ATOM      8  N   UNL     1      45.285   8.212  13.078  0.00  0.00    +0.000 NA
ATOM      9  H   UNL     1      44.484   8.360  13.696  0.00  0.00    +0.000 HD
BRANCH   8  10
ATOM     10  C   UNL     1      45.628   9.495  12.447  0.00  0.00    +0.000 C 
BRANCH  10  11
ATOM     11  C   UNL     1      47.138   9.676  12.295  0.00  0.00    +0.000 C 
BRANCH  11  12
ATOM     12  N   UNL     1      47.649  10.553  13.344  0.00  0.00    +0.000 NA
ATOM     13  H   UNL     1      47.699  10.026  14.210  0.00  0.00    +0.000 HD
ATOM     14  H   UNL     1      46.980  11.306  13.494  0.00  0.00    +0.000 HD
ENDBRANCH  11  12
ENDBRANCH  10  11
ENDBRANCH   8  10
ENDBRANCH   7   8
ENDBRANCH   1   7
BRANCH   3  15
ATOM     15  C   UNL     1      47.734   4.351  14.922  0.00  0.00    +0.000 C 
BRANCH  15  16
ATOM     16  N   UNL     1      47.602   5.343  15.968  0.00  0.00    +0.000 N 
ATOM     17  C   UNL     1      48.589   5.609  16.878  0.00  0.00    +0.000 C 
ATOM     18  O   UNL     1      49.681   5.037  16.877  0.00  0.00    +0.000 OA
ATOM     19  H   UNL     1      46.656   5.520  16.290  0.00  0.00    +0.000 HD
BRANCH  17  20
ATOM     20  C   UNL     1      48.280   6.684  17.837  0.00  0.00    +0.000 A 
ATOM     21  C   UNL     1      48.041   6.393  19.171  0.00  0.00    +0.000 A 
ATOM     22  S   UNL     1      47.743   7.777  20.127  0.00  0.00    +0.000 S 
ATOM     23  C   UNL     1      47.886   8.811  18.783  0.00  0.00    +0.000 A 
ATOM     24  N   UNL     1      47.715  10.156  18.901  0.00  0.00    +0.000 NA
ATOM     25  C   UNL     1      47.830  10.810  17.796  0.00  0.00    +0.000 A 
ATOM     26  N   UNL     1      48.110  10.240  16.575  0.00  0.00    +0.000 N 
ATOM     27  C   UNL     1      48.324   8.904  16.428  0.00  0.00    +0.000 A 
ATOM     28  O   UNL     1      48.648   8.418  15.320  0.00  0.00    +0.000 OA
ATOM     29  C   UNL     1      48.184   8.111  17.625  0.00  0.00    +0.000 A 
ATOM     30  H   UNL     1      48.217  10.818  15.753  0.00  0.00    +0.000 HD
ENDBRANCH  17  20
ENDBRANCH  15  16
ENDBRANCH   3  15
BRANCH   6  31
ATOM     31  C   UNL     1      43.530   4.555  10.852  0.00  0.00    +0.000 C 
BRANCH  31  32
ATOM     32  N   UNL     1      44.049   4.751   9.519  0.00  0.00    +0.000 N 
ATOM     33  C   UNL     1      44.915   3.883   8.910  0.00  0.00    +0.000 A 
ATOM     34  N   UNL     1      44.973   2.562   9.156  0.00  0.00    +0.000 NA
ATOM     35  C   UNL     1      45.851   1.854   8.401  0.00  0.00    +0.000 A 
ATOM     36  C   UNL     1      46.664   2.409   7.434  0.00  0.00    +0.000 A 
ATOM     37 CL   UNL     1      47.762   1.493   6.502  0.00  0.00    +0.000 Cl
ATOM     38  C   UNL     1      46.529   3.762   7.269  0.00  0.00    +0.000 A 
ATOM     39  N   UNL     1      45.680   4.504   7.997  0.00  0.00    +0.000 NA
ATOM     40  H   UNL     1      44.518   5.647   9.420  0.00  0.00    +0.000 HD
ENDBRANCH  31  32
ENDBRANCH   6  31
TORSDOF 10
ENDMDL
MODEL 3
REMARK VINA RESULT:    -7.085      1.846      3.758
REMARK INTER + INTRA:         -13.068
REMARK INTER:                 -12.164
REMARK INTRA:                  -0.904
REMARK UNBOUND:                -2.048
REMARK  Name = 
REMARK  10 active torsions:
REMARK  status: ('A' for Active; 'I' for Inactive)
REMARK    1  A    between atoms: N_1  and  C_2
REMARK    2  A    between atoms: C_2  and  C_3
REMARK    3  A    between atoms: C_3  and  N_4
REMARK    4  A    between atoms: N_4  and  C_5
REMARK    5  A    between atoms: C_5  and  C_6
REMARK    6  A    between atoms: C_8  and  C_9
REMARK    7  A    between atoms: C_9  and  N_10
REMARK    8  A    between atoms: C_11  and  C_13
REMARK    9  A    between atoms: C_25  and  C_26
REMARK   10  A    between atoms: C_26  and  N_27
REMARK                            x       y       z     vdW  Elec       q    Type
REMARK                         _______ _______ _______ _____ _____    ______ ____
ROOT
ATOM      1  C   UNL     1      45.188   7.672  11.832  0.00  0.00    +0.000 A 
ATOM      2  C   UNL     1      46.196   8.337  12.566  0.00  0.00    +0.000 A 
ATOM      3  C   UNL     1      47.210   7.654  13.224  0.00  0.00    +0.000 A 
ATOM      4  C   UNL     1      47.162   6.274  13.122  0.00  0.00    +0.000 A 
ATOM      5  N   UNL     1      46.209   5.579  12.446  0.00  0.00    +0.000 NA
ATOM      6  C   UNL     1      45.218   6.264  11.797  0.00  0.00    +0.000 A 
ENDROOT
BRANCH   1   7
ATOM      7  C   UNL     1      44.158   8.610  11.229  0.00  0.00    +0.000 C 
BRANCH   7   8
ATOM      8  N   UNL     1      43.926   9.808  12.030  0.00  0.00    +0.000 NA
ATOM      9  H   UNL     1      43.485   9.527  12.910  0.00  0.00    +0.000 HD
BRANCH   8  10
ATOM     10  C   UNL     1      43.001  10.697  11.311  0.00  0.00    +0.000 C 
BRANCH  10  11
ATOM     11  C   UNL     1      41.926   9.917  10.554  0.00  0.00    +0.000 C 
BRANCH  11  12
ATOM     12  N   UNL     1      40.820   9.583  11.445  0.00  0.00    +0.000 NA
ATOM     13  H   UNL     1      41.158   8.934  12.149  0.00  0.00    +0.000 HD
ATOM     14  H   UNL     1      40.107   9.093  10.910  0.00  0.00    +0.000 HD
ENDBRANCH  11  12
ENDBRANCH  10  11
ENDBRANCH   8  10
ENDBRANCH   7   8
ENDBRANCH   1   7
BRANCH   3  15
ATOM     15  C   UNL     1      48.286   8.366  14.002  0.00  0.00    +0.000 C 
BRANCH  15  16
ATOM     16  N   UNL     1      48.231   8.085  15.420  0.00  0.00    +0.000 N 
ATOM     17  C   UNL     1      49.101   7.238  16.051  0.00  0.00    +0.000 C 
ATOM     18  O   UNL     1      50.015   6.650  15.469  0.00  0.00    +0.000 OA
ATOM     19  H   UNL     1      47.315   8.165  15.849  0.00  0.00    +0.000 HD
BRANCH  17  20
ATOM     20  C   UNL     1      48.909   7.117  17.507  0.00  0.00    +0.000 A 
ATOM     21  C   UNL     1      48.726   8.246  18.292  0.00  0.00    +0.000 A 
ATOM     22  S   UNL     1      48.479   7.894  19.945  0.00  0.00    +0.000 S 
ATOM     23  C   UNL     1      48.647   6.222  19.675  0.00  0.00    +0.000 A 
ATOM     24  N   UNL     1      48.570   5.327  20.699  0.00  0.00    +0.000 NA
ATOM     25  C   UNL     1      48.738   4.098  20.350  0.00  0.00    +0.000 A 
ATOM     26  N   UNL     1      48.971   3.675  19.060  0.00  0.00    +0.000 N 
ATOM     27  C   UNL     1      49.017   4.539  18.010  0.00  0.00    +0.000 A 
ATOM     28  O   UNL     1      49.158   4.123  16.836  0.00  0.00    +0.000 OA
ATOM     29  C   UNL     1      48.861   5.934  18.337  0.00  0.00    +0.000 A 
ATOM     30  H   UNL     1      49.063   2.691  18.854  0.00  0.00    +0.000 HD
ENDBRANCH  17  20
ENDBRANCH  15  16
ENDBRANCH   3  15
BRANCH   6  31
ATOM     31  C   UNL     1      44.184   5.357  11.102  0.00  0.00    +0.000 C 
BRANCH  31  32
ATOM     32  N   UNL     1      44.484   5.228   9.696  0.00  0.00    +0.000 N 
ATOM     33  C   UNL     1      45.090   4.127   9.150  0.00  0.00    +0.000 A 
ATOM     34  N   UNL     1      44.990   2.879   9.640  0.00  0.00    +0.000 NA
ATOM     35  C   UNL     1      45.606   1.907   8.919  0.00  0.00    +0.000 A 
ATOM     36  C   UNL     1      46.309   2.134   7.755  0.00  0.00    +0.000 A 
ATOM     37 CL   UNL     1      47.076   0.890   6.872  0.00  0.00    +0.000 Cl
ATOM     38  C   UNL     1      46.353   3.442   7.349  0.00  0.00    +0.000 A 
ATOM     39  N   UNL     1      45.766   4.437   8.032  0.00  0.00    +0.000 NA
ATOM     40  H   UNL     1      45.058   5.995   9.356  0.00  0.00    +0.000 HD
ENDBRANCH  31  32
ENDBRANCH   6  31
TORSDOF 10
ENDMDL
MODEL 4
REMARK VINA RESULT:    -6.878      1.998      4.464
REMARK INTER + INTRA:         -12.747
REMARK INTER:                 -11.276
REMARK INTRA:                  -1.470
REMARK UNBOUND:                -2.048
REMARK  Name = 
REMARK  10 active torsions:
REMARK  status: ('A' for Active; 'I' for Inactive)
REMARK    1  A    between atoms: N_1  and  C_2
REMARK    2  A    between atoms: C_2  and  C_3
REMARK    3  A    between atoms: C_3  and  N_4
REMARK    4  A    between atoms: N_4  and  C_5
REMARK    5  A    between atoms: C_5  and  C_6
REMARK    6  A    between atoms: C_8  and  C_9
REMARK    7  A    between atoms: C_9  and  N_10
REMARK    8  A    between atoms: C_11  and  C_13
REMARK    9  A    between atoms: C_25  and  C_26
REMARK   10  A    between atoms: C_26  and  N_27
REMARK                            x       y       z     vdW  Elec       q    Type
REMARK                         _______ _______ _______ _____ _____    ______ ____
ROOT
ATOM      1  C   UNL     1      45.209   5.785  11.892  0.00  0.00    +0.000 A 
ATOM      2  C   UNL     1      46.158   5.841  12.938  0.00  0.00    +0.000 A 
ATOM      3  C   UNL     1      46.431   4.751  13.753  0.00  0.00    +0.000 A 
ATOM      4  C   UNL     1      45.703   3.605  13.479  0.00  0.00    +0.000 A 
ATOM      5  N   UNL     1      44.767   3.497  12.499  0.00  0.00    +0.000 NA
ATOM      6  C   UNL     1      44.511   4.578  11.699  0.00  0.00    +0.000 A 
ENDROOT
BRANCH   1   7
ATOM      7  C   UNL     1      45.040   7.102  11.155  0.00  0.00    +0.000 C 
BRANCH   7   8
ATOM      8  N   UNL     1      44.035   7.975  11.752  0.00  0.00    +0.000 NA
ATOM      9  H   UNL     1      43.117   7.700  11.395  0.00  0.00    +0.000 HD
BRANCH   8  10
ATOM     10  C   UNL     1      44.296   9.363  11.342  0.00  0.00    +0.000 C 
BRANCH  10  11
ATOM     11  C   UNL     1      43.148   9.944  10.517  0.00  0.00    +0.000 C 
BRANCH  11  12
ATOM     12  N   UNL     1      43.590  10.210   9.152  0.00  0.00    +0.000 NA
ATOM     13  H   UNL     1      44.118  11.078   9.146  0.00  0.00    +0.000 HD
ATOM     14  H   UNL     1      42.770  10.360   8.568  0.00  0.00    +0.000 HD
ENDBRANCH  11  12
ENDBRANCH  10  11
ENDBRANCH   8  10
ENDBRANCH   7   8
ENDBRANCH   1   7
BRANCH   3  15
ATOM     15  C   UNL     1      47.445   4.812  14.865  0.00  0.00    +0.000 C 
BRANCH  15  16
ATOM     16  N   UNL     1      47.755   6.167  15.267  0.00  0.00    +0.000 N 
ATOM     17  C   UNL     1      48.901   6.508  15.933  0.00  0.00    +0.000 C 
ATOM     18  O   UNL     1      49.776   5.693  16.235  0.00  0.00    +0.000 OA
ATOM     19  H   UNL     1      46.956   6.767  15.444  0.00  0.00    +0.000 HD
BRANCH  17  20
ATOM     20  C   UNL     1      49.053   7.946  16.216  0.00  0.00    +0.000 A 
ATOM     21  C   UNL     1      49.212   8.396  17.518  0.00  0.00    +0.000 A 
ATOM     22  S   UNL     1      49.414  10.088  17.634  0.00  0.00    +0.000 S 
ATOM     23  C   UNL     1      49.258  10.282  15.950  0.00  0.00    +0.000 A 
ATOM     24  N   UNL     1      49.310  11.513  15.370  0.00  0.00    +0.000 NA
ATOM     25  C   UNL     1      49.154  11.509  14.091  0.00  0.00    +0.000 A 
ATOM     26  N   UNL     1      48.957  10.379  13.329  0.00  0.00    +0.000 N 
ATOM     27  C   UNL     1      48.938   9.132  13.873  0.00  0.00    +0.000 A 
ATOM     28  O   UNL     1      48.830   8.113  13.151  0.00  0.00    +0.000 OA
ATOM     29  C   UNL     1      49.082   9.069  15.306  0.00  0.00    +0.000 A 
ATOM     30  H   UNL     1      48.874  10.448  12.325  0.00  0.00    +0.000 HD
ENDBRANCH  17  20
ENDBRANCH  15  16
ENDBRANCH   3  15
BRANCH   6  31
ATOM     31  C   UNL     1      43.405   4.332  10.654  0.00  0.00    +0.000 C 
BRANCH  31  32
ATOM     32  N   UNL     1      43.912   4.538   9.318  0.00  0.00    +0.000 N 
ATOM     33  C   UNL     1      44.870   3.746   8.743  0.00  0.00    +0.000 A 
ATOM     34  N   UNL     1      45.063   2.447   9.033  0.00  0.00    +0.000 NA
ATOM     35  C   UNL     1      46.017   1.811   8.307  0.00  0.00    +0.000 A 
ATOM     36  C   UNL     1      46.775   2.416   7.326  0.00  0.00    +0.000 A 
ATOM     37 CL   UNL     1      47.971   1.589   6.431  0.00  0.00    +0.000 Cl
ATOM     38  C   UNL     1      46.501   3.741   7.115  0.00  0.00    +0.000 A 
ATOM     39  N   UNL     1      45.573   4.414   7.814  0.00  0.00    +0.000 NA
ATOM     40  H   UNL     1      44.286   5.474   9.192  0.00  0.00    +0.000 HD
ENDBRANCH  31  32
ENDBRANCH   6  31
TORSDOF 10
ENDMDL
MODEL 5
REMARK VINA RESULT:    -6.860      3.372      4.864
REMARK INTER + INTRA:         -12.717
REMARK INTER:                 -11.565
REMARK INTRA:                  -1.152
REMARK UNBOUND:                -2.048
REMARK  Name = 
REMARK  10 active torsions:
REMARK  status: ('A' for Active; 'I' for Inactive)
REMARK    1  A    between atoms: N_1  and  C_2
REMARK    2  A    between atoms: C_2  and  C_3
REMARK    3  A    between atoms: C_3  and  N_4
REMARK    4  A    between atoms: N_4  and  C_5
REMARK    5  A    between atoms: C_5  and  C_6
REMARK    6  A    between atoms: C_8  and  C_9
REMARK    7  A    between atoms: C_9  and  N_10
REMARK    8  A    between atoms: C_11  and  C_13
REMARK    9  A    between atoms: C_25  and  C_26
REMARK   10  A    between atoms: C_26  and  N_27
REMARK                            x       y       z     vdW  Elec       q    Type
REMARK                         _______ _______ _______ _____ _____    ______ ____
ROOT
ATOM      1  C   UNL     1      45.770   5.128  12.904  0.00  0.00    +0.000 A 
ATOM      2  C   UNL     1      46.289   6.423  13.133  0.00  0.00    +0.000 A 
ATOM      3  C   UNL     1      45.734   7.558  12.557  0.00  0.00    +0.000 A 
ATOM      4  C   UNL     1      44.644   7.336  11.734  0.00  0.00    +0.000 A 
ATOM      5  N   UNL     1      44.111   6.115  11.464  0.00  0.00    +0.000 NA
ATOM      6  C   UNL     1      44.664   5.004  12.041  0.00  0.00    +0.000 A 
ENDROOT
BRANCH   1   7
ATOM      7  C   UNL     1      46.554   4.030  13.598  0.00  0.00    +0.000 C 
BRANCH   7   8
ATOM      8  N   UNL     1      47.467   4.527  14.622  0.00  0.00    +0.000 NA
ATOM      9  H   UNL     1      48.418   4.249  14.369  0.00  0.00    +0.000 HD
BRANCH   8  10
ATOM     10  C   UNL     1      47.130   3.907  15.912  0.00  0.00    +0.000 C 
BRANCH  10  11
ATOM     11  C   UNL     1      47.750   4.658  17.091  0.00  0.00    +0.000 C 
BRANCH  11  12
ATOM     12  N   UNL     1      46.745   4.897  18.122  0.00  0.00    +0.000 NA
ATOM     13  H   UNL     1      47.020   4.399  18.963  0.00  0.00    +0.000 HD
ATOM     14  H   UNL     1      45.861   4.493  17.816  0.00  0.00    +0.000 HD
ENDBRANCH  11  12
ENDBRANCH  10  11
ENDBRANCH   8  10
ENDBRANCH   7   8
ENDBRANCH   1   7
BRANCH   3  15
ATOM     15  C   UNL     1      46.287   8.937  12.805  0.00  0.00    +0.000 C 
BRANCH  15  16
ATOM     16  N   UNL     1      47.520   9.185  12.089  0.00  0.00    +0.000 N 
ATOM     17  C   UNL     1      48.401  10.173  12.433  0.00  0.00    +0.000 C 
ATOM     18  O   UNL     1      48.229  10.929  13.392  0.00  0.00    +0.000 OA
ATOM     19  H   UNL     1      47.517   8.929  11.107  0.00  0.00    +0.000 HD
BRANCH  17  20
ATOM     20  C   UNL     1      49.619  10.238  11.607  0.00  0.00    +0.000 A 
ATOM     21  C   UNL     1      50.038  11.441  11.058  0.00  0.00    +0.000 A 
ATOM     22  S   UNL     1      51.491  11.315  10.170  0.00  0.00    +0.000 S 
ATOM     23  C   UNL     1      51.592   9.641  10.456  0.00  0.00    +0.000 A 
ATOM     24  N   UNL     1      52.607   8.893   9.943  0.00  0.00    +0.000 NA
ATOM     25  C   UNL     1      52.542   7.637  10.222  0.00  0.00    +0.000 A 
ATOM     26  N   UNL     1      51.551   7.054  10.979  0.00  0.00    +0.000 N 
ATOM     27  C   UNL     1      50.543   7.778  11.538  0.00  0.00    +0.000 A 
ATOM     28  O   UNL     1      49.693   7.236  12.282  0.00  0.00    +0.000 OA
ATOM     29  C   UNL     1      50.545   9.189  11.242  0.00  0.00    +0.000 A 
ATOM     30  H   UNL     1      51.579   6.065  11.184  0.00  0.00    +0.000 HD
ENDBRANCH  17  20
ENDBRANCH  15  16
ENDBRANCH   3  15
BRANCH   6  31
ATOM     31  C   UNL     1      43.989   3.683  11.623  0.00  0.00    +0.000 C 
BRANCH  31  32
ATOM     32  N   UNL     1      44.938   2.809  10.976  0.00  0.00    +0.000 N 
ATOM     33  C   UNL     1      45.328   2.952   9.670  0.00  0.00    +0.000 A 
ATOM     34  N   UNL     1      45.363   4.121   9.007  0.00  0.00    +0.000 NA
ATOM     35  C   UNL     1      45.845   4.070   7.738  0.00  0.00    +0.000 A 
ATOM     36  C   UNL     1      46.276   2.915   7.119  0.00  0.00    +0.000 A 
ATOM     37 CL   UNL     1      46.874   2.882   5.521  0.00  0.00    +0.000 Cl
ATOM     38  C   UNL     1      46.192   1.781   7.883  0.00  0.00    +0.000 A 
ATOM     39  N   UNL     1      45.715   1.782   9.138  0.00  0.00    +0.000 NA
ATOM     40  H   UNL     1      44.655   1.835  11.023  0.00  0.00    +0.000 HD
ENDBRANCH  31  32
ENDBRANCH   6  31
TORSDOF 10
ENDMDL
MODEL 6
REMARK VINA RESULT:    -6.716      2.019      3.802
REMARK INTER + INTRA:         -12.494
REMARK INTER:                 -11.344
REMARK INTRA:                  -1.150
REMARK UNBOUND:                -2.048
REMARK  Name = 
REMARK  10 active torsions:
REMARK  status: ('A' for Active; 'I' for Inactive)
REMARK    1  A    between atoms: N_1  and  C_2
REMARK    2  A    between atoms: C_2  and  C_3
REMARK    3  A    between atoms: C_3  and  N_4
REMARK    4  A    between atoms: N_4  and  C_5
REMARK    5  A    between atoms: C_5  and  C_6
REMARK    6  A    between atoms: C_8  and  C_9
REMARK    7  A    between atoms: C_9  and  N_10
REMARK    8  A    between atoms: C_11  and  C_13
REMARK    9  A    between atoms: C_25  and  C_26
REMARK   10  A    between atoms: C_26  and  N_27
REMARK                            x       y       z     vdW  Elec       q    Type
REMARK                         _______ _______ _______ _____ _____    ______ ____
ROOT
ATOM      1  C   UNL     1      45.598   5.612  12.493  0.00  0.00    +0.000 A 
ATOM      2  C   UNL     1      46.511   5.156  13.471  0.00  0.00    +0.000 A 
ATOM      3  C   UNL     1      46.657   3.810  13.781  0.00  0.00    +0.000 A 
ATOM      4  C   UNL     1      45.840   2.944  13.075  0.00  0.00    +0.000 A 
ATOM      5  N   UNL     1      44.933   3.325  12.136  0.00  0.00    +0.000 NA
ATOM      6  C   UNL     1      44.803   4.654  11.836  0.00  0.00    +0.000 A 
ENDROOT
BRANCH   1   7
ATOM      7  C   UNL     1      45.574   7.122  12.345  0.00  0.00    +0.000 C 
BRANCH   7   8
ATOM      8  N   UNL     1      46.355   7.817  13.363  0.00  0.00    +0.000 NA
ATOM      9  H   UNL     1      45.711   8.345  13.958  0.00  0.00    +0.000 HD
BRANCH   8  10
ATOM     10  C   UNL     1      47.266   8.767  12.708  0.00  0.00    +0.000 C 
BRANCH  10  11
ATOM     11  C   UNL     1      48.658   8.173  12.494  0.00  0.00    +0.000 C 
BRANCH  11  12
ATOM     12  N   UNL     1      49.390   8.948  11.497  0.00  0.00    +0.000 NA
ATOM     13  H   UNL     1      48.899   9.823  11.343  0.00  0.00    +0.000 HD
ATOM     14  H   UNL     1      49.373   8.441  10.614  0.00  0.00    +0.000 HD
ENDBRANCH  11  12
ENDBRANCH  10  11
ENDBRANCH   8  10
ENDBRANCH   7   8
ENDBRANCH   1   7
BRANCH   3  15
ATOM     15  C   UNL     1      47.633   3.326  14.821  0.00  0.00    +0.000 C 
BRANCH  15  16
ATOM     16  N   UNL     1      47.831   4.279  15.892  0.00  0.00    +0.000 N 
ATOM     17  C   UNL     1      47.361   4.088  17.162  0.00  0.00    +0.000 C 
ATOM     18  O   UNL     1      46.740   3.081  17.510  0.00  0.00    +0.000 OA
ATOM     19  H   UNL     1      47.926   5.248  15.606  0.00  0.00    +0.000 HD
BRANCH  17  20
ATOM     20  C   UNL     1      47.702   5.154  18.121  0.00  0.00    +0.000 A 
ATOM     21  C   UNL     1      46.728   5.708  18.938  0.00  0.00    +0.000 A 
ATOM     22  S   UNL     1      47.330   6.896  20.006  0.00  0.00    +0.000 S 
ATOM     23  C   UNL     1      48.908   6.739  19.387  0.00  0.00    +0.000 A 
ATOM     24  N   UNL     1      49.933   7.504  19.854  0.00  0.00    +0.000 NA
ATOM     25  C   UNL     1      51.065   7.293  19.277  0.00  0.00    +0.000 A 
ATOM     26  N   UNL     1      51.273   6.375  18.273  0.00  0.00    +0.000 N 
ATOM     27  C   UNL     1      50.279   5.568  17.809  0.00  0.00    +0.000 A 
ATOM     28  O   UNL     1      50.509   4.690  16.945  0.00  0.00    +0.000 OA
ATOM     29  C   UNL     1      48.979   5.773  18.397  0.00  0.00    +0.000 A 
ATOM     30  H   UNL     1      52.196   6.239  17.886  0.00  0.00    +0.000 HD
ENDBRANCH  17  20
ENDBRANCH  15  16
ENDBRANCH   3  15
BRANCH   6  31
ATOM     31  C   UNL     1      43.716   4.951  10.784  0.00  0.00    +0.000 C 
BRANCH  31  32
ATOM     32  N   UNL     1      44.303   5.092   9.473  0.00  0.00    +0.000 N 
ATOM     33  C   UNL     1      45.054   4.117   8.872  0.00  0.00    +0.000 A 
ATOM     34  N   UNL     1      44.910   2.798   9.091  0.00  0.00    +0.000 NA
ATOM     35  C   UNL     1      45.702   1.982   8.349  0.00  0.00    +0.000 A 
ATOM     36  C   UNL     1      46.618   2.428   7.420  0.00  0.00    +0.000 A 
ATOM     37 CL   UNL     1      47.602   1.377   6.503  0.00  0.00    +0.000 Cl
ATOM     38  C   UNL     1      46.688   3.789   7.280  0.00  0.00    +0.000 A 
ATOM     39  N   UNL     1      45.931   4.635   7.997  0.00  0.00    +0.000 NA
ATOM     40  H   UNL     1      44.901   5.911   9.408  0.00  0.00    +0.000 HD
ENDBRANCH  31  32
ENDBRANCH   6  31
TORSDOF 10
ENDMDL
MODEL 7
REMARK VINA RESULT:    -6.653      4.322      8.259
REMARK INTER + INTRA:         -12.397
REMARK INTER:                 -10.801
REMARK INTRA:                  -1.596
REMARK UNBOUND:                -2.048
REMARK  Name = 
REMARK  10 active torsions:
REMARK  status: ('A' for Active; 'I' for Inactive)
REMARK    1  A    between atoms: N_1  and  C_2
REMARK    2  A    between atoms: C_2  and  C_3
REMARK    3  A    between atoms: C_3  and  N_4
REMARK    4  A    between atoms: N_4  and  C_5
REMARK    5  A    between atoms: C_5  and  C_6
REMARK    6  A    between atoms: C_8  and  C_9
REMARK    7  A    between atoms: C_9  and  N_10
REMARK    8  A    between atoms: C_11  and  C_13
REMARK    9  A    between atoms: C_25  and  C_26
REMARK   10  A    between atoms: C_26  and  N_27
REMARK                            x       y       z     vdW  Elec       q    Type
REMARK                         _______ _______ _______ _____ _____    ______ ____
ROOT
ATOM      1  C   UNL     1      49.023   5.589  17.871  0.00  0.00    +0.000 A 
ATOM      2  C   UNL     1      48.602   6.493  16.869  0.00  0.00    +0.000 A 
ATOM      3  C   UNL     1      49.495   7.109  16.002  0.00  0.00    +0.000 A 
ATOM      4  C   UNL     1      50.828   6.787  16.191  0.00  0.00    +0.000 A 
ATOM      5  N   UNL     1      51.293   5.938  17.146  0.00  0.00    +0.000 NA
ATOM      6  C   UNL     1      50.403   5.334  17.992  0.00  0.00    +0.000 A 
ENDROOT
BRANCH   1   7
ATOM      7  C   UNL     1      47.887   5.067  18.732  0.00  0.00    +0.000 C 
BRANCH   7   8
ATOM      8  N   UNL     1      47.022   4.120  18.036  0.00  0.00    +0.000 NA
ATOM      9  H   UNL     1      46.205   3.937  18.625  0.00  0.00    +0.000 HD
BRANCH   8  10
ATOM     10  C   UNL     1      47.747   2.855  17.844  0.00  0.00    +0.000 C 
BRANCH  10  11
ATOM     11  C   UNL     1      48.088   2.607  16.375  0.00  0.00    +0.000 C 
BRANCH  11  12
ATOM     12  N   UNL     1      49.352   1.884  16.265  0.00  0.00    +0.000 NA
ATOM     13  H   UNL     1      49.186   0.908  16.489  0.00  0.00    +0.000 HD
ATOM     14  H   UNL     1      49.995   2.244  16.968  0.00  0.00    +0.000 HD
ENDBRANCH  11  12
ENDBRANCH  10  11
ENDBRANCH   8  10
ENDBRANCH   7   8
ENDBRANCH   1   7
BRANCH   3  15
ATOM     15  C   UNL     1      49.044   8.069  14.933  0.00  0.00    +0.000 C 
BRANCH  15  16
ATOM     16  N   UNL     1      47.836   7.636  14.263  0.00  0.00    +0.000 N 
ATOM     17  C   UNL     1      47.837   6.788  13.189  0.00  0.00    +0.000 C 
ATOM     18  O   UNL     1      48.865   6.308  12.707  0.00  0.00    +0.000 OA
ATOM     19  H   UNL     1      47.054   8.282  14.306  0.00  0.00    +0.000 HD
BRANCH  17  20
ATOM     20  C   UNL     1      46.503   6.432  12.675  0.00  0.00    +0.000 A 
ATOM     21  C   UNL     1      45.662   7.405  12.155  0.00  0.00    +0.000 A 
ATOM     22  S   UNL     1      44.181   6.786  11.574  0.00  0.00    +0.000 S 
ATOM     23  C   UNL     1      44.596   5.199  12.030  0.00  0.00    +0.000 A 
ATOM     24  N   UNL     1      43.740   4.159  11.836  0.00  0.00    +0.000 NA
ATOM     25  C   UNL     1      44.178   3.020  12.251  0.00  0.00    +0.000 A 
ATOM     26  N   UNL     1      45.406   2.822  12.841  0.00  0.00    +0.000 N 
ATOM     27  C   UNL     1      46.300   3.833  13.015  0.00  0.00    +0.000 A 
ATOM     28  O   UNL     1      47.439   3.615  13.489  0.00  0.00    +0.000 OA
ATOM     29  C   UNL     1      45.859   5.140  12.594  0.00  0.00    +0.000 A 
ATOM     30  H   UNL     1      45.698   1.894  13.115  0.00  0.00    +0.000 HD
ENDBRANCH  17  20
ENDBRANCH  15  16
ENDBRANCH   3  15
BRANCH   6  31
ATOM     31  C   UNL     1      51.064   4.428  19.049  0.00  0.00    +0.000 C 
BRANCH  31  32
ATOM     32  N   UNL     1      52.417   4.103  18.666  0.00  0.00    +0.000 N 
ATOM     33  C   UNL     1      52.819   2.845  18.303  0.00  0.00    +0.000 A 
ATOM     34  N   UNL     1      52.025   1.925  17.729  0.00  0.00    +0.000 NA
ATOM     35  C   UNL     1      52.623   0.758  17.378  0.00  0.00    +0.000 A 
ATOM     36  C   UNL     1      53.959   0.481  17.583  0.00  0.00    +0.000 A 
ATOM     37 CL   UNL     1      54.683  -0.999  17.133  0.00  0.00    +0.000 Cl
ATOM     38  C   UNL     1      54.675   1.484  18.181  0.00  0.00    +0.000 A 
ATOM     39  N   UNL     1      54.124   2.651  18.552  0.00  0.00    +0.000 NA
ATOM     40  H   UNL     1      53.089   4.357  19.386  0.00  0.00    +0.000 HD
ENDBRANCH  31  32
ENDBRANCH   6  31
TORSDOF 10
ENDMDL
MODEL 8
REMARK VINA RESULT:    -6.631      1.769      2.564
REMARK INTER + INTRA:         -12.361
REMARK INTER:                 -11.134
REMARK INTRA:                  -1.227
REMARK UNBOUND:                -2.048
REMARK  Name = 
REMARK  10 active torsions:
REMARK  status: ('A' for Active; 'I' for Inactive)
REMARK    1  A    between atoms: N_1  and  C_2
REMARK    2  A    between atoms: C_2  and  C_3
REMARK    3  A    between atoms: C_3  and  N_4
REMARK    4  A    between atoms: N_4  and  C_5
REMARK    5  A    between atoms: C_5  and  C_6
REMARK    6  A    between atoms: C_8  and  C_9
REMARK    7  A    between atoms: C_9  and  N_10
REMARK    8  A    between atoms: C_11  and  C_13
REMARK    9  A    between atoms: C_25  and  C_26
REMARK   10  A    between atoms: C_26  and  N_27
REMARK                            x       y       z     vdW  Elec       q    Type
REMARK                         _______ _______ _______ _____ _____    ______ ____
ROOT
ATOM      1  C   UNL     1      46.644   5.421  12.492  0.00  0.00    +0.000 A 
ATOM      2  C   UNL     1      47.807   5.825  13.186  0.00  0.00    +0.000 A 
ATOM      3  C   UNL     1      48.415   7.054  12.965  0.00  0.00    +0.000 A 
ATOM      4  C   UNL     1      47.811   7.854  12.010  0.00  0.00    +0.000 A 
ATOM      5  N   UNL     1      46.703   7.513  11.301  0.00  0.00    +0.000 NA
ATOM      6  C   UNL     1      46.110   6.301  11.531  0.00  0.00    +0.000 A 
ENDROOT
BRANCH   1   7
ATOM      7  C   UNL     1      46.174   4.025  12.859  0.00  0.00    +0.000 C 
BRANCH   7   8
ATOM      8  N   UNL     1      44.926   4.014  13.615  0.00  0.00    +0.000 NA
ATOM      9  H   UNL     1      45.061   3.439  14.450  0.00  0.00    +0.000 HD
BRANCH   8  10
ATOM     10  C   UNL     1      43.870   3.401  12.795  0.00  0.00    +0.000 C 
BRANCH  10  11
ATOM     11  C   UNL     1      42.803   4.413  12.381  0.00  0.00    +0.000 C 
BRANCH  11  12
ATOM     12  N   UNL     1      42.661   5.445  13.404  0.00  0.00    +0.000 NA
ATOM     13  H   UNL     1      41.858   6.021  13.172  0.00  0.00    +0.000 HD
ATOM     14  H   UNL     1      43.479   6.051  13.371  0.00  0.00    +0.000 HD
ENDBRANCH  11  12
ENDBRANCH  10  11
ENDBRANCH   8  10
ENDBRANCH   7   8
ENDBRANCH   1   7
BRANCH   3  15
ATOM     15  C   UNL     1      49.652   7.484  13.708  0.00  0.00    +0.000 C 
BRANCH  15  16
ATOM     16  N   UNL     1      49.635   7.090  15.101  0.00  0.00    +0.000 N 
ATOM     17  C   UNL     1      48.915   7.751  16.058  0.00  0.00    +0.000 C 
ATOM     18  O   UNL     1      48.206   8.730  15.815  0.00  0.00    +0.000 OA
ATOM     19  H   UNL     1      50.469   6.619  15.435  0.00  0.00    +0.000 HD
BRANCH  17  20
ATOM     20  C   UNL     1      48.994   7.171  17.410  0.00  0.00    +0.000 A 
ATOM     21  C   UNL     1      49.319   7.962  18.501  0.00  0.00    +0.000 A 
ATOM     22  S   UNL     1      49.317   7.114  19.983  0.00  0.00    +0.000 S 
ATOM     23  C   UNL     1      48.919   5.649  19.213  0.00  0.00    +0.000 A 
ATOM     24  N   UNL     1      48.786   4.491  19.916  0.00  0.00    +0.000 NA
ATOM     25  C   UNL     1      48.505   3.458  19.199  0.00  0.00    +0.000 A 
ATOM     26  N   UNL     1      48.336   3.475  17.833  0.00  0.00    +0.000 N 
ATOM     27  C   UNL     1      48.425   4.622  17.105  0.00  0.00    +0.000 A 
ATOM     28  O   UNL     1      48.196   4.625  15.873  0.00  0.00    +0.000 OA
ATOM     29  C   UNL     1      48.763   5.812  17.846  0.00  0.00    +0.000 A 
ATOM     30  H   UNL     1      48.086   2.631  17.338  0.00  0.00    +0.000 HD
ENDBRANCH  17  20
ENDBRANCH  15  16
ENDBRANCH   3  15
BRANCH   6  31
ATOM     31  C   UNL     1      44.887   6.025  10.635  0.00  0.00    +0.000 C 
BRANCH  31  32
ATOM     32  N   UNL     1      45.304   5.675   9.298  0.00  0.00    +0.000 N 
ATOM     33  C   UNL     1      45.618   4.398   8.915  0.00  0.00    +0.000 A 
ATOM     34  N   UNL     1      45.096   3.286   9.460  0.00  0.00    +0.000 NA
ATOM     35  C   UNL     1      45.479   2.111   8.897  0.00  0.00    +0.000 A 
ATOM     36  C   UNL     1      46.354   2.010   7.836  0.00  0.00    +0.000 A 
ATOM     37 CL   UNL     1      46.820   0.517   7.152  0.00  0.00    +0.000 Cl
ATOM     38  C   UNL     1      46.831   3.203   7.362  0.00  0.00    +0.000 A 
ATOM     39  N   UNL     1      46.487   4.388   7.890  0.00  0.00    +0.000 NA
ATOM     40  H   UNL     1      46.116   6.208   8.999  0.00  0.00    +0.000 HD
ENDBRANCH  31  32
ENDBRANCH   6  31
TORSDOF 10
ENDMDL
MODEL 9
REMARK VINA RESULT:    -6.573      4.699      8.806
REMARK INTER + INTRA:         -12.272
REMARK INTER:                 -10.370
REMARK INTRA:                  -1.902
REMARK UNBOUND:                -2.048
REMARK  Name = 
REMARK  10 active torsions:
REMARK  status: ('A' for Active; 'I' for Inactive)
REMARK    1  A    between atoms: N_1  and  C_2
REMARK    2  A    between atoms: C_2  and  C_3
REMARK    3  A    between atoms: C_3  and  N_4
REMARK    4  A    between atoms: N_4  and  C_5
REMARK    5  A    between atoms: C_5  and  C_6
REMARK    6  A    between atoms: C_8  and  C_9
REMARK    7  A    between atoms: C_9  and  N_10
REMARK    8  A    between atoms: C_11  and  C_13
REMARK    9  A    between atoms: C_25  and  C_26
REMARK   10  A    between atoms: C_26  and  N_27
REMARK                            x       y       z     vdW  Elec       q    Type
REMARK                         _______ _______ _______ _____ _____    ______ ____
ROOT
ATOM      1  C   UNL     1      49.446   7.030  15.206  0.00  0.00    +0.000 A 
ATOM      2  C   UNL     1      48.560   7.066  14.105  0.00  0.00    +0.000 A 
ATOM      3  C   UNL     1      48.877   7.712  12.917  0.00  0.00    +0.000 A 
ATOM      4  C   UNL     1      50.117   8.328  12.886  0.00  0.00    +0.000 A 
ATOM      5  N   UNL     1      51.002   8.340  13.918  0.00  0.00    +0.000 NA
ATOM      6  C   UNL     1      50.680   7.696  15.081  0.00  0.00    +0.000 A 
ENDROOT
BRANCH   1   7
ATOM      7  C   UNL     1      48.880   6.307  16.414  0.00  0.00    +0.000 C 
BRANCH   7   8
ATOM      8  N   UNL     1      49.376   4.942  16.558  0.00  0.00    +0.000 NA
ATOM      9  H   UNL     1      49.632   4.593  15.631  0.00  0.00    +0.000 HD
BRANCH   8  10
ATOM     10  C   UNL     1      48.302   4.091  17.093  0.00  0.00    +0.000 C 
BRANCH  10  11
ATOM     11  C   UNL     1      47.155   3.920  16.097  0.00  0.00    +0.000 C 
BRANCH  11  12
ATOM     12  N   UNL     1      47.625   3.231  14.899  0.00  0.00    +0.000 NA
ATOM     13  H   UNL     1      46.846   3.134  14.255  0.00  0.00    +0.000 HD
ATOM     14  H   UNL     1      47.913   2.289  15.157  0.00  0.00    +0.000 HD
ENDBRANCH  11  12
ENDBRANCH  10  11
ENDBRANCH   8  10
ENDBRANCH   7   8
ENDBRANCH   1   7
BRANCH   3  15
ATOM     15  C   UNL     1      47.933   7.746  11.744  0.00  0.00    +0.000 C 
BRANCH  15  16
ATOM     16  N   UNL     1      47.099   6.566  11.660  0.00  0.00    +0.000 N 
ATOM     17  C   UNL     1      45.733   6.608  11.717  0.00  0.00    +0.000 C 
ATOM     18  O   UNL     1      45.093   7.656  11.829  0.00  0.00    +0.000 OA
ATOM     19  H   UNL     1      47.521   5.705  11.993  0.00  0.00    +0.000 HD
BRANCH  17  20
ATOM     20  C   UNL     1      45.062   5.304  11.571  0.00  0.00    +0.000 A 
ATOM     21  C   UNL     1      44.361   4.748  12.630  0.00  0.00    +0.000 A 
ATOM     22  S   UNL     1      43.622   3.256  12.249  0.00  0.00    +0.000 S 
ATOM     23  C   UNL     1      44.245   3.283  10.665  0.00  0.00    +0.000 A 
ATOM     24  N   UNL     1      44.008   2.266   9.792  0.00  0.00    +0.000 NA
ATOM     25  C   UNL     1      44.561   2.411   8.638  0.00  0.00    +0.000 A 
ATOM     26  N   UNL     1      45.332   3.491   8.269  0.00  0.00    +0.000 N 
ATOM     27  C   UNL     1      45.557   4.541   9.104  0.00  0.00    +0.000 A 
ATOM     28  O   UNL     1      46.201   5.546   8.721  0.00  0.00    +0.000 OA
ATOM     29  C   UNL     1      44.985   4.429  10.423  0.00  0.00    +0.000 A 
ATOM     30  H   UNL     1      45.710   3.554   7.334  0.00  0.00    +0.000 HD
ENDBRANCH  17  20
ENDBRANCH  15  16
ENDBRANCH   3  15
BRANCH   6  31
ATOM     31  C   UNL     1      51.754   7.819  16.180  0.00  0.00    +0.000 C 
BRANCH  31  32
ATOM     32  N   UNL     1      52.825   6.878  15.952  0.00  0.00    +0.000 N 
ATOM     33  C   UNL     1      53.069   5.800  16.761  0.00  0.00    +0.000 A 
ATOM     34  N   UNL     1      52.132   5.152  17.474  0.00  0.00    +0.000 NA
ATOM     35  C   UNL     1      52.557   4.062  18.163  0.00  0.00    +0.000 A 
ATOM     36  C   UNL     1      53.860   3.610  18.171  0.00  0.00    +0.000 A 
ATOM     37 CL   UNL     1      54.365   2.237  19.050  0.00  0.00    +0.000 Cl
ATOM     38  C   UNL     1      54.734   4.347  17.415  0.00  0.00    +0.000 A 
ATOM     39  N   UNL     1      54.361   5.436  16.724  0.00  0.00    +0.000 NA
ATOM     40  H   UNL     1      53.731   7.336  15.904  0.00  0.00    +0.000 HD
ENDBRANCH  31  32
ENDBRANCH   6  31
TORSDOF 10
ENDMDL
