MODEL 1
REMARK VINA RESULT:    -8.921      0.000      0.000
REMARK INTER + INTRA:         -13.305
REMARK INTER:                 -12.571
REMARK INTRA:                  -0.734
REMARK UNBOUND:                -0.734
REMARK  Name = 
REMARK  8 active torsions:
REMARK  status: ('A' for Active; 'I' for Inactive)
REMARK    1  A    between atoms: C_1  and  C_2
REMARK    2  A    between atoms: C_2  and  N_3
REMARK    3  A    between atoms: C_2  and  C_16
REMARK    4  A    between atoms: C_4  and  C_6
REMARK    5  A    between atoms: C_19  and  C_20
REMARK    6  A    between atoms: C_20  and  N_21
REMARK    7  A    between atoms: N_21  and  C_22
REMARK    8  A    between atoms: C_22  and  C_23
REMARK                            x       y       z     vdW  Elec       q    Type
REMARK                         _______ _______ _______ _____ _____    ______ ____
ROOT
ATOM      1  C   UNL     1      47.825   8.620  12.136  0.00  0.00    +0.000 C 
ATOM      2  C   UNL     1      46.750   8.059  13.075  0.00  0.00    +0.000 C 
ENDROOT
BRANCH   2   3
ATOM      3  C   UNL     1      45.942   6.928  12.461  0.00  0.00    +0.000 A 
ATOM      4  C   UNL     1      46.203   6.539  11.139  0.00  0.00    +0.000 A 
ATOM      5  C   UNL     1      45.510   5.476  10.552  0.00  0.00    +0.000 A 
ATOM      6  C   UNL     1      44.533   4.775  11.273  0.00  0.00    +0.000 A 
ATOM      7  C   UNL     1      44.240   5.187  12.578  0.00  0.00    +0.000 A 
ATOM      8  C   UNL     1      44.929   6.256  13.160  0.00  0.00    +0.000 A 
BRANCH   6   9
ATOM      9  C   UNL     1      43.800   3.609  10.652  0.00  0.00    +0.000 C 
BRANCH   9  10
ATOM     10  N   UNL     1      44.690   2.463  10.479  0.00  0.00    +0.000 NA
ATOM     11  H   UNL     1      44.489   1.777  11.208  0.00  0.00    +0.000 HD
BRANCH  10  12
ATOM     12  C   UNL     1      44.477   1.820   9.177  0.00  0.00    +0.000 C 
BRANCH  12  13
ATOM     13  C   UNL     1      45.641   2.053   8.232  0.00  0.00    +0.000 A 
ATOM     14  C   UNL     1      45.805   3.298   7.620  0.00  0.00    +0.000 A 
ATOM     15  C   UNL     1      46.888   3.494   6.768  0.00  0.00    +0.000 A 
ATOM     16  C   UNL     1      47.773   2.448   6.544  0.00  0.00    +0.000 A 
ATOM     17  C   UNL     1      47.538   1.242   7.186  0.00  0.00    +0.000 A 
ATOM     18  N   UNL     1      46.499   1.022   8.021  0.00  0.00    +0.000 NA
ENDBRANCH  12  13
ENDBRANCH  10  12
ENDBRANCH   9  10
ENDBRANCH   6   9
ENDBRANCH   2   3
BRANCH   2  19
ATOM     19  N   UNL     1      47.334   7.630  14.333  0.00  0.00    +0.000 N 
ATOM     20  C   UNL     1      48.344   6.703  14.390  0.00  0.00    +0.000 C 
ATOM     21  O   UNL     1      48.830   6.224  13.368  0.00  0.00    +0.000 OA
ATOM     22  H   UNL     1      46.917   7.996  15.183  0.00  0.00    +0.000 HD
BRANCH  20  23
ATOM     23  C   UNL     1      48.827   6.294  15.720  0.00  0.00    +0.000 A 
ATOM     24  C   UNL     1      49.805   7.062  16.345  0.00  0.00    +0.000 A 
ATOM     25  S   UNL     1      50.291   6.464  17.863  0.00  0.00    +0.000 S 
ATOM     26  C   UNL     1      49.218   5.149  17.745  0.00  0.00    +0.000 A 
ATOM     27  N   UNL     1      49.158   4.218  18.735  0.00  0.00    +0.000 NA
ATOM     28  C   UNL     1      48.308   3.271  18.525  0.00  0.00    +0.000 A 
ATOM     29  N   UNL     1      47.503   3.178  17.420  0.00  0.00    +0.000 N 
ATOM     30  C   UNL     1      47.527   4.097  16.396  0.00  0.00    +0.000 A 
ATOM     31  O   UNL     1      46.792   3.976  15.422  0.00  0.00    +0.000 OA
ATOM     32  C   UNL     1      48.482   5.177  16.573  0.00  0.00    +0.000 A 
ATOM     33  H   UNL     1      46.851   2.415  17.317  0.00  0.00    +0.000 HD
ENDBRANCH  20  23
ENDBRANCH   2  19
TORSDOF 7
ENDMDL
MODEL 2
REMARK VINA RESULT:    -8.018      1.202      1.405
REMARK INTER + INTRA:         -12.032
REMARK INTER:                 -11.345
REMARK INTRA:                  -0.687
REMARK UNBOUND:                -0.734
REMARK  Name = 
REMARK  8 active torsions:
REMARK  status: ('A' for Active; 'I' for Inactive)
REMARK    1  A    between atoms: C_1  and  C_2
REMARK    2  A    between atoms: C_2  and  N_3
REMARK    3  A    between atoms: C_2  and  C_16
REMARK    4  A    between atoms: C_4  and  C_6
REMARK    5  A    between atoms: C_19  and  C_20
REMARK    6  A    between atoms: C_20  and  N_21
REMARK    7  A    between atoms: N_21  and  C_22
REMARK    8  A    between atoms: C_22  and  C_23
REMARK                            x       y       z     vdW  Elec       q    Type
REMARK                         _______ _______ _______ _____ _____    ______ ____
ROOT
ATOM      1  C   UNL     1      48.905   7.276  12.272  0.00  0.00    +0.000 C 
ATOM      2  C   UNL     1      47.645   7.255  13.145  0.00  0.00    +0.000 C 
ENDROOT
BRANCH   2   3
ATOM      3  C   UNL     1      46.524   6.406  12.568  0.00  0.00    +0.000 A 
ATOM      4  C   UNL     1      46.272   6.451  11.188  0.00  0.00    +0.000 A 
ATOM      5  C   UNL     1      45.277   5.654  10.613  0.00  0.00    +0.000 A 
ATOM      6  C   UNL     1      44.505   4.792  11.405  0.00  0.00    +0.000 A 
ATOM      7  C   UNL     1      44.726   4.775  12.787  0.00  0.00    +0.000 A 
ATOM      8  C   UNL     1      45.715   5.580  13.361  0.00  0.00    +0.000 A 
BRANCH   6   9
ATOM      9  C   UNL     1      43.447   3.910  10.786  0.00  0.00    +0.000 C 
BRANCH   9  10
ATOM     10  N   UNL     1      43.815   3.528   9.424  0.00  0.00    +0.000 NA
ATOM     11  H   UNL     1      44.363   4.282   9.007  0.00  0.00    +0.000 HD
BRANCH  10  12
ATOM     12  C   UNL     1      44.638   2.312   9.419  0.00  0.00    +0.000 C 
BRANCH  12  13
ATOM     13  C   UNL     1      45.715   2.360   8.352  0.00  0.00    +0.000 A 
ATOM     14  C   UNL     1      46.454   1.213   8.055  0.00  0.00    +0.000 A 
ATOM     15  C   UNL     1      47.428   1.276   7.062  0.00  0.00    +0.000 A 
ATOM     16  C   UNL     1      47.643   2.477   6.399  0.00  0.00    +0.000 A 
ATOM     17  C   UNL     1      46.871   3.570   6.756  0.00  0.00    +0.000 A 
ATOM     18  N   UNL     1      45.916   3.540   7.712  0.00  0.00    +0.000 NA
ENDBRANCH  12  13
ENDBRANCH  10  12
ENDBRANCH   9  10
ENDBRANCH   6   9
ENDBRANCH   2   3
BRANCH   2  19
ATOM     19  N   UNL     1      47.957   6.819  14.494  0.00  0.00    +0.000 N 
ATOM     20  C   UNL     1      48.534   7.656  15.416  0.00  0.00    +0.000 C 
ATOM     21  O   UNL     1      48.774   8.831  15.151  0.00  0.00    +0.000 OA
ATOM     22  H   UNL     1      47.793   5.841  14.711  0.00  0.00    +0.000 HD
BRANCH  20  23
ATOM     23  C   UNL     1      48.864   7.096  16.739  0.00  0.00    +0.000 A 
ATOM     24  C   UNL     1      49.394   7.940  17.710  0.00  0.00    +0.000 A 
ATOM     25  S   UNL     1      49.755   7.163  19.181  0.00  0.00    +0.000 S 
ATOM     26  C   UNL     1      49.223   5.664  18.578  0.00  0.00    +0.000 A 
ATOM     27  N   UNL     1      49.290   4.547  19.352  0.00  0.00    +0.000 NA
ATOM     28  C   UNL     1      48.859   3.475  18.778  0.00  0.00    +0.000 A 
ATOM     29  N   UNL     1      48.355   3.422  17.505  0.00  0.00    +0.000 N 
ATOM     30  C   UNL     1      48.266   4.526  16.688  0.00  0.00    +0.000 A 
ATOM     31  O   UNL     1      47.811   4.435  15.553  0.00  0.00    +0.000 OA
ATOM     32  C   UNL     1      48.755   5.758  17.278  0.00  0.00    +0.000 A 
ATOM     33  H   UNL     1      48.026   2.552  17.114  0.00  0.00    +0.000 HD
ENDBRANCH  20  23
ENDBRANCH   2  19
TORSDOF 7
ENDMDL
MODEL 3
REMARK VINA RESULT:    -7.708      3.275      4.070
REMARK INTER + INTRA:         -11.596
REMARK INTER:                 -10.474
REMARK INTRA:                  -1.122
REMARK UNBOUND:                -0.734
REMARK  Name = 
REMARK  8 active torsions:
REMARK  status: ('A' for Active; 'I' for Inactive)
REMARK    1  A    between atoms: C_1  and  C_2
REMARK    2  A    between atoms: C_2  and  N_3
REMARK    3  A    between atoms: C_2  and  C_16
REMARK    4  A    between atoms: C_4  and  C_6
REMARK    5  A    between atoms: C_19  and  C_20
REMARK    6  A    between atoms: C_20  and  N_21
REMARK    7  A    between atoms: N_21  and  C_22
REMARK    8  A    between atoms: C_22  and  C_23
REMARK                            x       y       z     vdW  Elec       q    Type
REMARK                         _______ _______ _______ _____ _____    ______ ____
ROOT
ATOM      1  C   UNL     1      45.469   9.937  12.017  0.00  0.00    +0.000 C 
ATOM      2  C   UNL     1      46.076   8.849  12.912  0.00  0.00    +0.000 C 
ENDROOT
BRANCH   2   3
ATOM      3  C   UNL     1      45.553   7.455  12.607  0.00  0.00    +0.000 A 
ATOM      4  C   UNL     1      44.430   7.311  11.778  0.00  0.00    +0.000 A 
ATOM      5  C   UNL     1      43.943   6.044  11.441  0.00  0.00    +0.000 A 
ATOM      6  C   UNL     1      44.566   4.886  11.927  0.00  0.00    +0.000 A 
ATOM      7  C   UNL     1      45.661   5.027  12.788  0.00  0.00    +0.000 A 
ATOM      8  C   UNL     1      46.141   6.295  13.131  0.00  0.00    +0.000 A 
BRANCH   6   9
ATOM      9  C   UNL     1      44.061   3.515  11.545  0.00  0.00    +0.000 C 
BRANCH   9  10
ATOM     10  N   UNL     1      45.053   2.794  10.751  0.00  0.00    +0.000 NA
ATOM     11  H   UNL     1      45.328   1.950  11.255  0.00  0.00    +0.000 HD
BRANCH  10  12
ATOM     12  C   UNL     1      44.499   2.389   9.452  0.00  0.00    +0.000 C 
BRANCH  12  13
ATOM     13  C   UNL     1      45.568   2.308   8.380  0.00  0.00    +0.000 A 
ATOM     14  C   UNL     1      45.800   3.399   7.541  0.00  0.00    +0.000 A 
ATOM     15  C   UNL     1      46.797   3.308   6.573  0.00  0.00    +0.000 A 
ATOM     16  C   UNL     1      47.528   2.133   6.463  0.00  0.00    +0.000 A 
ATOM     17  C   UNL     1      47.233   1.093   7.330  0.00  0.00    +0.000 A 
ATOM     18  N   UNL     1      46.276   1.153   8.281  0.00  0.00    +0.000 NA
ENDBRANCH  12  13
ENDBRANCH  10  12
ENDBRANCH   9  10
ENDBRANCH   6   9
ENDBRANCH   2   3
BRANCH   2  19
ATOM     19  N   UNL     1      47.526   8.866  12.835  0.00  0.00    +0.000 N 
ATOM     20  C   UNL     1      48.315   8.922  13.956  0.00  0.00    +0.000 C 
ATOM     21  O   UNL     1      47.826   8.917  15.083  0.00  0.00    +0.000 OA
ATOM     22  H   UNL     1      47.937   8.903  11.908  0.00  0.00    +0.000 HD
BRANCH  20  23
ATOM     23  C   UNL     1      49.775   8.994  13.765  0.00  0.00    +0.000 A 
ATOM     24  C   UNL     1      50.541   9.673  14.707  0.00  0.00    +0.000 A 
ATOM     25  S   UNL     1      52.206   9.704  14.354  0.00  0.00    +0.000 S 
ATOM     26  C   UNL     1      51.971   8.816  12.923  0.00  0.00    +0.000 A 
ATOM     27  N   UNL     1      53.024   8.516  12.116  0.00  0.00    +0.000 NA
ATOM     28  C   UNL     1      52.713   7.841  11.062  0.00  0.00    +0.000 A 
ATOM     29  N   UNL     1      51.445   7.429  10.747  0.00  0.00    +0.000 N 
ATOM     30  C   UNL     1      50.350   7.706  11.534  0.00  0.00    +0.000 A 
ATOM     31  O   UNL     1      49.231   7.320  11.215  0.00  0.00    +0.000 OA
ATOM     32  C   UNL     1      50.641   8.480  12.727  0.00  0.00    +0.000 A 
ATOM     33  H   UNL     1      51.267   6.896   9.909  0.00  0.00    +0.000 HD
ENDBRANCH  20  23
ENDBRANCH   2  19
TORSDOF 7
ENDMDL
MODEL 4
REMARK VINA RESULT:    -7.120      2.638      8.063
REMARK INTER + INTRA:         -10.767
REMARK INTER:                  -9.684
REMARK INTRA:                  -1.083
REMARK UNBOUND:                -0.734
REMARK  Name = 
REMARK  8 active torsions:
REMARK  status: ('A' for Active; 'I' for Inactive)
REMARK    1  A    between atoms: C_1  and  C_2
REMARK    2  A    between atoms: C_2  and  N_3
REMARK    3  A    between atoms: C_2  and  C_16
REMARK    4  A    between atoms: C_4  and  C_6
REMARK    5  A    between atoms: C_19  and  C_20
REMARK    6  A    between atoms: C_20  and  N_21
REMARK    7  A    between atoms: N_21  and  C_22
REMARK    8  A    between atoms: C_22  and  C_23
REMARK                            x       y       z     vdW  Elec       q    Type
REMARK                         _______ _______ _______ _____ _____    ______ ____
ROOT
ATOM      1  C   UNL     1      47.237   9.202  11.839  0.00  0.00    +0.000 C 
ATOM      2  C   UNL     1      47.940   7.914  12.284  0.00  0.00    +0.000 C 
ENDROOT
BRANCH   2   3
ATOM      3  C   UNL     1      48.300   7.901  13.760  0.00  0.00    +0.000 A 
ATOM      4  C   UNL     1      47.981   9.014  14.553  0.00  0.00    +0.000 A 
ATOM      5  C   UNL     1      48.259   9.024  15.923  0.00  0.00    +0.000 A 
ATOM      6  C   UNL     1      48.867   7.921  16.537  0.00  0.00    +0.000 A 
ATOM      7  C   UNL     1      49.225   6.826  15.742  0.00  0.00    +0.000 A 
ATOM      8  C   UNL     1      48.955   6.822  14.370  0.00  0.00    +0.000 A 
BRANCH   6   9
ATOM      9  C   UNL     1      49.146   7.916  18.022  0.00  0.00    +0.000 C 
BRANCH   9  10
ATOM     10  N   UNL     1      47.995   7.413  18.768  0.00  0.00    +0.000 NA
ATOM     11  H   UNL     1      47.244   7.200  18.111  0.00  0.00    +0.000 HD
BRANCH  10  12
ATOM     12  C   UNL     1      48.331   6.180  19.491  0.00  0.00    +0.000 C 
BRANCH  12  13
ATOM     13  C   UNL     1      48.326   4.968  18.579  0.00  0.00    +0.000 A 
ATOM     14  C   UNL     1      49.466   4.167  18.476  0.00  0.00    +0.000 A 
ATOM     15  C   UNL     1      49.434   3.051  17.644  0.00  0.00    +0.000 A 
ATOM     16  C   UNL     1      48.276   2.768  16.934  0.00  0.00    +0.000 A 
ATOM     17  C   UNL     1      47.189   3.615  17.087  0.00  0.00    +0.000 A 
ATOM     18  N   UNL     1      47.187   4.702  17.889  0.00  0.00    +0.000 NA
ENDBRANCH  12  13
ENDBRANCH  10  12
ENDBRANCH   9  10
ENDBRANCH   6   9
ENDBRANCH   2   3
BRANCH   2  19
ATOM     19  N   UNL     1      47.141   6.747  11.955  0.00  0.00    +0.000 N 
ATOM     20  C   UNL     1      45.817   6.648  12.302  0.00  0.00    +0.000 C 
ATOM     21  O   UNL     1      45.236   7.567  12.875  0.00  0.00    +0.000 OA
ATOM     22  H   UNL     1      47.621   5.970  11.511  0.00  0.00    +0.000 HD
BRANCH  20  23
ATOM     23  C   UNL     1      45.112   5.397  11.972  0.00  0.00    +0.000 A 
ATOM     24  C   UNL     1      44.390   4.751  12.971  0.00  0.00    +0.000 A 
ATOM     25  S   UNL     1      43.646   3.306  12.464  0.00  0.00    +0.000 S 
ATOM     26  C   UNL     1      44.266   3.480  10.890  0.00  0.00    +0.000 A 
ATOM     27  N   UNL     1      44.012   2.539   9.941  0.00  0.00    +0.000 NA
ATOM     28  C   UNL     1      44.540   2.786   8.790  0.00  0.00    +0.000 A 
ATOM     29  N   UNL     1      45.288   3.897   8.499  0.00  0.00    +0.000 N 
ATOM     30  C   UNL     1      45.568   4.875   9.425  0.00  0.00    +0.000 A 
ATOM     31  O   UNL     1      46.244   5.853   9.124  0.00  0.00    +0.000 OA
ATOM     32  C   UNL     1      45.012   4.638  10.745  0.00  0.00    +0.000 A 
ATOM     33  H   UNL     1      45.668   4.037   7.575  0.00  0.00    +0.000 HD
ENDBRANCH  20  23
ENDBRANCH   2  19
TORSDOF 7
ENDMDL
MODEL 5
REMARK VINA RESULT:    -7.077      3.490      8.045
REMARK INTER + INTRA:         -10.707
REMARK INTER:                  -8.653
REMARK INTRA:                  -2.053
REMARK UNBOUND:                -0.734
REMARK  Name = 
REMARK  8 active torsions:
REMARK  status: ('A' for Active; 'I' for Inactive)
REMARK    1  A    between atoms: C_1  and  C_2
REMARK    2  A    between atoms: C_2  and  N_3
REMARK    3  A    between atoms: C_2  and  C_16
REMARK    4  A    between atoms: C_4  and  C_6
REMARK    5  A    between atoms: C_19  and  C_20
REMARK    6  A    between atoms: C_20  and  N_21
REMARK    7  A    between atoms: N_21  and  C_22
REMARK    8  A    between atoms: C_22  and  C_23
REMARK                            x       y       z     vdW  Elec       q    Type
REMARK                         _______ _______ _______ _____ _____    ______ ____
ROOT
ATOM      1  C   UNL     1      48.314   9.751  14.111  0.00  0.00    +0.000 C 
ATOM      2  C   UNL     1      48.656   8.272  14.326  0.00  0.00    +0.000 C 
ENDROOT
BRANCH   2   3
ATOM      3  C   UNL     1      49.125   7.960  15.738  0.00  0.00    +0.000 A 
ATOM      4  C   UNL     1      48.454   8.539  16.826  0.00  0.00    +0.000 A 
ATOM      5  C   UNL     1      48.830   8.245  18.141  0.00  0.00    +0.000 A 
ATOM      6  C   UNL     1      49.890   7.366  18.402  0.00  0.00    +0.000 A 
ATOM      7  C   UNL     1      50.588   6.819  17.319  0.00  0.00    +0.000 A 
ATOM      8  C   UNL     1      50.217   7.122  16.005  0.00  0.00    +0.000 A 
BRANCH   6   9
ATOM      9  C   UNL     1      50.282   7.025  19.820  0.00  0.00    +0.000 C 
BRANCH   9  10
ATOM     10  N   UNL     1      50.375   5.578  20.004  0.00  0.00    +0.000 NA
ATOM     11  H   UNL     1      50.876   5.388  20.873  0.00  0.00    +0.000 HD
BRANCH  10  12
ATOM     12  C   UNL     1      49.042   4.971  20.104  0.00  0.00    +0.000 C 
BRANCH  12  13
ATOM     13  C   UNL     1      48.612   4.328  18.800  0.00  0.00    +0.000 A 
ATOM     14  C   UNL     1      47.477   4.794  18.133  0.00  0.00    +0.000 A 
ATOM     15  C   UNL     1      47.108   4.199  16.930  0.00  0.00    +0.000 A 
ATOM     16  C   UNL     1      47.874   3.155  16.427  0.00  0.00    +0.000 A 
ATOM     17  C   UNL     1      48.983   2.748  17.151  0.00  0.00    +0.000 A 
ATOM     18  N   UNL     1      49.368   3.308  18.319  0.00  0.00    +0.000 NA
ENDBRANCH  12  13
ENDBRANCH  10  12
ENDBRANCH   9  10
ENDBRANCH   6   9
ENDBRANCH   2   3
BRANCH   2  19
ATOM     19  N   UNL     1      47.531   7.424  13.976  0.00  0.00    +0.000 N 
ATOM     20  C   UNL     1      47.688   6.255  13.275  0.00  0.00    +0.000 C 
ATOM     21  O   UNL     1      48.801   5.851  12.947  0.00  0.00    +0.000 OA
ATOM     22  H   UNL     1      46.605   7.767  14.213  0.00  0.00    +0.000 HD
BRANCH  20  23
ATOM     23  C   UNL     1      46.475   5.499  12.919  0.00  0.00    +0.000 A 
ATOM     24  C   UNL     1      46.446   4.128  13.154  0.00  0.00    +0.000 A 
ATOM     25  S   UNL     1      44.998   3.372  12.674  0.00  0.00    +0.000 S 
ATOM     26  C   UNL     1      44.351   4.847  12.126  0.00  0.00    +0.000 A 
ATOM     27  N   UNL     1      43.114   4.890  11.562  0.00  0.00    +0.000 NA
ATOM     28  C   UNL     1      42.740   6.066  11.186  0.00  0.00    +0.000 A 
ATOM     29  N   UNL     1      43.487   7.205  11.335  0.00  0.00    +0.000 N 
ATOM     30  C   UNL     1      44.741   7.210  11.901  0.00  0.00    +0.000 A 
ATOM     31  O   UNL     1      45.378   8.251  12.013  0.00  0.00    +0.000 OA
ATOM     32  C   UNL     1      45.219   5.907  12.327  0.00  0.00    +0.000 A 
ATOM     33  H   UNL     1      43.134   8.098  11.026  0.00  0.00    +0.000 HD
ENDBRANCH  20  23
ENDBRANCH   2  19
TORSDOF 7
ENDMDL
MODEL 6
REMARK VINA RESULT:    -7.076      4.221      6.205
REMARK INTER + INTRA:         -10.705
REMARK INTER:                  -9.554
REMARK INTRA:                  -1.151
REMARK UNBOUND:                -0.734
REMARK  Name = 
REMARK  8 active torsions:
REMARK  status: ('A' for Active; 'I' for Inactive)
REMARK    1  A    between atoms: C_1  and  C_2
REMARK    2  A    between atoms: C_2  and  N_3
REMARK    3  A    between atoms: C_2  and  C_16
REMARK    4  A    between atoms: C_4  and  C_6
REMARK    5  A    between atoms: C_19  and  C_20
REMARK    6  A    between atoms: C_20  and  N_21
REMARK    7  A    between atoms: N_21  and  C_22
REMARK    8  A    between atoms: C_22  and  C_23
REMARK                            x       y       z     vdW  Elec       q    Type
REMARK                         _______ _______ _______ _____ _____    ______ ____
ROOT
ATOM      1  C   UNL     1      48.076   9.502  12.760  0.00  0.00    +0.000 C 
ATOM      2  C   UNL     1      48.552   8.056  12.576  0.00  0.00    +0.000 C 
ENDROOT
BRANCH   2   3
ATOM      3  C   UNL     1      47.418   7.074  12.333  0.00  0.00    +0.000 A 
ATOM      4  C   UNL     1      46.966   6.859  11.022  0.00  0.00    +0.000 A 
ATOM      5  C   UNL     1      45.953   5.933  10.754  0.00  0.00    +0.000 A 
ATOM      6  C   UNL     1      45.362   5.200  11.792  0.00  0.00    +0.000 A 
ATOM      7  C   UNL     1      45.781   5.441  13.105  0.00  0.00    +0.000 A 
ATOM      8  C   UNL     1      46.788   6.374  13.372  0.00  0.00    +0.000 A 
BRANCH   6   9
ATOM      9  C   UNL     1      44.286   4.179  11.504  0.00  0.00    +0.000 C 
BRANCH   9  10
ATOM     10  N   UNL     1      44.204   3.894  10.074  0.00  0.00    +0.000 NA
ATOM     11  H   UNL     1      44.835   4.523   9.575  0.00  0.00    +0.000 HD
BRANCH  10  12
ATOM     12  C   UNL     1      44.616   2.514   9.785  0.00  0.00    +0.000 C 
BRANCH  12  13
ATOM     13  C   UNL     1      45.540   2.437   8.584  0.00  0.00    +0.000 A 
ATOM     14  C   UNL     1      45.760   3.571   7.799  0.00  0.00    +0.000 A 
ATOM     15  C   UNL     1      46.623   3.481   6.711  0.00  0.00    +0.000 A 
ATOM     16  C   UNL     1      47.236   2.268   6.430  0.00  0.00    +0.000 A 
ATOM     17  C   UNL     1      46.962   1.188   7.255  0.00  0.00    +0.000 A 
ATOM     18  N   UNL     1      46.133   1.245   8.320  0.00  0.00    +0.000 NA
ENDBRANCH  12  13
ENDBRANCH  10  12
ENDBRANCH   9  10
ENDBRANCH   6   9
ENDBRANCH   2   3
BRANCH   2  19
ATOM     19  N   UNL     1      49.529   7.966  11.505  0.00  0.00    +0.000 N 
ATOM     20  C   UNL     1      50.875   8.105  11.732  0.00  0.00    +0.000 C 
ATOM     21  O   UNL     1      51.318   8.272  12.865  0.00  0.00    +0.000 OA
ATOM     22  H   UNL     1      49.169   7.861  10.562  0.00  0.00    +0.000 HD
BRANCH  20  23
ATOM     23  C   UNL     1      51.776   8.054  10.568  0.00  0.00    +0.000 A 
ATOM     24  C   UNL     1      52.292   6.824  10.172  0.00  0.00    +0.000 A 
ATOM     25  S   UNL     1      53.338   6.910   8.831  0.00  0.00    +0.000 S 
ATOM     26  C   UNL     1      53.150   8.597   8.729  0.00  0.00    +0.000 A 
ATOM     27  N   UNL     1      53.818   9.309   7.781  0.00  0.00    +0.000 NA
ATOM     28  C   UNL     1      53.592  10.579   7.811  0.00  0.00    +0.000 A 
ATOM     29  N   UNL     1      52.749  11.199   8.694  0.00  0.00    +0.000 N 
ATOM     30  C   UNL     1      52.051  10.521   9.667  0.00  0.00    +0.000 A 
ATOM     31  O   UNL     1      51.308  11.115  10.440  0.00  0.00    +0.000 OA
ATOM     32  C   UNL     1      52.283   9.088   9.690  0.00  0.00    +0.000 A 
ATOM     33  H   UNL     1      52.609  12.198   8.661  0.00  0.00    +0.000 HD
ENDBRANCH  20  23
ENDBRANCH   2  19
TORSDOF 7
ENDMDL
MODEL 7
REMARK VINA RESULT:    -7.045      3.027      7.617
REMARK INTER + INTRA:         -10.662
REMARK INTER:                  -9.739
REMARK INTRA:                  -0.923
REMARK UNBOUND:                -0.734
REMARK  Name = 
REMARK  8 active torsions:
REMARK  status: ('A' for Active; 'I' for Inactive)
REMARK    1  A    between atoms: C_1  and  C_2
REMARK    2  A    between atoms: C_2  and  N_3
REMARK    3  A    between atoms: C_2  and  C_16
REMARK    4  A    between atoms: C_4  and  C_6
REMARK    5  A    between atoms: C_19  and  C_20
REMARK    6  A    between atoms: C_20  and  N_21
REMARK    7  A    between atoms: N_21  and  C_22
REMARK    8  A    between atoms: C_22  and  C_23
REMARK                            x       y       z     vdW  Elec       q    Type
REMARK                         _______ _______ _______ _____ _____    ______ ____
ROOT
ATOM      1  C   UNL     1      47.710   9.695  11.757  0.00  0.00    +0.000 C 
ATOM      2  C   UNL     1      48.353   8.356  12.139  0.00  0.00    +0.000 C 
ENDROOT
BRANCH   2   3
ATOM      3  C   UNL     1      48.421   8.125  13.640  0.00  0.00    +0.000 A 
ATOM      4  C   UNL     1      48.736   6.846  14.122  0.00  0.00    +0.000 A 
ATOM      5  C   UNL     1      48.849   6.603  15.495  0.00  0.00    +0.000 A 
ATOM      6  C   UNL     1      48.646   7.635  16.422  0.00  0.00    +0.000 A 
ATOM      7  C   UNL     1      48.291   8.903  15.946  0.00  0.00    +0.000 A 
ATOM      8  C   UNL     1      48.170   9.141  14.573  0.00  0.00    +0.000 A 
BRANCH   6   9
ATOM      9  C   UNL     1      48.793   7.385  17.904  0.00  0.00    +0.000 C 
BRANCH   9  10
ATOM     10  N   UNL     1      47.561   6.836  18.467  0.00  0.00    +0.000 NA
ATOM     11  H   UNL     1      46.931   6.590  17.702  0.00  0.00    +0.000 HD
BRANCH  10  12
ATOM     12  C   UNL     1      47.830   5.620  19.244  0.00  0.00    +0.000 C 
BRANCH  12  13
ATOM     13  C   UNL     1      48.265   4.466  18.361  0.00  0.00    +0.000 A 
ATOM     14  C   UNL     1      47.379   3.933  17.423  0.00  0.00    +0.000 A 
ATOM     15  C   UNL     1      47.804   2.884  16.612  0.00  0.00    +0.000 A 
ATOM     16  C   UNL     1      49.093   2.391  16.761  0.00  0.00    +0.000 A 
ATOM     17  C   UNL     1      49.910   2.971  17.719  0.00  0.00    +0.000 A 
ATOM     18  N   UNL     1      49.528   3.992  18.517  0.00  0.00    +0.000 NA
ENDBRANCH  12  13
ENDBRANCH  10  12
ENDBRANCH   9  10
ENDBRANCH   6   9
ENDBRANCH   2   3
BRANCH   2  19
ATOM     19  N   UNL     1      47.666   7.250  11.494  0.00  0.00    +0.000 N 
ATOM     20  C   UNL     1      46.314   7.059  11.619  0.00  0.00    +0.000 C 
ATOM     21  O   UNL     1      45.613   7.844  12.252  0.00  0.00    +0.000 OA
ATOM     22  H   UNL     1      48.243   6.578  10.997  0.00  0.00    +0.000 HD
BRANCH  20  23
ATOM     23  C   UNL     1      45.726   5.872  10.973  0.00  0.00    +0.000 A 
ATOM     24  C   UNL     1      45.917   5.689   9.607  0.00  0.00    +0.000 A 
ATOM     25  S   UNL     1      45.165   4.295   8.982  0.00  0.00    +0.000 S 
ATOM     26  C   UNL     1      44.546   3.883  10.512  0.00  0.00    +0.000 A 
ATOM     27  N   UNL     1      43.768   2.777  10.666  0.00  0.00    +0.000 NA
ATOM     28  C   UNL     1      43.360   2.576  11.873  0.00  0.00    +0.000 A 
ATOM     29  N   UNL     1      43.670   3.375  12.943  0.00  0.00    +0.000 N 
ATOM     30  C   UNL     1      44.454   4.500  12.835  0.00  0.00    +0.000 A 
ATOM     31  O   UNL     1      44.705   5.190  13.817  0.00  0.00    +0.000 OA
ATOM     32  C   UNL     1      44.926   4.784  11.492  0.00  0.00    +0.000 A 
ATOM     33  H   UNL     1      43.325   3.159  13.866  0.00  0.00    +0.000 HD
ENDBRANCH  20  23
ENDBRANCH   2  19
TORSDOF 7
ENDMDL
MODEL 8
REMARK VINA RESULT:    -6.886      3.123      5.418
REMARK INTER + INTRA:         -10.438
REMARK INTER:                  -9.149
REMARK INTRA:                  -1.288
REMARK UNBOUND:                -0.734
REMARK  Name = 
REMARK  8 active torsions:
REMARK  status: ('A' for Active; 'I' for Inactive)
REMARK    1  A    between atoms: C_1  and  C_2
REMARK    2  A    between atoms: C_2  and  N_3
REMARK    3  A    between atoms: C_2  and  C_16
REMARK    4  A    between atoms: C_4  and  C_6
REMARK    5  A    between atoms: C_19  and  C_20
REMARK    6  A    between atoms: C_20  and  N_21
REMARK    7  A    between atoms: N_21  and  C_22
REMARK    8  A    between atoms: C_22  and  C_23
REMARK                            x       y       z     vdW  Elec       q    Type
REMARK                         _______ _______ _______ _____ _____    ______ ____
ROOT
ATOM      1  C   UNL     1      47.193   4.574  18.464  0.00  0.00    +0.000 C 
ATOM      2  C   UNL     1      47.854   3.836  17.294  0.00  0.00    +0.000 C 
ENDROOT
BRANCH   2   3
ATOM      3  C   UNL     1      47.701   4.555  15.963  0.00  0.00    +0.000 A 
ATOM      4  C   UNL     1      48.291   5.817  15.795  0.00  0.00    +0.000 A 
ATOM      5  C   UNL     1      48.207   6.492  14.573  0.00  0.00    +0.000 A 
ATOM      6  C   UNL     1      47.528   5.923  13.487  0.00  0.00    +0.000 A 
ATOM      7  C   UNL     1      46.902   4.683  13.664  0.00  0.00    +0.000 A 
ATOM      8  C   UNL     1      46.980   4.014  14.890  0.00  0.00    +0.000 A 
BRANCH   6   9
ATOM      9  C   UNL     1      47.457   6.636  12.158  0.00  0.00    +0.000 C 
BRANCH   9  10
ATOM     10  N   UNL     1      46.104   7.121  11.895  0.00  0.00    +0.000 NA
ATOM     11  H   UNL     1      46.142   8.127  11.729  0.00  0.00    +0.000 HD
BRANCH  10  12
ATOM     12  C   UNL     1      45.536   6.483  10.701  0.00  0.00    +0.000 C 
BRANCH  12  13
ATOM     13  C   UNL     1      44.742   5.237  11.046  0.00  0.00    +0.000 A 
ATOM     14  C   UNL     1      44.859   4.093  10.254  0.00  0.00    +0.000 A 
ATOM     15  C   UNL     1      44.133   2.956  10.598  0.00  0.00    +0.000 A 
ATOM     16  C   UNL     1      43.308   2.992  11.714  0.00  0.00    +0.000 A 
ATOM     17  C   UNL     1      43.242   4.167  12.444  0.00  0.00    +0.000 A 
ATOM     18  N   UNL     1      43.938   5.284  12.139  0.00  0.00    +0.000 NA
ENDBRANCH  12  13
ENDBRANCH  10  12
ENDBRANCH   9  10
ENDBRANCH   6   9
ENDBRANCH   2   3
BRANCH   2  19
ATOM     19  N   UNL     1      49.258   3.584  17.567  0.00  0.00    +0.000 N 
ATOM     20  C   UNL     1      49.929   2.523  17.015  0.00  0.00    +0.000 C 
ATOM     21  O   UNL     1      49.379   1.758  16.227  0.00  0.00    +0.000 OA
ATOM     22  H   UNL     1      49.711   4.191  18.242  0.00  0.00    +0.000 HD
BRANCH  20  23
ATOM     23  C   UNL     1      51.337   2.324  17.404  0.00  0.00    +0.000 A 
ATOM     24  C   UNL     1      51.816   1.025  17.545  0.00  0.00    +0.000 A 
ATOM     25  S   UNL     1      53.448   0.936  18.022  0.00  0.00    +0.000 S 
ATOM     26  C   UNL     1      53.579   2.631  18.067  0.00  0.00    +0.000 A 
ATOM     27  N   UNL     1      54.747   3.223  18.437  0.00  0.00    +0.000 NA
ATOM     28  C   UNL     1      54.716   4.512  18.432  0.00  0.00    +0.000 A 
ATOM     29  N   UNL     1      53.627   5.264  18.079  0.00  0.00    +0.000 N 
ATOM     30  C   UNL     1      52.426   4.710  17.696  0.00  0.00    +0.000 A 
ATOM     31  O   UNL     1      51.474   5.419  17.391  0.00  0.00    +0.000 OA
ATOM     32  C   UNL     1      52.400   3.259  17.701  0.00  0.00    +0.000 A 
ATOM     33  H   UNL     1      53.668   6.272  18.090  0.00  0.00    +0.000 HD
ENDBRANCH  20  23
ENDBRANCH   2  19
TORSDOF 7
ENDMDL
MODEL 9
REMARK VINA RESULT:    -6.862      3.350      4.704
REMARK INTER + INTRA:         -10.403
REMARK INTER:                  -9.673
REMARK INTRA:                  -0.730
REMARK UNBOUND:                -0.734
REMARK  Name = 
REMARK  8 active torsions:
REMARK  status: ('A' for Active; 'I' for Inactive)
REMARK    1  A    between atoms: C_1  and  C_2
REMARK    2  A    between atoms: C_2  and  N_3
REMARK    3  A    between atoms: C_2  and  C_16
REMARK    4  A    between atoms: C_4  and  C_6
REMARK    5  A    between atoms: C_19  and  C_20
REMARK    6  A    between atoms: C_20  and  N_21
REMARK    7  A    between atoms: N_21  and  C_22
REMARK    8  A    between atoms: C_22  and  C_23
REMARK                            x       y       z     vdW  Elec       q    Type
REMARK                         _______ _______ _______ _____ _____    ______ ____
ROOT
ATOM      1  C   UNL     1      49.161   6.924  18.138  0.00  0.00    +0.000 C 
ATOM      2  C   UNL     1      48.978   5.509  17.577  0.00  0.00    +0.000 C 
ENDROOT
BRANCH   2   3
ATOM      3  C   UNL     1      48.303   5.482  16.215  0.00  0.00    +0.000 A 
ATOM      4  C   UNL     1      48.541   6.529  15.312  0.00  0.00    +0.000 A 
ATOM      5  C   UNL     1      47.971   6.521  14.035  0.00  0.00    +0.000 A 
ATOM      6  C   UNL     1      47.144   5.464  13.629  0.00  0.00    +0.000 A 
ATOM      7  C   UNL     1      46.871   4.439  14.542  0.00  0.00    +0.000 A 
ATOM      8  C   UNL     1      47.435   4.454  15.821  0.00  0.00    +0.000 A 
BRANCH   6   9
ATOM      9  C   UNL     1      46.547   5.437  12.241  0.00  0.00    +0.000 C 
BRANCH   9  10
ATOM     10  N   UNL     1      45.166   4.962  12.275  0.00  0.00    +0.000 NA
ATOM     11  H   UNL     1      44.659   5.475  12.997  0.00  0.00    +0.000 HD
BRANCH  10  12
ATOM     12  C   UNL     1      44.494   5.198  10.991  0.00  0.00    +0.000 C 
BRANCH  12  13
ATOM     13  C   UNL     1      44.982   4.251   9.912  0.00  0.00    +0.000 A 
ATOM     14  C   UNL     1      45.647   4.753   8.791  0.00  0.00    +0.000 A 
ATOM     15  C   UNL     1      46.100   3.864   7.820  0.00  0.00    +0.000 A 
ATOM     16  C   UNL     1      45.874   2.505   7.987  0.00  0.00    +0.000 A 
ATOM     17  C   UNL     1      45.202   2.087   9.125  0.00  0.00    +0.000 A 
ATOM     18  N   UNL     1      44.754   2.924  10.086  0.00  0.00    +0.000 NA
ENDBRANCH  12  13
ENDBRANCH  10  12
ENDBRANCH   9  10
ENDBRANCH   6   9
ENDBRANCH   2   3
BRANCH   2  19
ATOM     19  N   UNL     1      50.248   4.807  17.518  0.00  0.00    +0.000 N 
ATOM     20  C   UNL     1      50.923   4.425  18.649  0.00  0.00    +0.000 C 
ATOM     21  O   UNL     1      50.458   4.624  19.769  0.00  0.00    +0.000 OA
ATOM     22  H   UNL     1      50.654   4.667  16.598  0.00  0.00    +0.000 HD
BRANCH  20  23
ATOM     23  C   UNL     1      52.232   3.770  18.480  0.00  0.00    +0.000 A 
ATOM     24  C   UNL     1      53.378   4.448  18.884  0.00  0.00    +0.000 A 
ATOM     25  S   UNL     1      54.823   3.591  18.609  0.00  0.00    +0.000 S 
ATOM     26  C   UNL     1      53.977   2.281  17.931  0.00  0.00    +0.000 A 
ATOM     27  N   UNL     1      54.649   1.197  17.458  0.00  0.00    +0.000 NA
ATOM     28  C   UNL     1      53.893   0.274  16.967  0.00  0.00    +0.000 A 
ATOM     29  N   UNL     1      52.525   0.332  16.918  0.00  0.00    +0.000 N 
ATOM     30  C   UNL     1      51.803   1.406  17.386  0.00  0.00    +0.000 A 
ATOM     31  O   UNL     1      50.579   1.419  17.321  0.00  0.00    +0.000 OA
ATOM     32  C   UNL     1      52.607   2.483  17.935  0.00  0.00    +0.000 A 
ATOM     33  H   UNL     1      51.988  -0.428  16.527  0.00  0.00    +0.000 HD
ENDBRANCH  20  23
ENDBRANCH   2  19
TORSDOF 7
ENDMDL
