MODEL 1
REMARK VINA RESULT:    -9.052      0.000      0.000
REMARK INTER + INTRA:         -11.644
REMARK INTER:                 -11.698
REMARK INTRA:                   0.054
REMARK UNBOUND:                 0.054
REMARK  Name = 
REMARK  5 active torsions:
REMARK  status: ('A' for Active; 'I' for Inactive)
REMARK    1  A    between atoms: C_2  and  C_4
REMARK    2  A    between atoms: C_7  and  C_8
REMARK    3  A    between atoms: C_12  and  C_13
REMARK    4  A    between atoms: C_13  and  N_14
REMARK    5  A    between atoms: C_18  and  C_19
REMARK                            x       y       z     vdW  Elec       q    Type
REMARK                         _______ _______ _______ _____ _____    ______ ____
ROOT
ATOM      1  C   UNL     1      47.283   6.038  13.110  0.00  0.00    +0.000 A 
ATOM      2  C   UNL     1      47.113   5.182  14.197  0.00  0.00    +0.000 A 
ATOM      3  N   UNL     1      46.065   4.337  14.327  0.00  0.00    +0.000 NA
ATOM      4  C   UNL     1      45.166   4.395  13.319  0.00  0.00    +0.000 A 
ATOM      5  C   UNL     1      45.260   5.271  12.235  0.00  0.00    +0.000 A 
ATOM      6  N   UNL     1      46.338   6.101  12.132  0.00  0.00    +0.000 NA
ENDROOT
BRANCH   1  10
ATOM      7  C   UNL     1      50.812   8.451  12.556  0.00  0.00    +0.000 A 
ATOM      8  C   UNL     1      50.454   8.016  13.833  0.00  0.00    +0.000 A 
ATOM      9  C   UNL     1      49.306   7.237  14.009  0.00  0.00    +0.000 A 
ATOM     10  C   UNL     1      48.479   6.884  12.925  0.00  0.00    +0.000 A 
ATOM     11  C   UNL     1      48.852   7.352  11.649  0.00  0.00    +0.000 A 
ATOM     12  C   UNL     1      49.999   8.134  11.466  0.00  0.00    +0.000 A 
BRANCH   7  14
ATOM     13  N   UNL     1      52.747   8.995  11.187  0.00  0.00    +0.000 N 
ATOM     14  C   UNL     1      52.039   9.256  12.329  0.00  0.00    +0.000 C 
ATOM     15  O   UNL     1      52.383  10.141  13.101  0.00  0.00    +0.000 OA
ATOM     16  H   UNL     1      53.509   9.629  10.979  0.00  0.00    +0.000 HD
ATOM     17  H   UNL     1      52.348   8.480  10.416  0.00  0.00    +0.000 HD
ENDBRANCH   7  14
ENDBRANCH   1  10
BRANCH   5  18
ATOM     18  C   UNL     1      44.152   5.335  11.180  0.00  0.00    +0.000 C 
ATOM     19  C   UNL     1      42.818   5.929  11.593  0.00  0.00    +0.000 C 
ATOM     20  C   UNL     1      42.926   4.451  11.418  0.00  0.00    +0.000 C 
BRANCH  18  21
ATOM     21  N   UNL     1      44.615   5.394   9.786  0.00  0.00    +0.000 N 
ATOM     22  C   UNL     1      45.272   4.382   9.087  0.00  0.00    +0.000 A 
ATOM     23  C   UNL     1      45.207   3.032   9.401  0.00  0.00    +0.000 A 
ATOM     24  C   UNL     1      45.875   2.106   8.596  0.00  0.00    +0.000 A 
ATOM     25  C   UNL     1      46.584   2.578   7.507  0.00  0.00    +0.000 A 
ATOM     26  N   UNL     1      46.644   3.894   7.209  0.00  0.00    +0.000 NA
ATOM     27  N   UNL     1      45.978   4.790   8.006  0.00  0.00    +0.000 NA
ATOM     28  H   UNL     1      44.901   6.287   9.396  0.00  0.00    +0.000 HD
BRANCH  25  29
ATOM     29  C   UNL     1      47.325   1.660   6.597  0.00  0.00    +0.000 C 
ATOM     30  N   UNL     1      48.297   2.241   5.824  0.00  0.00    +0.000 N 
ATOM     31  O   UNL     1      47.088   0.461   6.539  0.00  0.00    +0.000 OA
ATOM     32  H   UNL     1      48.486   3.236   5.881  0.00  0.00    +0.000 HD
ATOM     33  H   UNL     1      48.838   1.662   5.191  0.00  0.00    +0.000 HD
ENDBRANCH  25  29
ENDBRANCH  18  21
ENDBRANCH   5  18
TORSDOF 5
ENDMDL
MODEL 2
REMARK VINA RESULT:    -8.934      3.080      7.415
REMARK INTER + INTRA:         -11.491
REMARK INTER:                 -11.331
REMARK INTRA:                  -0.160
REMARK UNBOUND:                 0.054
REMARK  Name = 
REMARK  5 active torsions:
REMARK  status: ('A' for Active; 'I' for Inactive)
REMARK    1  A    between atoms: C_2  and  C_4
REMARK    2  A    between atoms: C_7  and  C_8
REMARK    3  A    between atoms: C_12  and  C_13
REMARK    4  A    between atoms: C_13  and  N_14
REMARK    5  A    between atoms: C_18  and  C_19
REMARK                            x       y       z     vdW  Elec       q    Type
REMARK                         _______ _______ _______ _____ _____    ______ ____
ROOT
ATOM      1  C   UNL     1      44.719   4.973  10.291  0.00  0.00    +0.000 A 
ATOM      2  C   UNL     1      43.366   4.917  10.622  0.00  0.00    +0.000 A 
ATOM      3  N   UNL     1      42.761   5.801  11.448  0.00  0.00    +0.000 NA
ATOM      4  C   UNL     1      43.580   6.750  11.955  0.00  0.00    +0.000 A 
ATOM      5  C   UNL     1      44.951   6.820  11.698  0.00  0.00    +0.000 A 
ATOM      6  N   UNL     1      45.524   5.917  10.851  0.00  0.00    +0.000 NA
ENDROOT
BRANCH   1  10
ATOM      7  C   UNL     1      46.620   2.322   7.472  0.00  0.00    +0.000 A 
ATOM      8  C   UNL     1      46.692   3.705   7.293  0.00  0.00    +0.000 A 
ATOM      9  C   UNL     1      46.070   4.561   8.207  0.00  0.00    +0.000 A 
ATOM     10  C   UNL     1      45.350   4.066   9.312  0.00  0.00    +0.000 A 
ATOM     11  C   UNL     1      45.276   2.667   9.459  0.00  0.00    +0.000 A 
ATOM     12  C   UNL     1      45.895   1.804   8.547  0.00  0.00    +0.000 A 
BRANCH   7  14
ATOM     13  N   UNL     1      48.300   1.898   5.767  0.00  0.00    +0.000 N 
ATOM     14  C   UNL     1      47.292   1.385   6.537  0.00  0.00    +0.000 C 
ATOM     15  O   UNL     1      46.990   0.201   6.482  0.00  0.00    +0.000 OA
ATOM     16  H   UNL     1      48.832   1.230   5.223  0.00  0.00    +0.000 HD
ATOM     17  H   UNL     1      48.744   2.779   5.983  0.00  0.00    +0.000 HD
ENDBRANCH   7  14
ENDBRANCH   1  10
BRANCH   5  18
ATOM     18  C   UNL     1      45.824   7.876  12.382  0.00  0.00    +0.000 C 
ATOM     19  C   UNL     1      45.143   9.131  12.897  0.00  0.00    +0.000 C 
ATOM     20  C   UNL     1      45.973   9.217  11.660  0.00  0.00    +0.000 C 
BRANCH  18  21
ATOM     21  N   UNL     1      47.054   7.365  13.005  0.00  0.00    +0.000 N 
ATOM     22  C   UNL     1      47.152   6.285  13.882  0.00  0.00    +0.000 A 
ATOM     23  C   UNL     1      46.233   5.250  13.970  0.00  0.00    +0.000 A 
ATOM     24  C   UNL     1      46.465   4.198  14.859  0.00  0.00    +0.000 A 
ATOM     25  C   UNL     1      47.614   4.232  15.626  0.00  0.00    +0.000 A 
ATOM     26  N   UNL     1      48.505   5.244  15.536  0.00  0.00    +0.000 NA
ATOM     27  N   UNL     1      48.265   6.266  14.654  0.00  0.00    +0.000 NA
ATOM     28  H   UNL     1      47.811   8.009  13.208  0.00  0.00    +0.000 HD
BRANCH  25  29
ATOM     29  C   UNL     1      47.940   3.152  16.599  0.00  0.00    +0.000 C 
ATOM     30  N   UNL     1      46.980   2.887  17.543  0.00  0.00    +0.000 N 
ATOM     31  O   UNL     1      48.995   2.532  16.563  0.00  0.00    +0.000 OA
ATOM     32  H   UNL     1      46.110   3.406  17.563  0.00  0.00    +0.000 HD
ATOM     33  H   UNL     1      47.146   2.156  18.226  0.00  0.00    +0.000 HD
ENDBRANCH  25  29
ENDBRANCH  18  21
ENDBRANCH   5  18
TORSDOF 5
ENDMDL
MODEL 3
REMARK VINA RESULT:    -7.958      5.356      9.009
REMARK INTER + INTRA:         -10.230
REMARK INTER:                  -9.734
REMARK INTRA:                  -0.496
REMARK UNBOUND:                 0.054
REMARK  Name = 
REMARK  5 active torsions:
REMARK  status: ('A' for Active; 'I' for Inactive)
REMARK    1  A    between atoms: C_2  and  C_4
REMARK    2  A    between atoms: C_7  and  C_8
REMARK    3  A    between atoms: C_12  and  C_13
REMARK    4  A    between atoms: C_13  and  N_14
REMARK    5  A    between atoms: C_18  and  C_19
REMARK                            x       y       z     vdW  Elec       q    Type
REMARK                         _______ _______ _______ _____ _____    ______ ____
ROOT
ATOM      1  C   UNL     1      47.817   6.020  14.241  0.00  0.00    +0.000 A 
ATOM      2  C   UNL     1      48.509   7.211  14.029  0.00  0.00    +0.000 A 
ATOM      3  N   UNL     1      49.437   7.698  14.882  0.00  0.00    +0.000 NA
ATOM      4  C   UNL     1      49.639   6.945  15.987  0.00  0.00    +0.000 A 
ATOM      5  C   UNL     1      48.936   5.773  16.273  0.00  0.00    +0.000 A 
ATOM      6  N   UNL     1      48.013   5.306  15.383  0.00  0.00    +0.000 NA
ENDROOT
BRANCH   1  10
ATOM      7  C   UNL     1      45.022   4.369  11.404  0.00  0.00    +0.000 A 
ATOM      8  C   UNL     1      45.392   3.635  12.532  0.00  0.00    +0.000 A 
ATOM      9  C   UNL     1      46.302   4.172  13.447  0.00  0.00    +0.000 A 
ATOM     10  C   UNL     1      46.878   5.444  13.258  0.00  0.00    +0.000 A 
ATOM     11  C   UNL     1      46.502   6.156  12.102  0.00  0.00    +0.000 A 
ATOM     12  C   UNL     1      45.593   5.623  11.180  0.00  0.00    +0.000 A 
BRANCH   7  14
ATOM     13  N   UNL     1      44.038   4.409   9.180  0.00  0.00    +0.000 N 
ATOM     14  C   UNL     1      44.038   3.841  10.426  0.00  0.00    +0.000 C 
ATOM     15  O   UNL     1      43.287   2.914  10.700  0.00  0.00    +0.000 OA
ATOM     16  H   UNL     1      43.453   3.963   8.485  0.00  0.00    +0.000 HD
ATOM     17  H   UNL     1      44.810   4.968   8.848  0.00  0.00    +0.000 HD
ENDBRANCH   7  14
ENDBRANCH   1  10
BRANCH   5  18
ATOM     18  C   UNL     1      49.163   5.024  17.590  0.00  0.00    +0.000 C 
ATOM     19  C   UNL     1      48.060   4.100  18.076  0.00  0.00    +0.000 C 
ATOM     20  C   UNL     1      48.258   5.410  18.763  0.00  0.00    +0.000 C 
BRANCH  18  21
ATOM     21  N   UNL     1      50.569   4.785  17.942  0.00  0.00    +0.000 N 
ATOM     22  C   UNL     1      51.229   3.556  17.933  0.00  0.00    +0.000 A 
ATOM     23  C   UNL     1      50.840   2.454  17.187  0.00  0.00    +0.000 A 
ATOM     24  C   UNL     1      51.609   1.289  17.227  0.00  0.00    +0.000 A 
ATOM     25  C   UNL     1      52.741   1.281  18.021  0.00  0.00    +0.000 A 
ATOM     26  N   UNL     1      53.113   2.358  18.747  0.00  0.00    +0.000 NA
ATOM     27  N   UNL     1      52.350   3.495  18.692  0.00  0.00    +0.000 NA
ATOM     28  H   UNL     1      51.015   5.380  18.633  0.00  0.00    +0.000 HD
BRANCH  25  29
ATOM     29  C   UNL     1      53.619   0.082  18.123  0.00  0.00    +0.000 C 
ATOM     30  N   UNL     1      53.869  -0.578  16.947  0.00  0.00    +0.000 N 
ATOM     31  O   UNL     1      54.094  -0.296  19.186  0.00  0.00    +0.000 OA
ATOM     32  H   UNL     1      53.472  -0.256  16.071  0.00  0.00    +0.000 HD
ATOM     33  H   UNL     1      54.467  -1.397  16.956  0.00  0.00    +0.000 HD
ENDBRANCH  25  29
ENDBRANCH  18  21
ENDBRANCH   5  18
TORSDOF 5
ENDMDL
MODEL 4
REMARK VINA RESULT:    -7.826      2.449      3.294
REMARK INTER + INTRA:         -10.059
REMARK INTER:                  -9.397
REMARK INTRA:                  -0.662
REMARK UNBOUND:                 0.054
REMARK  Name = 
REMARK  5 active torsions:
REMARK  status: ('A' for Active; 'I' for Inactive)
REMARK    1  A    between atoms: C_2  and  C_4
REMARK    2  A    between atoms: C_7  and  C_8
REMARK    3  A    between atoms: C_12  and  C_13
REMARK    4  A    between atoms: C_13  and  N_14
REMARK    5  A    between atoms: C_18  and  C_19
REMARK                            x       y       z     vdW  Elec       q    Type
REMARK                         _______ _______ _______ _____ _____    ______ ____
ROOT
ATOM      1  C   UNL     1      46.973   7.086  13.288  0.00  0.00    +0.000 A 
ATOM      2  C   UNL     1      46.859   8.320  12.649  0.00  0.00    +0.000 A 
ATOM      3  N   UNL     1      45.850   8.636  11.807  0.00  0.00    +0.000 NA
ATOM      4  C   UNL     1      44.950   7.646  11.608  0.00  0.00    +0.000 A 
ATOM      5  C   UNL     1      45.044   6.376  12.181  0.00  0.00    +0.000 A 
ATOM      6  N   UNL     1      46.072   6.097  13.034  0.00  0.00    +0.000 NA
ENDROOT
BRANCH   1  10
ATOM      7  C   UNL     1      50.006   6.247  16.234  0.00  0.00    +0.000 A 
ATOM      8  C   UNL     1      50.253   7.170  15.216  0.00  0.00    +0.000 A 
ATOM      9  C   UNL     1      49.269   7.436  14.259  0.00  0.00    +0.000 A 
ATOM     10  C   UNL     1      48.021   6.783  14.282  0.00  0.00    +0.000 A 
ATOM     11  C   UNL     1      47.803   5.842  15.308  0.00  0.00    +0.000 A 
ATOM     12  C   UNL     1      48.786   5.569  16.268  0.00  0.00    +0.000 A 
BRANCH   7  14
ATOM     13  N   UNL     1      50.682   6.278  18.569  0.00  0.00    +0.000 N 
ATOM     14  C   UNL     1      51.019   5.961  17.281  0.00  0.00    +0.000 C 
ATOM     15  O   UNL     1      52.088   5.430  17.017  0.00  0.00    +0.000 OA
ATOM     16  H   UNL     1      51.324   5.969  19.289  0.00  0.00    +0.000 HD
ATOM     17  H   UNL     1      49.727   6.455  18.845  0.00  0.00    +0.000 HD
ENDBRANCH   7  14
ENDBRANCH   1  10
BRANCH   5  18
ATOM     18  C   UNL     1      44.030   5.282  11.835  0.00  0.00    +0.000 C 
ATOM     19  C   UNL     1      42.644   5.718  11.396  0.00  0.00    +0.000 C 
ATOM     20  C   UNL     1      42.821   5.148  12.765  0.00  0.00    +0.000 C 
BRANCH  18  21
ATOM     21  N   UNL     1      44.609   4.009  11.382  0.00  0.00    +0.000 N 
ATOM     22  C   UNL     1      45.140   3.743  10.120  0.00  0.00    +0.000 A 
ATOM     23  C   UNL     1      45.624   4.704   9.246  0.00  0.00    +0.000 A 
ATOM     24  C   UNL     1      46.174   4.309   8.024  0.00  0.00    +0.000 A 
ATOM     25  C   UNL     1      46.213   2.958   7.732  0.00  0.00    +0.000 A 
ATOM     26  N   UNL     1      45.739   2.027   8.588  0.00  0.00    +0.000 NA
ATOM     27  N   UNL     1      45.207   2.432   9.786  0.00  0.00    +0.000 NA
ATOM     28  H   UNL     1      44.259   3.139  11.770  0.00  0.00    +0.000 HD
BRANCH  25  29
ATOM     29  C   UNL     1      46.782   2.448   6.453  0.00  0.00    +0.000 C 
ATOM     30  N   UNL     1      46.974   3.384   5.469  0.00  0.00    +0.000 N 
ATOM     31  O   UNL     1      47.067   1.269   6.284  0.00  0.00    +0.000 OA
ATOM     32  H   UNL     1      46.736   4.358   5.620  0.00  0.00    +0.000 HD
ATOM     33  H   UNL     1      47.366   3.094   4.580  0.00  0.00    +0.000 HD
ENDBRANCH  25  29
ENDBRANCH  18  21
ENDBRANCH   5  18
TORSDOF 5
ENDMDL
MODEL 5
REMARK VINA RESULT:    -7.775      4.754      6.928
REMARK INTER + INTRA:          -9.994
REMARK INTER:                  -9.361
REMARK INTRA:                  -0.633
REMARK UNBOUND:                 0.054
REMARK  Name = 
REMARK  5 active torsions:
REMARK  status: ('A' for Active; 'I' for Inactive)
REMARK    1  A    between atoms: C_2  and  C_4
REMARK    2  A    between atoms: C_7  and  C_8
REMARK    3  A    between atoms: C_12  and  C_13
REMARK    4  A    between atoms: C_13  and  N_14
REMARK    5  A    between atoms: C_18  and  C_19
REMARK                            x       y       z     vdW  Elec       q    Type
REMARK                         _______ _______ _______ _____ _____    ______ ____
ROOT
ATOM      1  C   UNL     1      49.990   5.582  17.245  0.00  0.00    +0.000 A 
ATOM      2  C   UNL     1      49.611   6.401  18.307  0.00  0.00    +0.000 A 
ATOM      3  N   UNL     1      48.877   7.527  18.159  0.00  0.00    +0.000 NA
ATOM      4  C   UNL     1      48.546   7.820  16.881  0.00  0.00    +0.000 A 
ATOM      5  C   UNL     1      48.943   7.063  15.776  0.00  0.00    +0.000 A 
ATOM      6  N   UNL     1      49.675   5.927  15.966  0.00  0.00    +0.000 NA
ENDROOT
BRANCH   1  10
ATOM      7  C   UNL     1      52.098   1.849  17.701  0.00  0.00    +0.000 A 
ATOM      8  C   UNL     1      50.740   1.852  17.377  0.00  0.00    +0.000 A 
ATOM      9  C   UNL     1      50.058   3.065  17.235  0.00  0.00    +0.000 A 
ATOM     10  C   UNL     1      50.704   4.303  17.424  0.00  0.00    +0.000 A 
ATOM     11  C   UNL     1      52.070   4.271  17.768  0.00  0.00    +0.000 A 
ATOM     12  C   UNL     1      52.758   3.061  17.915  0.00  0.00    +0.000 A 
BRANCH   7  14
ATOM     13  N   UNL     1      52.240  -0.444  18.497  0.00  0.00    +0.000 N 
ATOM     14  C   UNL     1      52.858   0.581  17.833  0.00  0.00    +0.000 C 
ATOM     15  O   UNL     1      53.968   0.438  17.338  0.00  0.00    +0.000 OA
ATOM     16  H   UNL     1      52.712  -1.339  18.477  0.00  0.00    +0.000 HD
ATOM     17  H   UNL     1      51.245  -0.447  18.669  0.00  0.00    +0.000 HD
ENDBRANCH   7  14
ENDBRANCH   1  10
BRANCH   5  18
ATOM     18  C   UNL     1      48.599   7.512  14.353  0.00  0.00    +0.000 C 
ATOM     19  C   UNL     1      49.665   7.350  13.284  0.00  0.00    +0.000 C 
ATOM     20  C   UNL     1      49.372   8.716  13.808  0.00  0.00    +0.000 C 
BRANCH  18  21
ATOM     21  N   UNL     1      47.170   7.487  14.015  0.00  0.00    +0.000 N 
ATOM     22  C   UNL     1      46.466   6.415  13.465  0.00  0.00    +0.000 A 
ATOM     23  C   UNL     1      46.852   5.085  13.556  0.00  0.00    +0.000 A 
ATOM     24  C   UNL     1      46.039   4.094  13.001  0.00  0.00    +0.000 A 
ATOM     25  C   UNL     1      44.870   4.484  12.373  0.00  0.00    +0.000 A 
ATOM     26  N   UNL     1      44.502   5.780  12.287  0.00  0.00    +0.000 NA
ATOM     27  N   UNL     1      45.309   6.740  12.842  0.00  0.00    +0.000 NA
ATOM     28  H   UNL     1      46.712   8.347  13.730  0.00  0.00    +0.000 HD
BRANCH  25  29
ATOM     29  C   UNL     1      43.944   3.493  11.755  0.00  0.00    +0.000 C 
ATOM     30  N   UNL     1      43.709   2.356  12.486  0.00  0.00    +0.000 N 
ATOM     31  O   UNL     1      43.421   3.676  10.664  0.00  0.00    +0.000 OA
ATOM     32  H   UNL     1      44.148   2.215  13.389  0.00  0.00    +0.000 HD
ATOM     33  H   UNL     1      43.081   1.651  12.116  0.00  0.00    +0.000 HD
ENDBRANCH  25  29
ENDBRANCH  18  21
ENDBRANCH   5  18
TORSDOF 5
ENDMDL
MODEL 6
REMARK VINA RESULT:    -7.180      1.978      2.474
REMARK INTER + INTRA:          -9.225
REMARK INTER:                  -8.670
REMARK INTRA:                  -0.554
REMARK UNBOUND:                 0.054
REMARK  Name = 
REMARK  5 active torsions:
REMARK  status: ('A' for Active; 'I' for Inactive)
REMARK    1  A    between atoms: C_2  and  C_4
REMARK    2  A    between atoms: C_7  and  C_8
REMARK    3  A    between atoms: C_12  and  C_13
REMARK    4  A    between atoms: C_13  and  N_14
REMARK    5  A    between atoms: C_18  and  C_19
REMARK                            x       y       z     vdW  Elec       q    Type
REMARK                         _______ _______ _______ _____ _____    ______ ____
ROOT
ATOM      1  C   UNL     1      46.476   7.902  12.282  0.00  0.00    +0.000 A 
ATOM      2  C   UNL     1      45.857   9.013  11.711  0.00  0.00    +0.000 A 
ATOM      3  N   UNL     1      44.591   9.003  11.237  0.00  0.00    +0.000 NA
ATOM      4  C   UNL     1      43.960   7.811  11.338  0.00  0.00    +0.000 A 
ATOM      5  C   UNL     1      44.551   6.654  11.852  0.00  0.00    +0.000 A 
ATOM      6  N   UNL     1      45.827   6.706  12.331  0.00  0.00    +0.000 NA
ENDROOT
BRANCH   1  10
ATOM      7  C   UNL     1      50.405   7.961  14.053  0.00  0.00    +0.000 A 
ATOM      8  C   UNL     1      49.271   8.064  14.860  0.00  0.00    +0.000 A 
ATOM      9  C   UNL     1      47.998   8.049  14.281  0.00  0.00    +0.000 A 
ATOM     10  C   UNL     1      47.821   7.946  12.888  0.00  0.00    +0.000 A 
ATOM     11  C   UNL     1      48.983   7.862  12.094  0.00  0.00    +0.000 A 
ATOM     12  C   UNL     1      50.260   7.879  12.667  0.00  0.00    +0.000 A 
BRANCH   7  14
ATOM     13  N   UNL     1      52.030   6.986  15.577  0.00  0.00    +0.000 N 
ATOM     14  C   UNL     1      51.771   7.946  14.637  0.00  0.00    +0.000 C 
ATOM     15  O   UNL     1      52.639   8.726  14.269  0.00  0.00    +0.000 OA
ATOM     16  H   UNL     1      52.993   6.904  15.879  0.00  0.00    +0.000 HD
ATOM     17  H   UNL     1      51.437   6.178  15.694  0.00  0.00    +0.000 HD
ENDBRANCH   7  14
ENDBRANCH   1  10
BRANCH   5  18
ATOM     18  C   UNL     1      43.796   5.322  11.850  0.00  0.00    +0.000 C 
ATOM     19  C   UNL     1      42.296   5.360  11.623  0.00  0.00    +0.000 C 
ATOM     20  C   UNL     1      42.810   5.090  12.998  0.00  0.00    +0.000 C 
BRANCH  18  21
ATOM     21  N   UNL     1      44.595   4.148  11.471  0.00  0.00    +0.000 N 
ATOM     22  C   UNL     1      45.119   3.874  10.208  0.00  0.00    +0.000 A 
ATOM     23  C   UNL     1      45.371   4.827   9.232  0.00  0.00    +0.000 A 
ATOM     24  C   UNL     1      45.940   4.435   8.018  0.00  0.00    +0.000 A 
ATOM     25  C   UNL     1      46.232   3.096   7.836  0.00  0.00    +0.000 A 
ATOM     26  N   UNL     1      45.982   2.173   8.791  0.00  0.00    +0.000 NA
ATOM     27  N   UNL     1      45.428   2.576   9.978  0.00  0.00    +0.000 NA
ATOM     28  H   UNL     1      44.437   3.266  11.948  0.00  0.00    +0.000 HD
BRANCH  25  29
ATOM     29  C   UNL     1      46.840   2.591   6.573  0.00  0.00    +0.000 C 
ATOM     30  N   UNL     1      47.848   1.673   6.720  0.00  0.00    +0.000 N 
ATOM     31  O   UNL     1      46.467   2.965   5.469  0.00  0.00    +0.000 OA
ATOM     32  H   UNL     1      48.149   1.369   7.640  0.00  0.00    +0.000 HD
ATOM     33  H   UNL     1      48.293   1.289   5.894  0.00  0.00    +0.000 HD
ENDBRANCH  25  29
ENDBRANCH  18  21
ENDBRANCH   5  18
TORSDOF 5
ENDMDL
MODEL 7
REMARK VINA RESULT:    -6.985      4.234      8.645
REMARK INTER + INTRA:          -8.973
REMARK INTER:                  -8.925
REMARK INTRA:                  -0.048
REMARK UNBOUND:                 0.054
REMARK  Name = 
REMARK  5 active torsions:
REMARK  status: ('A' for Active; 'I' for Inactive)
REMARK    1  A    between atoms: C_2  and  C_4
REMARK    2  A    between atoms: C_7  and  C_8
REMARK    3  A    between atoms: C_12  and  C_13
REMARK    4  A    between atoms: C_13  and  N_14
REMARK    5  A    between atoms: C_18  and  C_19
REMARK                            x       y       z     vdW  Elec       q    Type
REMARK                         _______ _______ _______ _____ _____    ______ ____
ROOT
ATOM      1  C   UNL     1      48.129   6.830  13.357  0.00  0.00    +0.000 A 
ATOM      2  C   UNL     1      49.254   7.395  12.759  0.00  0.00    +0.000 A 
ATOM      3  N   UNL     1      50.275   7.942  13.455  0.00  0.00    +0.000 NA
ATOM      4  C   UNL     1      50.119   7.920  14.797  0.00  0.00    +0.000 A 
ATOM      5  C   UNL     1      48.990   7.415  15.446  0.00  0.00    +0.000 A 
ATOM      6  N   UNL     1      47.983   6.861  14.711  0.00  0.00    +0.000 NA
ENDROOT
BRANCH   1  10
ATOM      7  C   UNL     1      45.069   4.787  11.111  0.00  0.00    +0.000 A 
ATOM      8  C   UNL     1      45.686   5.923  10.583  0.00  0.00    +0.000 A 
ATOM      9  C   UNL     1      46.674   6.585  11.317  0.00  0.00    +0.000 A 
ATOM     10  C   UNL     1      47.065   6.145  12.597  0.00  0.00    +0.000 A 
ATOM     11  C   UNL     1      46.413   5.008  13.114  0.00  0.00    +0.000 A 
ATOM     12  C   UNL     1      45.421   4.341  12.386  0.00  0.00    +0.000 A 
BRANCH   7  14
ATOM     13  N   UNL     1      43.914   4.344   9.018  0.00  0.00    +0.000 N 
ATOM     14  C   UNL     1      44.035   4.043  10.347  0.00  0.00    +0.000 C 
ATOM     15  O   UNL     1      43.349   3.173  10.867  0.00  0.00    +0.000 OA
ATOM     16  H   UNL     1      43.295   3.749   8.479  0.00  0.00    +0.000 HD
ATOM     17  H   UNL     1      44.632   4.843   8.514  0.00  0.00    +0.000 HD
ENDBRANCH   7  14
ENDBRANCH   1  10
BRANCH   5  18
ATOM     18  C   UNL     1      48.853   7.508  16.969  0.00  0.00    +0.000 C 
ATOM     19  C   UNL     1      48.220   8.761  17.545  0.00  0.00    +0.000 C 
ATOM     20  C   UNL     1      49.696   8.576  17.670  0.00  0.00    +0.000 C 
BRANCH  18  21
ATOM     21  N   UNL     1      48.772   6.220  17.671  0.00  0.00    +0.000 N 
ATOM     22  C   UNL     1      49.728   5.204  17.654  0.00  0.00    +0.000 A 
ATOM     23  C   UNL     1      51.072   5.388  17.366  0.00  0.00    +0.000 A 
ATOM     24  C   UNL     1      51.943   4.297  17.424  0.00  0.00    +0.000 A 
ATOM     25  C   UNL     1      51.423   3.063  17.769  0.00  0.00    +0.000 A 
ATOM     26  N   UNL     1      50.112   2.892  18.047  0.00  0.00    +0.000 NA
ATOM     27  N   UNL     1      49.272   3.974  17.990  0.00  0.00    +0.000 NA
ATOM     28  H   UNL     1      47.862   5.797  17.829  0.00  0.00    +0.000 HD
BRANCH  25  29
ATOM     29  C   UNL     1      52.280   1.847  17.856  0.00  0.00    +0.000 C 
ATOM     30  N   UNL     1      51.720   0.686  17.388  0.00  0.00    +0.000 N 
ATOM     31  O   UNL     1      53.415   1.876  18.312  0.00  0.00    +0.000 OA
ATOM     32  H   UNL     1      50.778   0.674  17.011  0.00  0.00    +0.000 HD
ATOM     33  H   UNL     1      52.261  -0.171  17.415  0.00  0.00    +0.000 HD
ENDBRANCH  25  29
ENDBRANCH  18  21
ENDBRANCH   5  18
TORSDOF 5
ENDMDL
MODEL 8
REMARK VINA RESULT:    -6.437      3.899      7.012
REMARK INTER + INTRA:          -8.265
REMARK INTER:                  -8.392
REMARK INTRA:                   0.127
REMARK UNBOUND:                 0.054
REMARK  Name = 
REMARK  5 active torsions:
REMARK  status: ('A' for Active; 'I' for Inactive)
REMARK    1  A    between atoms: C_2  and  C_4
REMARK    2  A    between atoms: C_7  and  C_8
REMARK    3  A    between atoms: C_12  and  C_13
REMARK    4  A    between atoms: C_13  and  N_14
REMARK    5  A    between atoms: C_18  and  C_19
REMARK                            x       y       z     vdW  Elec       q    Type
REMARK                         _______ _______ _______ _____ _____    ______ ____
ROOT
ATOM      1  C   UNL     1      52.582   8.157  10.645  0.00  0.00    +0.000 A 
ATOM      2  C   UNL     1      53.467   9.174  10.996  0.00  0.00    +0.000 A 
ATOM      3  N   UNL     1      53.259  10.026  12.025  0.00  0.00    +0.000 NA
ATOM      4  C   UNL     1      52.099   9.830  12.692  0.00  0.00    +0.000 A 
ATOM      5  C   UNL     1      51.153   8.861  12.351  0.00  0.00    +0.000 A 
ATOM      6  N   UNL     1      51.404   8.013  11.312  0.00  0.00    +0.000 NA
ENDROOT
BRANCH   1  10
ATOM      7  C   UNL     1      53.346   5.235   7.569  0.00  0.00    +0.000 A 
ATOM      8  C   UNL     1      53.984   5.133   8.807  0.00  0.00    +0.000 A 
ATOM      9  C   UNL     1      53.737   6.085   9.800  0.00  0.00    +0.000 A 
ATOM     10  C   UNL     1      52.863   7.169   9.585  0.00  0.00    +0.000 A 
ATOM     11  C   UNL     1      52.246   7.259   8.321  0.00  0.00    +0.000 A 
ATOM     12  C   UNL     1      52.491   6.310   7.321  0.00  0.00    +0.000 A 
BRANCH   7  14
ATOM     13  N   UNL     1      53.187   2.940   6.780  0.00  0.00    +0.000 N 
ATOM     14  C   UNL     1      53.564   4.226   6.501  0.00  0.00    +0.000 C 
ATOM     15  O   UNL     1      54.021   4.531   5.408  0.00  0.00    +0.000 OA
ATOM     16  H   UNL     1      53.224   2.286   6.008  0.00  0.00    +0.000 HD
ATOM     17  H   UNL     1      52.569   2.718   7.547  0.00  0.00    +0.000 HD
ENDBRANCH   7  14
ENDBRANCH   1  10
BRANCH   5  18
ATOM     18  C   UNL     1      49.824   8.763  13.105  0.00  0.00    +0.000 C 
ATOM     19  C   UNL     1      48.735   9.759  12.748  0.00  0.00    +0.000 C 
ATOM     20  C   UNL     1      49.474   9.927  14.034  0.00  0.00    +0.000 C 
BRANCH  18  21
ATOM     21  N   UNL     1      49.497   7.429  13.629  0.00  0.00    +0.000 N 
ATOM     22  C   UNL     1      48.353   6.683  13.343  0.00  0.00    +0.000 A 
ATOM     23  C   UNL     1      47.567   6.842  12.211  0.00  0.00    +0.000 A 
ATOM     24  C   UNL     1      46.468   6.002  12.014  0.00  0.00    +0.000 A 
ATOM     25  C   UNL     1      46.204   5.037  12.968  0.00  0.00    +0.000 A 
ATOM     26  N   UNL     1      46.973   4.890  14.069  0.00  0.00    +0.000 NA
ATOM     27  N   UNL     1      48.051   5.718  14.244  0.00  0.00    +0.000 NA
ATOM     28  H   UNL     1      49.826   7.165  14.551  0.00  0.00    +0.000 HD
BRANCH  25  29
ATOM     29  C   UNL     1      45.053   4.099  12.837  0.00  0.00    +0.000 C 
ATOM     30  N   UNL     1      45.369   2.807  12.506  0.00  0.00    +0.000 N 
ATOM     31  O   UNL     1      43.895   4.453  13.015  0.00  0.00    +0.000 OA
ATOM     32  H   UNL     1      46.332   2.524  12.362  0.00  0.00    +0.000 HD
ATOM     33  H   UNL     1      44.625   2.124  12.412  0.00  0.00    +0.000 HD
ENDBRANCH  25  29
ENDBRANCH  18  21
ENDBRANCH   5  18
TORSDOF 5
ENDMDL
MODEL 9
REMARK VINA RESULT:    -6.429      2.928      7.368
REMARK INTER + INTRA:          -8.254
REMARK INTER:                  -7.989
REMARK INTRA:                  -0.265
REMARK UNBOUND:                 0.054
REMARK  Name = 
REMARK  5 active torsions:
REMARK  status: ('A' for Active; 'I' for Inactive)
REMARK    1  A    between atoms: C_2  and  C_4
REMARK    2  A    between atoms: C_7  and  C_8
REMARK    3  A    between atoms: C_12  and  C_13
REMARK    4  A    between atoms: C_13  and  N_14
REMARK    5  A    between atoms: C_18  and  C_19
REMARK                            x       y       z     vdW  Elec       q    Type
REMARK                         _______ _______ _______ _____ _____    ______ ____
ROOT
ATOM      1  C   UNL     1      47.926   6.433  13.850  0.00  0.00    +0.000 A 
ATOM      2  C   UNL     1      48.317   5.862  15.060  0.00  0.00    +0.000 A 
ATOM      3  N   UNL     1      49.165   6.457  15.929  0.00  0.00    +0.000 NA
ATOM      4  C   UNL     1      49.632   7.660  15.526  0.00  0.00    +0.000 A 
ATOM      5  C   UNL     1      49.314   8.254  14.302  0.00  0.00    +0.000 A 
ATOM      6  N   UNL     1      48.447   7.627  13.456  0.00  0.00    +0.000 NA
ENDROOT
BRANCH   1  10
ATOM      7  C   UNL     1      45.048   4.612  11.207  0.00  0.00    +0.000 A 
ATOM      8  C   UNL     1      45.709   5.781  10.825  0.00  0.00    +0.000 A 
ATOM      9  C   UNL     1      46.639   6.371  11.688  0.00  0.00    +0.000 A 
ATOM     10  C   UNL     1      46.923   5.824  12.954  0.00  0.00    +0.000 A 
ATOM     11  C   UNL     1      46.228   4.655  13.323  0.00  0.00    +0.000 A 
ATOM     12  C   UNL     1      45.294   4.061  12.466  0.00  0.00    +0.000 A 
BRANCH   7  14
ATOM     13  N   UNL     1      44.073   4.343   8.996  0.00  0.00    +0.000 N 
ATOM     14  C   UNL     1      44.075   3.944  10.306  0.00  0.00    +0.000 C 
ATOM     15  O   UNL     1      43.338   3.051  10.699  0.00  0.00    +0.000 OA
ATOM     16  H   UNL     1      43.496   3.800   8.365  0.00  0.00    +0.000 HD
ATOM     17  H   UNL     1      44.838   4.864   8.594  0.00  0.00    +0.000 HD
ENDBRANCH   7  14
ENDBRANCH   1  10
BRANCH   5  18
ATOM     18  C   UNL     1      49.956   9.580  13.883  0.00  0.00    +0.000 C 
ATOM     19  C   UNL     1      49.447  10.849  14.542  0.00  0.00    +0.000 C 
ATOM     20  C   UNL     1      49.062  10.566  13.128  0.00  0.00    +0.000 C 
BRANCH  18  21
ATOM     21  N   UNL     1      51.333   9.480  13.381  0.00  0.00    +0.000 N 
ATOM     22  C   UNL     1      51.781   8.662  12.343  0.00  0.00    +0.000 A 
ATOM     23  C   UNL     1      50.978   8.158  11.331  0.00  0.00    +0.000 A 
ATOM     24  C   UNL     1      51.552   7.384  10.319  0.00  0.00    +0.000 A 
ATOM     25  C   UNL     1      52.913   7.148  10.370  0.00  0.00    +0.000 A 
ATOM     26  N   UNL     1      53.688   7.641  11.360  0.00  0.00    +0.000 NA
ATOM     27  N   UNL     1      53.110   8.403  12.342  0.00  0.00    +0.000 NA
ATOM     28  H   UNL     1      52.106   9.633  14.021  0.00  0.00    +0.000 HD
BRANCH  25  29
ATOM     29  C   UNL     1      53.606   6.334   9.332  0.00  0.00    +0.000 C 
ATOM     30  N   UNL     1      53.984   5.072   9.715  0.00  0.00    +0.000 N 
ATOM     31  O   UNL     1      53.827   6.757   8.205  0.00  0.00    +0.000 OA
ATOM     32  H   UNL     1      53.796   4.732  10.652  0.00  0.00    +0.000 HD
ATOM     33  H   UNL     1      54.453   4.472   9.046  0.00  0.00    +0.000 HD
ENDBRANCH  25  29
ENDBRANCH  18  21
ENDBRANCH   5  18
TORSDOF 5
ENDMDL
