MODEL 1
REMARK VINA RESULT:    -8.936      0.000      0.000
REMARK INTER + INTRA:         -12.327
REMARK INTER:                 -11.548
REMARK INTRA:                  -0.779
REMARK UNBOUND:                -0.779
REMARK  Name = 
REMARK  5 active torsions:
REMARK  status: ('A' for Active; 'I' for Inactive)
REMARK    1  A    between atoms: C_2  and  C_4
REMARK    2  A    between atoms: C_7  and  N_8
REMARK    3  A    between atoms: N_8  and  C_9
REMARK    4  A    between atoms: C_9  and  C_10
REMARK    5  A    between atoms: C_14  and  C_15
REMARK                            x       y       z     vdW  Elec       q    Type
REMARK                         _______ _______ _______ _____ _____    ______ ____
ROOT
ATOM      1  C   UNL     1      43.904   3.317  11.878  0.00  0.00    +0.000 C 
ENDROOT
BRANCH   1   2
ATOM      2  C   UNL     1      45.092   3.997  12.542  0.00  0.00    +0.000 A 
ATOM      3  N   UNL     1      45.962   3.232  13.236  0.00  0.00    +0.000 NA
ATOM      4  C   UNL     1      47.024   3.871  13.758  0.00  0.00    +0.000 A 
ATOM      5  C   UNL     1      47.260   5.215  13.592  0.00  0.00    +0.000 A 
ATOM      6  C   UNL     1      46.337   5.923  12.844  0.00  0.00    +0.000 A 
ATOM      7  N   UNL     1      45.248   5.321  12.318  0.00  0.00    +0.000 NA
BRANCH   6   8
ATOM      8  C   UNL     1      46.473   7.367  12.559  0.00  0.00    +0.000 A 
ATOM      9  C   UNL     1      47.737   7.946  12.318  0.00  0.00    +0.000 A 
ATOM     10  C   UNL     1      47.881   9.310  12.038  0.00  0.00    +0.000 A 
ATOM     11  C   UNL     1      46.758  10.131  12.000  0.00  0.00    +0.000 A 
ATOM     12  C   UNL     1      45.509   9.580  12.245  0.00  0.00    +0.000 A 
ATOM     13  F   UNL     1      44.424  10.365  12.218  0.00  0.00    +0.000 F 
ATOM     14  C   UNL     1      45.358   8.224  12.523  0.00  0.00    +0.000 A 
ENDBRANCH   6   8
ENDBRANCH   1   2
BRANCH   1  15
ATOM     15  N   UNL     1      43.688   3.761  10.499  0.00  0.00    +0.000 N 
ATOM     16  H   UNL     1      42.701   3.851  10.261  0.00  0.00    +0.000 HD
BRANCH  15  20
ATOM     17  C   UNL     1      46.453   2.607   7.533  0.00  0.00    +0.000 A 
ATOM     18  C   UNL     1      45.873   1.636   8.352  0.00  0.00    +0.000 A 
ATOM     19  C   UNL     1      44.926   2.004   9.314  0.00  0.00    +0.000 A 
ATOM     20  C   UNL     1      44.518   3.334   9.469  0.00  0.00    +0.000 A 
ATOM     21  C   UNL     1      45.108   4.296   8.637  0.00  0.00    +0.000 A 
ATOM     22  C   UNL     1      46.070   3.944   7.680  0.00  0.00    +0.000 A 
BRANCH  17  24
ATOM     23  N   UNL     1      47.589   3.015   5.417  0.00  0.00    +0.000 N 
ATOM     24  C   UNL     1      47.517   2.263   6.557  0.00  0.00    +0.000 C 
ATOM     25  O   UNL     1      48.312   1.355   6.763  0.00  0.00    +0.000 OA
ATOM     26  H   UNL     1      48.362   2.817   4.794  0.00  0.00    +0.000 HD
ATOM     27  H   UNL     1      47.114   3.900   5.315  0.00  0.00    +0.000 HD
ENDBRANCH  17  24
ENDBRANCH  15  20
ENDBRANCH   1  15
TORSDOF 5
ENDMDL
MODEL 2
REMARK VINA RESULT:    -8.814      1.611      2.144
REMARK INTER + INTRA:         -12.169
REMARK INTER:                 -11.459
REMARK INTRA:                  -0.710
REMARK UNBOUND:                -0.779
REMARK  Name = 
REMARK  5 active torsions:
REMARK  status: ('A' for Active; 'I' for Inactive)
REMARK    1  A    between atoms: C_2  and  C_4
REMARK    2  A    between atoms: C_7  and  N_8
REMARK    3  A    between atoms: N_8  and  C_9
REMARK    4  A    between atoms: C_9  and  C_10
REMARK    5  A    between atoms: C_14  and  C_15
REMARK                            x       y       z     vdW  Elec       q    Type
REMARK                         _______ _______ _______ _____ _____    ______ ____
ROOT
ATOM      1  C   UNL     1      43.507   4.634  11.333  0.00  0.00    +0.000 C 
ENDROOT
BRANCH   1   2
ATOM      2  C   UNL     1      44.775   4.905  12.128  0.00  0.00    +0.000 A 
ATOM      3  N   UNL     1      45.227   3.942  12.959  0.00  0.00    +0.000 NA
ATOM      4  C   UNL     1      46.381   4.206  13.598  0.00  0.00    +0.000 A 
ATOM      5  C   UNL     1      47.101   5.364  13.419  0.00  0.00    +0.000 A 
ATOM      6  C   UNL     1      46.586   6.288  12.528  0.00  0.00    +0.000 A 
ATOM      7  N   UNL     1      45.421   6.066  11.880  0.00  0.00    +0.000 NA
BRANCH   6   8
ATOM      8  C   UNL     1      47.262   7.564  12.214  0.00  0.00    +0.000 A 
ATOM      9  C   UNL     1      46.573   8.792  12.295  0.00  0.00    +0.000 A 
ATOM     10  C   UNL     1      47.202  10.010  12.008  0.00  0.00    +0.000 A 
ATOM     11  C   UNL     1      48.539  10.025  11.624  0.00  0.00    +0.000 A 
ATOM     12  C   UNL     1      49.228   8.825  11.528  0.00  0.00    +0.000 A 
ATOM     13  F   UNL     1      50.513   8.830  11.151  0.00  0.00    +0.000 F 
ATOM     14  C   UNL     1      48.610   7.610  11.813  0.00  0.00    +0.000 A 
ENDBRANCH   6   8
ENDBRANCH   1   2
BRANCH   1  15
ATOM     15  N   UNL     1      43.707   4.729   9.885  0.00  0.00    +0.000 N 
ATOM     16  H   UNL     1      42.835   4.844   9.370  0.00  0.00    +0.000 HD
BRANCH  15  20
ATOM     17  C   UNL     1      46.452   2.341   7.755  0.00  0.00    +0.000 A 
ATOM     18  C   UNL     1      46.504   3.731   7.630  0.00  0.00    +0.000 A 
ATOM     19  C   UNL     1      45.622   4.534   8.361  0.00  0.00    +0.000 A 
ATOM     20  C   UNL     1      44.689   3.981   9.246  0.00  0.00    +0.000 A 
ATOM     21  C   UNL     1      44.652   2.584   9.362  0.00  0.00    +0.000 A 
ATOM     22  C   UNL     1      45.519   1.766   8.623  0.00  0.00    +0.000 A 
BRANCH  17  24
ATOM     23  N   UNL     1      48.315   2.050   6.212  0.00  0.00    +0.000 N 
ATOM     24  C   UNL     1      47.319   1.456   6.937  0.00  0.00    +0.000 C 
ATOM     25  O   UNL     1      47.165   0.242   6.918  0.00  0.00    +0.000 OA
ATOM     26  H   UNL     1      48.943   1.430   5.716  0.00  0.00    +0.000 HD
ATOM     27  H   UNL     1      48.619   2.999   6.376  0.00  0.00    +0.000 HD
ENDBRANCH  17  24
ENDBRANCH  15  20
ENDBRANCH   1  15
TORSDOF 5
ENDMDL
MODEL 3
REMARK VINA RESULT:    -8.573      2.701      3.949
REMARK INTER + INTRA:         -11.858
REMARK INTER:                 -11.313
REMARK INTRA:                  -0.545
REMARK UNBOUND:                -0.779
REMARK  Name = 
REMARK  5 active torsions:
REMARK  status: ('A' for Active; 'I' for Inactive)
REMARK    1  A    between atoms: C_2  and  C_4
REMARK    2  A    between atoms: C_7  and  N_8
REMARK    3  A    between atoms: N_8  and  C_9
REMARK    4  A    between atoms: C_9  and  C_10
REMARK    5  A    between atoms: C_14  and  C_15
REMARK                            x       y       z     vdW  Elec       q    Type
REMARK                         _______ _______ _______ _____ _____    ______ ____
ROOT
ATOM      1  C   UNL     1      44.140   4.886  11.620  0.00  0.00    +0.000 C 
ENDROOT
BRANCH   1   2
ATOM      2  C   UNL     1      45.479   5.450  12.068  0.00  0.00    +0.000 A 
ATOM      3  N   UNL     1      46.087   6.360  11.277  0.00  0.00    +0.000 NA
ATOM      4  C   UNL     1      47.241   6.869  11.741  0.00  0.00    +0.000 A 
ATOM      5  C   UNL     1      47.787   6.531  12.957  0.00  0.00    +0.000 A 
ATOM      6  C   UNL     1      47.089   5.614  13.721  0.00  0.00    +0.000 A 
ATOM      7  N   UNL     1      45.934   5.066  13.281  0.00  0.00    +0.000 NA
BRANCH   6   8
ATOM      8  C   UNL     1      47.538   5.175  15.059  0.00  0.00    +0.000 A 
ATOM      9  C   UNL     1      48.456   5.943  15.806  0.00  0.00    +0.000 A 
ATOM     10  C   UNL     1      48.885   5.545  17.079  0.00  0.00    +0.000 A 
ATOM     11  C   UNL     1      48.407   4.360  17.631  0.00  0.00    +0.000 A 
ATOM     12  C   UNL     1      47.513   3.588  16.905  0.00  0.00    +0.000 A 
ATOM     13  F   UNL     1      47.055   2.443  17.426  0.00  0.00    +0.000 F 
ATOM     14  C   UNL     1      47.081   3.978  15.639  0.00  0.00    +0.000 A 
ENDBRANCH   6   8
ENDBRANCH   1   2
BRANCH   1  15
ATOM     15  N   UNL     1      43.971   4.897  10.164  0.00  0.00    +0.000 N 
ATOM     16  H   UNL     1      43.017   5.110   9.876  0.00  0.00    +0.000 HD
BRANCH  15  20
ATOM     17  C   UNL     1      46.323   2.261   7.864  0.00  0.00    +0.000 A 
ATOM     18  C   UNL     1      45.418   1.746   8.794  0.00  0.00    +0.000 A 
ATOM     19  C   UNL     1      44.606   2.611   9.536  0.00  0.00    +0.000 A 
ATOM     20  C   UNL     1      44.657   3.998   9.356  0.00  0.00    +0.000 A 
ATOM     21  C   UNL     1      45.570   4.498   8.416  0.00  0.00    +0.000 A 
ATOM     22  C   UNL     1      46.401   3.644   7.678  0.00  0.00    +0.000 A 
BRANCH  17  24
ATOM     23  N   UNL     1      48.350   1.963   6.544  0.00  0.00    +0.000 N 
ATOM     24  C   UNL     1      47.255   1.378   7.118  0.00  0.00    +0.000 C 
ATOM     25  O   UNL     1      47.066   0.171   7.029  0.00  0.00    +0.000 OA
ATOM     26  H   UNL     1      49.013   1.340   6.100  0.00  0.00    +0.000 HD
ATOM     27  H   UNL     1      48.661   2.893   6.784  0.00  0.00    +0.000 HD
ENDBRANCH  17  24
ENDBRANCH  15  20
ENDBRANCH   1  15
TORSDOF 5
ENDMDL
MODEL 4
REMARK VINA RESULT:    -8.037      3.653      6.966
REMARK INTER + INTRA:         -11.165
REMARK INTER:                 -10.490
REMARK INTRA:                  -0.675
REMARK UNBOUND:                -0.779
REMARK  Name = 
REMARK  5 active torsions:
REMARK  status: ('A' for Active; 'I' for Inactive)
REMARK    1  A    between atoms: C_2  and  C_4
REMARK    2  A    between atoms: C_7  and  N_8
REMARK    3  A    between atoms: N_8  and  C_9
REMARK    4  A    between atoms: C_9  and  C_10
REMARK    5  A    between atoms: C_14  and  C_15
REMARK                            x       y       z     vdW  Elec       q    Type
REMARK                         _______ _______ _______ _____ _____    ______ ____
ROOT
ATOM      1  C   UNL     1      44.144   6.707  11.397  0.00  0.00    +0.000 C 
ENDROOT
BRANCH   1   2
ATOM      2  C   UNL     1      44.125   5.204  11.168  0.00  0.00    +0.000 A 
ATOM      3  N   UNL     1      43.336   4.446  11.958  0.00  0.00    +0.000 NA
ATOM      4  C   UNL     1      43.312   3.130  11.681  0.00  0.00    +0.000 A 
ATOM      5  C   UNL     1      44.013   2.558  10.646  0.00  0.00    +0.000 A 
ATOM      6  C   UNL     1      44.775   3.407   9.865  0.00  0.00    +0.000 A 
ATOM      7  N   UNL     1      44.839   4.732  10.121  0.00  0.00    +0.000 NA
BRANCH   6   8
ATOM      8  C   UNL     1      45.560   2.940   8.702  0.00  0.00    +0.000 A 
ATOM      9  C   UNL     1      45.973   3.839   7.696  0.00  0.00    +0.000 A 
ATOM     10  C   UNL     1      46.724   3.414   6.592  0.00  0.00    +0.000 A 
ATOM     11  C   UNL     1      47.073   2.073   6.467  0.00  0.00    +0.000 A 
ATOM     12  C   UNL     1      46.664   1.175   7.442  0.00  0.00    +0.000 A 
ATOM     13  F   UNL     1      46.989  -0.119   7.325  0.00  0.00    +0.000 F 
ATOM     14  C   UNL     1      45.919   1.590   8.543  0.00  0.00    +0.000 A 
ENDBRANCH   6   8
ENDBRANCH   1   2
BRANCH   1  15
ATOM     15  N   UNL     1      44.825   7.089  12.637  0.00  0.00    +0.000 N 
ATOM     16  H   UNL     1      44.238   7.642  13.259  0.00  0.00    +0.000 HD
BRANCH  15  20
ATOM     17  C   UNL     1      48.962   7.867  12.398  0.00  0.00    +0.000 A 
ATOM     18  C   UNL     1      48.050   8.874  12.074  0.00  0.00    +0.000 A 
ATOM     19  C   UNL     1      46.676   8.638  12.185  0.00  0.00    +0.000 A 
ATOM     20  C   UNL     1      46.178   7.412  12.641  0.00  0.00    +0.000 A 
ATOM     21  C   UNL     1      47.107   6.413  12.966  0.00  0.00    +0.000 A 
ATOM     22  C   UNL     1      48.486   6.630  12.843  0.00  0.00    +0.000 A 
BRANCH  17  24
ATOM     23  N   UNL     1      51.031   7.336  11.225  0.00  0.00    +0.000 N 
ATOM     24  C   UNL     1      50.423   8.057  12.216  0.00  0.00    +0.000 C 
ATOM     25  O   UNL     1      51.063   8.837  12.910  0.00  0.00    +0.000 OA
ATOM     26  H   UNL     1      52.012   7.528  11.065  0.00  0.00    +0.000 HD
ATOM     27  H   UNL     1      50.515   6.869  10.495  0.00  0.00    +0.000 HD
ENDBRANCH  17  24
ENDBRANCH  15  20
ENDBRANCH   1  15
TORSDOF 5
ENDMDL
MODEL 5
REMARK VINA RESULT:    -7.750      3.807      7.365
REMARK INTER + INTRA:         -10.794
REMARK INTER:                 -10.563
REMARK INTRA:                  -0.231
REMARK UNBOUND:                -0.779
REMARK  Name = 
REMARK  5 active torsions:
REMARK  status: ('A' for Active; 'I' for Inactive)
REMARK    1  A    between atoms: C_2  and  C_4
REMARK    2  A    between atoms: C_7  and  N_8
REMARK    3  A    between atoms: N_8  and  C_9
REMARK    4  A    between atoms: C_9  and  C_10
REMARK    5  A    between atoms: C_14  and  C_15
REMARK                            x       y       z     vdW  Elec       q    Type
REMARK                         _______ _______ _______ _____ _____    ______ ____
ROOT
ATOM      1  C   UNL     1      45.969   7.288  11.790  0.00  0.00    +0.000 C 
ENDROOT
BRANCH   1   2
ATOM      2  C   UNL     1      45.130   6.154  11.222  0.00  0.00    +0.000 A 
ATOM      3  N   UNL     1      43.836   6.065  11.599  0.00  0.00    +0.000 NA
ATOM      4  C   UNL     1      43.121   5.079  11.029  0.00  0.00    +0.000 A 
ATOM      5  C   UNL     1      43.633   4.212  10.091  0.00  0.00    +0.000 A 
ATOM      6  C   UNL     1      44.959   4.389   9.738  0.00  0.00    +0.000 A 
ATOM      7  N   UNL     1      45.715   5.356  10.301  0.00  0.00    +0.000 NA
BRANCH   6   8
ATOM      8  C   UNL     1      45.637   3.552   8.725  0.00  0.00    +0.000 A 
ATOM      9  C   UNL     1      46.261   4.133   7.601  0.00  0.00    +0.000 A 
ATOM     10  C   UNL     1      46.915   3.355   6.638  0.00  0.00    +0.000 A 
ATOM     11  C   UNL     1      46.953   1.971   6.775  0.00  0.00    +0.000 A 
ATOM     12  C   UNL     1      46.335   1.383   7.869  0.00  0.00    +0.000 A 
ATOM     13  F   UNL     1      46.360   0.051   8.004  0.00  0.00    +0.000 F 
ATOM     14  C   UNL     1      45.683   2.150   8.832  0.00  0.00    +0.000 A 
ENDBRANCH   6   8
ENDBRANCH   1   2
BRANCH   1  15
ATOM     15  N   UNL     1      47.300   6.854  12.225  0.00  0.00    +0.000 N 
ATOM     16  H   UNL     1      47.942   6.704  11.448  0.00  0.00    +0.000 HD
BRANCH  15  20
ATOM     17  C   UNL     1      47.563   4.445  15.674  0.00  0.00    +0.000 A 
ATOM     18  C   UNL     1      46.951   3.941  14.525  0.00  0.00    +0.000 A 
ATOM     19  C   UNL     1      46.891   4.718  13.364  0.00  0.00    +0.000 A 
ATOM     20  C   UNL     1      47.456   5.998  13.309  0.00  0.00    +0.000 A 
ATOM     21  C   UNL     1      48.069   6.488  14.470  0.00  0.00    +0.000 A 
ATOM     22  C   UNL     1      48.122   5.726  15.646  0.00  0.00    +0.000 A 
BRANCH  17  24
ATOM     23  N   UNL     1      48.765   3.592  17.615  0.00  0.00    +0.000 N 
ATOM     24  C   UNL     1      47.575   3.679  16.946  0.00  0.00    +0.000 C 
ATOM     25  O   UNL     1      46.561   3.157  17.394  0.00  0.00    +0.000 OA
ATOM     26  H   UNL     1      48.743   3.129  18.515  0.00  0.00    +0.000 HD
ATOM     27  H   UNL     1      49.553   4.188  17.408  0.00  0.00    +0.000 HD
ENDBRANCH  17  24
ENDBRANCH  15  20
ENDBRANCH   1  15
TORSDOF 5
ENDMDL
MODEL 6
REMARK VINA RESULT:    -7.570      3.642      6.978
REMARK INTER + INTRA:         -10.561
REMARK INTER:                  -9.812
REMARK INTRA:                  -0.749
REMARK UNBOUND:                -0.779
REMARK  Name = 
REMARK  5 active torsions:
REMARK  status: ('A' for Active; 'I' for Inactive)
REMARK    1  A    between atoms: C_2  and  C_4
REMARK    2  A    between atoms: C_7  and  N_8
REMARK    3  A    between atoms: N_8  and  C_9
REMARK    4  A    between atoms: C_9  and  C_10
REMARK    5  A    between atoms: C_14  and  C_15
REMARK                            x       y       z     vdW  Elec       q    Type
REMARK                         _______ _______ _______ _____ _____    ______ ____
ROOT
ATOM      1  C   UNL     1      45.676   4.119  13.402  0.00  0.00    +0.000 C 
ENDROOT
BRANCH   1   2
ATOM      2  C   UNL     1      44.966   4.205  12.060  0.00  0.00    +0.000 A 
ATOM      3  N   UNL     1      43.847   4.956  11.975  0.00  0.00    +0.000 NA
ATOM      4  C   UNL     1      43.286   5.045  10.756  0.00  0.00    +0.000 A 
ATOM      5  C   UNL     1      43.808   4.446   9.634  0.00  0.00    +0.000 A 
ATOM      6  C   UNL     1      44.972   3.718   9.799  0.00  0.00    +0.000 A 
ATOM      7  N   UNL     1      45.557   3.591  11.011  0.00  0.00    +0.000 NA
BRANCH   6   8
ATOM      8  C   UNL     1      45.663   3.042   8.680  0.00  0.00    +0.000 A 
ATOM      9  C   UNL     1      46.115   3.770   7.559  0.00  0.00    +0.000 A 
ATOM     10  C   UNL     1      46.778   3.145   6.495  0.00  0.00    +0.000 A 
ATOM     11  C   UNL     1      46.997   1.771   6.526  0.00  0.00    +0.000 A 
ATOM     12  C   UNL     1      46.548   1.040   7.616  0.00  0.00    +0.000 A 
ATOM     13  F   UNL     1      46.748  -0.284   7.650  0.00  0.00    +0.000 F 
ATOM     14  C   UNL     1      45.889   1.654   8.679  0.00  0.00    +0.000 A 
ENDBRANCH   6   8
ENDBRANCH   1   2
BRANCH   1  15
ATOM     15  N   UNL     1      46.021   5.433  13.953  0.00  0.00    +0.000 N 
ATOM     16  H   UNL     1      45.262   5.851  14.489  0.00  0.00    +0.000 HD
BRANCH  15  20
ATOM     17  C   UNL     1      48.419   8.329  12.048  0.00  0.00    +0.000 A 
ATOM     18  C   UNL     1      48.977   7.103  12.413  0.00  0.00    +0.000 A 
ATOM     19  C   UNL     1      48.182   6.121  13.013  0.00  0.00    +0.000 A 
ATOM     20  C   UNL     1      46.815   6.323  13.240  0.00  0.00    +0.000 A 
ATOM     21  C   UNL     1      46.270   7.559  12.864  0.00  0.00    +0.000 A 
ATOM     22  C   UNL     1      47.059   8.558  12.278  0.00  0.00    +0.000 A 
BRANCH  17  24
ATOM     23  N   UNL     1      50.590   9.184  11.345  0.00  0.00    +0.000 N 
ATOM     24  C   UNL     1      49.251   9.422  11.482  0.00  0.00    +0.000 C 
ATOM     25  O   UNL     1      48.762  10.489  11.135  0.00  0.00    +0.000 OA
ATOM     26  H   UNL     1      51.133   9.909  10.893  0.00  0.00    +0.000 HD
ATOM     27  H   UNL     1      50.989   8.258  11.400  0.00  0.00    +0.000 HD
ENDBRANCH  17  24
ENDBRANCH  15  20
ENDBRANCH   1  15
TORSDOF 5
ENDMDL
MODEL 7
REMARK VINA RESULT:    -7.264      3.762      7.169
REMARK INTER + INTRA:         -10.167
REMARK INTER:                  -9.570
REMARK INTRA:                  -0.597
REMARK UNBOUND:                -0.779
REMARK  Name = 
REMARK  5 active torsions:
REMARK  status: ('A' for Active; 'I' for Inactive)
REMARK    1  A    between atoms: C_2  and  C_4
REMARK    2  A    between atoms: C_7  and  N_8
REMARK    3  A    between atoms: N_8  and  C_9
REMARK    4  A    between atoms: C_9  and  C_10
REMARK    5  A    between atoms: C_14  and  C_15
REMARK                            x       y       z     vdW  Elec       q    Type
REMARK                         _______ _______ _______ _____ _____    ______ ____
ROOT
ATOM      1  C   UNL     1      44.984   7.492  12.022  0.00  0.00    +0.000 C 
ENDROOT
BRANCH   1   2
ATOM      2  C   UNL     1      44.484   6.093  11.696  0.00  0.00    +0.000 A 
ATOM      3  N   UNL     1      43.405   5.628  12.360  0.00  0.00    +0.000 NA
ATOM      4  C   UNL     1      42.968   4.409  11.999  0.00  0.00    +0.000 A 
ATOM      5  C   UNL     1      43.542   3.662  10.997  0.00  0.00    +0.000 A 
ATOM      6  C   UNL     1      44.626   4.221  10.345  0.00  0.00    +0.000 A 
ATOM      7  N   UNL     1      45.105   5.436  10.692  0.00  0.00    +0.000 NA
BRANCH   6   8
ATOM      8  C   UNL     1      45.327   3.548   9.232  0.00  0.00    +0.000 A 
ATOM      9  C   UNL     1      45.917   4.292   8.188  0.00  0.00    +0.000 A 
ATOM     10  C   UNL     1      46.592   3.670   7.131  0.00  0.00    +0.000 A 
ATOM     11  C   UNL     1      46.686   2.282   7.090  0.00  0.00    +0.000 A 
ATOM     12  C   UNL     1      46.101   1.536   8.102  0.00  0.00    +0.000 A 
ATOM     13  F   UNL     1      46.180   0.199   8.066  0.00  0.00    +0.000 F 
ATOM     14  C   UNL     1      45.429   2.147   9.158  0.00  0.00    +0.000 A 
ENDBRANCH   6   8
ENDBRANCH   1   2
BRANCH   1  15
ATOM     15  N   UNL     1      45.921   7.517  13.149  0.00  0.00    +0.000 N 
ATOM     16  H   UNL     1      45.499   7.862  14.010  0.00  0.00    +0.000 HD
BRANCH  15  20
ATOM     17  C   UNL     1      50.051   8.288  12.802  0.00  0.00    +0.000 A 
ATOM     18  C   UNL     1      49.369   7.693  11.739  0.00  0.00    +0.000 A 
ATOM     19  C   UNL     1      47.991   7.467  11.830  0.00  0.00    +0.000 A 
ATOM     20  C   UNL     1      47.259   7.845  12.961  0.00  0.00    +0.000 A 
ATOM     21  C   UNL     1      47.960   8.444  14.018  0.00  0.00    +0.000 A 
ATOM     22  C   UNL     1      49.343   8.661  13.948  0.00  0.00    +0.000 A 
BRANCH  17  24
ATOM     23  N   UNL     1      52.244   7.938  13.806  0.00  0.00    +0.000 N 
ATOM     24  C   UNL     1      51.525   8.471  12.772  0.00  0.00    +0.000 C 
ATOM     25  O   UNL     1      52.082   9.058  11.854  0.00  0.00    +0.000 OA
ATOM     26  H   UNL     1      53.252   8.007  13.736  0.00  0.00    +0.000 HD
ATOM     27  H   UNL     1      51.859   7.260  14.447  0.00  0.00    +0.000 HD
ENDBRANCH  17  24
ENDBRANCH  15  20
ENDBRANCH   1  15
TORSDOF 5
ENDMDL
MODEL 8
REMARK VINA RESULT:    -7.254      4.437      7.977
REMARK INTER + INTRA:         -10.153
REMARK INTER:                  -9.717
REMARK INTRA:                  -0.436
REMARK UNBOUND:                -0.779
REMARK  Name = 
REMARK  5 active torsions:
REMARK  status: ('A' for Active; 'I' for Inactive)
REMARK    1  A    between atoms: C_2  and  C_4
REMARK    2  A    between atoms: C_7  and  N_8
REMARK    3  A    between atoms: N_8  and  C_9
REMARK    4  A    between atoms: C_9  and  C_10
REMARK    5  A    between atoms: C_14  and  C_15
REMARK                            x       y       z     vdW  Elec       q    Type
REMARK                         _______ _______ _______ _____ _____    ______ ____
ROOT
ATOM      1  C   UNL     1      46.383   5.182  14.092  0.00  0.00    +0.000 C 
ENDROOT
BRANCH   1   2
ATOM      2  C   UNL     1      45.297   4.792  13.102  0.00  0.00    +0.000 A 
ATOM      3  N   UNL     1      44.010   5.015  13.443  0.00  0.00    +0.000 NA
ATOM      4  C   UNL     1      43.089   4.704  12.514  0.00  0.00    +0.000 A 
ATOM      5  C   UNL     1      43.402   4.212  11.268  0.00  0.00    +0.000 A 
ATOM      6  C   UNL     1      44.745   4.039  10.986  0.00  0.00    +0.000 A 
ATOM      7  N   UNL     1      45.699   4.324  11.900  0.00  0.00    +0.000 NA
BRANCH   6   8
ATOM      8  C   UNL     1      45.233   3.545   9.681  0.00  0.00    +0.000 A 
ATOM      9  C   UNL     1      45.498   4.436   8.619  0.00  0.00    +0.000 A 
ATOM     10  C   UNL     1      45.969   3.984   7.380  0.00  0.00    +0.000 A 
ATOM     11  C   UNL     1      46.180   2.625   7.172  0.00  0.00    +0.000 A 
ATOM     12  C   UNL     1      45.913   1.735   8.203  0.00  0.00    +0.000 A 
ATOM     13  F   UNL     1      46.106   0.424   8.009  0.00  0.00    +0.000 F 
ATOM     14  C   UNL     1      45.446   2.176   9.438  0.00  0.00    +0.000 A 
ENDBRANCH   6   8
ENDBRANCH   1   2
BRANCH   1  15
ATOM     15  N   UNL     1      46.337   4.402  15.331  0.00  0.00    +0.000 N 
ATOM     16  H   UNL     1      45.470   4.532  15.851  0.00  0.00    +0.000 HD
BRANCH  15  20
ATOM     17  C   UNL     1      49.939   3.706  17.406  0.00  0.00    +0.000 A 
ATOM     18  C   UNL     1      49.530   5.017  17.155  0.00  0.00    +0.000 A 
ATOM     19  C   UNL     1      48.318   5.259  16.500  0.00  0.00    +0.000 A 
ATOM     20  C   UNL     1      47.477   4.213  16.103  0.00  0.00    +0.000 A 
ATOM     21  C   UNL     1      47.902   2.903  16.366  0.00  0.00    +0.000 A 
ATOM     22  C   UNL     1      49.122   2.645  17.006  0.00  0.00    +0.000 A 
BRANCH  17  24
ATOM     23  N   UNL     1      51.666   2.106  18.038  0.00  0.00    +0.000 N 
ATOM     24  C   UNL     1      51.255   3.411  18.028  0.00  0.00    +0.000 C 
ATOM     25  O   UNL     1      51.957   4.296  18.501  0.00  0.00    +0.000 OA
ATOM     26  H   UNL     1      52.595   1.929  18.399  0.00  0.00    +0.000 HD
ATOM     27  H   UNL     1      51.236   1.394  17.466  0.00  0.00    +0.000 HD
ENDBRANCH  17  24
ENDBRANCH  15  20
ENDBRANCH   1  15
TORSDOF 5
ENDMDL
MODEL 9
REMARK VINA RESULT:    -6.507      5.483      8.446
REMARK INTER + INTRA:          -9.188
REMARK INTER:                  -8.646
REMARK INTRA:                  -0.542
REMARK UNBOUND:                -0.779
REMARK  Name = 
REMARK  5 active torsions:
REMARK  status: ('A' for Active; 'I' for Inactive)
REMARK    1  A    between atoms: C_2  and  C_4
REMARK    2  A    between atoms: C_7  and  N_8
REMARK    3  A    between atoms: N_8  and  C_9
REMARK    4  A    between atoms: C_9  and  C_10
REMARK    5  A    between atoms: C_14  and  C_15
REMARK                            x       y       z     vdW  Elec       q    Type
REMARK                         _______ _______ _______ _____ _____    ______ ____
ROOT
ATOM      1  C   UNL     1      47.560   3.636  16.838  0.00  0.00    +0.000 C 
ENDROOT
BRANCH   1   2
ATOM      2  C   UNL     1      47.435   4.588  15.659  0.00  0.00    +0.000 A 
ATOM      3  N   UNL     1      48.393   5.524  15.488  0.00  0.00    +0.000 NA
ATOM      4  C   UNL     1      48.267   6.307  14.401  0.00  0.00    +0.000 A 
ATOM      5  C   UNL     1      47.255   6.173  13.481  0.00  0.00    +0.000 A 
ATOM      6  C   UNL     1      46.329   5.172  13.713  0.00  0.00    +0.000 A 
ATOM      7  N   UNL     1      46.412   4.376  14.802  0.00  0.00    +0.000 NA
BRANCH   6   8
ATOM      8  C   UNL     1      45.203   4.891  12.798  0.00  0.00    +0.000 A 
ATOM      9  C   UNL     1      44.147   5.813  12.641  0.00  0.00    +0.000 A 
ATOM     10  C   UNL     1      43.076   5.566  11.772  0.00  0.00    +0.000 A 
ATOM     11  C   UNL     1      43.036   4.382  11.042  0.00  0.00    +0.000 A 
ATOM     12  C   UNL     1      44.062   3.460  11.194  0.00  0.00    +0.000 A 
ATOM     13  F   UNL     1      44.026   2.314  10.501  0.00  0.00    +0.000 F 
ATOM     14  C   UNL     1      45.130   3.699  12.055  0.00  0.00    +0.000 A 
ENDBRANCH   6   8
ENDBRANCH   1   2
BRANCH   1  15
ATOM     15  N   UNL     1      48.530   2.562  16.607  0.00  0.00    +0.000 N 
ATOM     16  H   UNL     1      48.094   1.646  16.511  0.00  0.00    +0.000 HD
BRANCH  15  20
ATOM     17  C   UNL     1      52.437   2.598  18.191  0.00  0.00    +0.000 A 
ATOM     18  C   UNL     1      51.621   3.721  18.340  0.00  0.00    +0.000 A 
ATOM     19  C   UNL     1      50.310   3.706  17.851  0.00  0.00    +0.000 A 
ATOM     20  C   UNL     1      49.775   2.574  17.226  0.00  0.00    +0.000 A 
ATOM     21  C   UNL     1      50.606   1.454  17.087  0.00  0.00    +0.000 A 
ATOM     22  C   UNL     1      51.927   1.461  17.558  0.00  0.00    +0.000 A 
BRANCH  17  24
ATOM     23  N   UNL     1      54.624   3.671  18.242  0.00  0.00    +0.000 N 
ATOM     24  C   UNL     1      53.856   2.608  18.627  0.00  0.00    +0.000 C 
ATOM     25  O   UNL     1      54.323   1.712  19.319  0.00  0.00    +0.000 OA
ATOM     26  H   UNL     1      55.568   3.701  18.605  0.00  0.00    +0.000 HD
ATOM     27  H   UNL     1      54.230   4.527  17.877  0.00  0.00    +0.000 HD
ENDBRANCH  17  24
ENDBRANCH  15  20
ENDBRANCH   1  15
TORSDOF 5
ENDMDL
