MODEL 1
REMARK VINA RESULT:    -7.665      0.000      0.000
REMARK INTER + INTRA:         -10.755
REMARK INTER:                  -9.906
REMARK INTRA:                  -0.849
REMARK UNBOUND:                -0.849
REMARK  Name = 
REMARK  7 active torsions:
REMARK  status: ('A' for Active; 'I' for Inactive)
REMARK    1  A    between atoms: C_1  and  C_2
REMARK    2  A    between atoms: C_2  and  C_3
REMARK    3  A    between atoms: C_2  and  C_4
REMARK    4  A    between atoms: C_2  and  C_15
REMARK    5  A    between atoms: C_5  and  C_6
REMARK    6  A    between atoms: C_9  and  C_10
REMARK    7  A    between atoms: C_20  and  C_21
REMARK                            x       y       z     vdW  Elec       q    Type
REMARK                         _______ _______ _______ _____ _____    ______ ____
ROOT
ATOM      1  C   UNL     1      43.411   2.021  11.348  0.00  0.00    +0.000 C 
ATOM      2  C   UNL     1      44.132   3.386  11.234  0.00  0.00    +0.000 C 
ATOM      3  C   UNL     1      43.035   4.473  11.336  0.00  0.00    +0.000 C 
ENDROOT
BRANCH   2   4
ATOM      4  C   UNL     1      44.899   3.411   9.892  0.00  0.00    +0.000 A 
ATOM      5  C   UNL     1      45.137   4.637   9.252  0.00  0.00    +0.000 A 
ATOM      6  C   UNL     1      45.863   4.705   8.061  0.00  0.00    +0.000 A 
ATOM      7  C   UNL     1      46.374   3.547   7.470  0.00  0.00    +0.000 A 
ATOM      8 CL   UNL     1      47.266   3.761   6.009  0.00  0.00    +0.000 Cl
ATOM      9  C   UNL     1      46.156   2.303   8.065  0.00  0.00    +0.000 A 
ATOM     10  C   UNL     1      45.409   2.255   9.271  0.00  0.00    +0.000 A 
BRANCH   9  11
ATOM     11  C   UNL     1      46.678   0.994   7.527  0.00  0.00    +0.000 C 
ATOM     12  F   UNL     1      46.172  -0.140   8.076  0.00  0.00    +0.000 F 
ATOM     13  F   UNL     1      46.449   0.878   6.186  0.00  0.00    +0.000 F 
ATOM     14  F   UNL     1      48.032   0.892   7.669  0.00  0.00    +0.000 F 
ENDBRANCH   9  11
ENDBRANCH   2   4
BRANCH   2  15
ATOM     15  C   UNL     1      45.104   3.655  12.387  0.00  0.00    +0.000 C 
ATOM     16  C   UNL     1      45.624   4.839  12.766  0.00  0.00    +0.000 C 
BRANCH  16  17
ATOM     17  C   UNL     1      46.577   5.003  13.876  0.00  0.00    +0.000 A 
ATOM     18  C   UNL     1      47.535   6.022  13.866  0.00  0.00    +0.000 A 
ATOM     19  N   UNL     1      48.454   6.199  14.852  0.00  0.00    +0.000 NA
ATOM     20  C   UNL     1      48.370   5.298  15.870  0.00  0.00    +0.000 A 
ATOM     21  C   UNL     1      47.419   4.289  15.896  0.00  0.00    +0.000 A 
ATOM     22  N   UNL     1      46.508   4.122  14.903  0.00  0.00    +0.000 NA
BRANCH  20  23
ATOM     23  C   UNL     1      49.356   5.405  16.983  0.00  0.00    +0.000 C 
ATOM     24  N   UNL     1      48.941   6.099  18.086  0.00  0.00    +0.000 N 
ATOM     25  O   UNL     1      50.473   4.913  16.914  0.00  0.00    +0.000 OA
ATOM     26  H   UNL     1      48.014   6.509  18.116  0.00  0.00    +0.000 HD
ATOM     27  H   UNL     1      49.577   6.219  18.861  0.00  0.00    +0.000 HD
ENDBRANCH  20  23
ENDBRANCH  16  17
ENDBRANCH   2  15
TORSDOF 5
ENDMDL
MODEL 2
REMARK VINA RESULT:    -7.096      1.905      2.531
REMARK INTER + INTRA:         -10.019
REMARK INTER:                  -9.058
REMARK INTRA:                  -0.962
REMARK UNBOUND:                -0.849
REMARK  Name = 
REMARK  7 active torsions:
REMARK  status: ('A' for Active; 'I' for Inactive)
REMARK    1  A    between atoms: C_1  and  C_2
REMARK    2  A    between atoms: C_2  and  C_3
REMARK    3  A    between atoms: C_2  and  C_4
REMARK    4  A    between atoms: C_2  and  C_15
REMARK    5  A    between atoms: C_5  and  C_6
REMARK    6  A    between atoms: C_9  and  C_10
REMARK    7  A    between atoms: C_20  and  C_21
REMARK                            x       y       z     vdW  Elec       q    Type
REMARK                         _______ _______ _______ _____ _____    ______ ____
ROOT
ATOM      1  C   UNL     1      42.866   6.009  12.036  0.00  0.00    +0.000 C 
ATOM      2  C   UNL     1      44.386   5.891  11.766  0.00  0.00    +0.000 C 
ATOM      3  C   UNL     1      44.818   7.217  11.094  0.00  0.00    +0.000 C 
ENDROOT
BRANCH   2   4
ATOM      4  C   UNL     1      44.618   4.648  10.878  0.00  0.00    +0.000 A 
ATOM      5  C   UNL     1      43.978   3.440  11.196  0.00  0.00    +0.000 A 
ATOM      6  C   UNL     1      44.128   2.306  10.394  0.00  0.00    +0.000 A 
ATOM      7  C   UNL     1      44.925   2.344   9.247  0.00  0.00    +0.000 A 
ATOM      8 CL   UNL     1      45.019   0.885   8.332  0.00  0.00    +0.000 Cl
ATOM      9  C   UNL     1      45.588   3.521   8.894  0.00  0.00    +0.000 A 
ATOM     10  C   UNL     1      45.428   4.658   9.727  0.00  0.00    +0.000 A 
BRANCH   9  11
ATOM     11  C   UNL     1      46.453   3.681   7.669  0.00  0.00    +0.000 C 
ATOM     12  F   UNL     1      47.485   2.809   7.530  0.00  0.00    +0.000 F 
ATOM     13  F   UNL     1      45.722   3.558   6.521  0.00  0.00    +0.000 F 
ATOM     14  F   UNL     1      47.016   4.922   7.604  0.00  0.00    +0.000 F 
ENDBRANCH   9  11
ENDBRANCH   2   4
BRANCH   2  15
ATOM     15  C   UNL     1      45.220   5.772  13.046  0.00  0.00    +0.000 C 
ATOM     16  C   UNL     1      46.314   5.013  13.248  0.00  0.00    +0.000 C 
BRANCH  16  17
ATOM     17  C   UNL     1      47.042   4.938  14.525  0.00  0.00    +0.000 A 
ATOM     18  C   UNL     1      48.024   5.876  14.858  0.00  0.00    +0.000 A 
ATOM     19  N   UNL     1      48.743   5.835  16.011  0.00  0.00    +0.000 NA
ATOM     20  C   UNL     1      48.428   4.798  16.836  0.00  0.00    +0.000 A 
ATOM     21  C   UNL     1      47.450   3.866  16.521  0.00  0.00    +0.000 A 
ATOM     22  N   UNL     1      46.740   3.917  15.364  0.00  0.00    +0.000 NA
BRANCH  20  23
ATOM     23  C   UNL     1      49.184   4.663  18.112  0.00  0.00    +0.000 C 
ATOM     24  N   UNL     1      49.479   3.386  18.504  0.00  0.00    +0.000 N 
ATOM     25  O   UNL     1      49.516   5.634  18.779  0.00  0.00    +0.000 OA
ATOM     26  H   UNL     1      49.183   2.597  17.941  0.00  0.00    +0.000 HD
ATOM     27  H   UNL     1      49.972   3.238  19.372  0.00  0.00    +0.000 HD
ENDBRANCH  20  23
ENDBRANCH  16  17
ENDBRANCH   2  15
TORSDOF 5
ENDMDL
MODEL 3
REMARK VINA RESULT:    -6.850      5.778      8.295
REMARK INTER + INTRA:          -9.701
REMARK INTER:                  -8.812
REMARK INTRA:                  -0.889
REMARK UNBOUND:                -0.849
REMARK  Name = 
REMARK  7 active torsions:
REMARK  status: ('A' for Active; 'I' for Inactive)
REMARK    1  A    between atoms: C_1  and  C_2
REMARK    2  A    between atoms: C_2  and  C_3
REMARK    3  A    between atoms: C_2  and  C_4
REMARK    4  A    between atoms: C_2  and  C_15
REMARK    5  A    between atoms: C_5  and  C_6
REMARK    6  A    between atoms: C_9  and  C_10
REMARK    7  A    between atoms: C_20  and  C_21
REMARK                            x       y       z     vdW  Elec       q    Type
REMARK                         _______ _______ _______ _____ _____    ______ ____
ROOT
ATOM      1  C   UNL     1      44.106   8.064  11.289  0.00  0.00    +0.000 C 
ATOM      2  C   UNL     1      45.042   6.998  11.910  0.00  0.00    +0.000 C 
ATOM      3  C   UNL     1      44.183   6.188  12.910  0.00  0.00    +0.000 C 
ENDROOT
BRANCH   2   4
ATOM      4  C   UNL     1      46.229   7.733  12.572  0.00  0.00    +0.000 A 
ATOM      5  C   UNL     1      46.496   9.068  12.229  0.00  0.00    +0.000 A 
ATOM      6  C   UNL     1      47.533   9.779  12.838  0.00  0.00    +0.000 A 
ATOM      7  C   UNL     1      48.337   9.178  13.809  0.00  0.00    +0.000 A 
ATOM      8 CL   UNL     1      49.574  10.163  14.497  0.00  0.00    +0.000 Cl
ATOM      9  C   UNL     1      48.114   7.850  14.178  0.00  0.00    +0.000 A 
ATOM     10  C   UNL     1      47.061   7.143  13.542  0.00  0.00    +0.000 A 
BRANCH   9  11
ATOM     11  C   UNL     1      48.905   7.110  15.228  0.00  0.00    +0.000 C 
ATOM     12  F   UNL     1      50.237   6.967  15.005  0.00  0.00    +0.000 F 
ATOM     13  F   UNL     1      48.807   7.717  16.447  0.00  0.00    +0.000 F 
ATOM     14  F   UNL     1      48.432   5.844  15.420  0.00  0.00    +0.000 F 
ENDBRANCH   9  11
ENDBRANCH   2   4
BRANCH   2  15
ATOM     15  C   UNL     1      45.569   5.987  10.886  0.00  0.00    +0.000 C 
ATOM     16  C   UNL     1      44.855   5.111  10.153  0.00  0.00    +0.000 C 
BRANCH  16  17
ATOM     17  C   UNL     1      45.449   4.151   9.207  0.00  0.00    +0.000 A 
ATOM     18  C   UNL     1      45.314   2.772   9.391  0.00  0.00    +0.000 A 
ATOM     19  N   UNL     1      45.865   1.845   8.563  0.00  0.00    +0.000 NA
ATOM     20  C   UNL     1      46.568   2.368   7.520  0.00  0.00    +0.000 A 
ATOM     21  C   UNL     1      46.701   3.734   7.321  0.00  0.00    +0.000 A 
ATOM     22  N   UNL     1      46.147   4.649   8.157  0.00  0.00    +0.000 NA
BRANCH  20  23
ATOM     23  C   UNL     1      47.225   1.422   6.574  0.00  0.00    +0.000 C 
ATOM     24  N   UNL     1      48.153   1.967   5.729  0.00  0.00    +0.000 N 
ATOM     25  O   UNL     1      46.949   0.232   6.545  0.00  0.00    +0.000 OA
ATOM     26  H   UNL     1      48.357   2.959   5.764  0.00  0.00    +0.000 HD
ATOM     27  H   UNL     1      48.614   1.374   5.055  0.00  0.00    +0.000 HD
ENDBRANCH  20  23
ENDBRANCH  16  17
ENDBRANCH   2  15
TORSDOF 5
ENDMDL
MODEL 4
REMARK VINA RESULT:    -6.728      6.075      9.220
REMARK INTER + INTRA:          -9.544
REMARK INTER:                  -8.592
REMARK INTRA:                  -0.953
REMARK UNBOUND:                -0.849
REMARK  Name = 
REMARK  7 active torsions:
REMARK  status: ('A' for Active; 'I' for Inactive)
REMARK    1  A    between atoms: C_1  and  C_2
REMARK    2  A    between atoms: C_2  and  C_3
REMARK    3  A    between atoms: C_2  and  C_4
REMARK    4  A    between atoms: C_2  and  C_15
REMARK    5  A    between atoms: C_5  and  C_6
REMARK    6  A    between atoms: C_9  and  C_10
REMARK    7  A    between atoms: C_20  and  C_21
REMARK                            x       y       z     vdW  Elec       q    Type
REMARK                         _______ _______ _______ _____ _____    ______ ____
ROOT
ATOM      1  C   UNL     1      49.113   6.437  17.188  0.00  0.00    +0.000 C 
ATOM      2  C   UNL     1      48.434   5.050  17.307  0.00  0.00    +0.000 C 
ATOM      3  C   UNL     1      47.518   5.114  18.553  0.00  0.00    +0.000 C 
ENDROOT
BRANCH   2   4
ATOM      4  C   UNL     1      49.546   3.983  17.415  0.00  0.00    +0.000 A 
ATOM      5  C   UNL     1      49.287   2.668  16.997  0.00  0.00    +0.000 A 
ATOM      6  C   UNL     1      50.279   1.685  17.039  0.00  0.00    +0.000 A 
ATOM      7  C   UNL     1      51.562   1.985  17.501  0.00  0.00    +0.000 A 
ATOM      8 CL   UNL     1      52.703   0.692  17.491  0.00  0.00    +0.000 Cl
ATOM      9  C   UNL     1      51.865   3.278  17.935  0.00  0.00    +0.000 A 
ATOM     10  C   UNL     1      50.841   4.259  17.892  0.00  0.00    +0.000 A 
BRANCH   9  11
ATOM     11  C   UNL     1      53.220   3.718  18.432  0.00  0.00    +0.000 C 
ATOM     12  F   UNL     1      54.267   3.552  17.584  0.00  0.00    +0.000 F 
ATOM     13  F   UNL     1      53.226   5.045  18.756  0.00  0.00    +0.000 F 
ATOM     14  F   UNL     1      53.575   3.068  19.578  0.00  0.00    +0.000 F 
ENDBRANCH   9  11
ENDBRANCH   2   4
BRANCH   2  15
ATOM     15  C   UNL     1      47.519   4.722  16.123  0.00  0.00    +0.000 C 
ATOM     16  C   UNL     1      47.558   5.246  14.883  0.00  0.00    +0.000 C 
BRANCH  16  17
ATOM     17  C   UNL     1      46.617   4.891  13.807  0.00  0.00    +0.000 A 
ATOM     18  C   UNL     1      45.883   5.870  13.131  0.00  0.00    +0.000 A 
ATOM     19  N   UNL     1      44.983   5.591  12.151  0.00  0.00    +0.000 NA
ATOM     20  C   UNL     1      44.849   4.266  11.868  0.00  0.00    +0.000 A 
ATOM     21  C   UNL     1      45.578   3.286  12.525  0.00  0.00    +0.000 A 
ATOM     22  N   UNL     1      46.473   3.577  13.504  0.00  0.00    +0.000 NA
BRANCH  20  23
ATOM     23  C   UNL     1      43.866   3.869  10.821  0.00  0.00    +0.000 C 
ATOM     24  N   UNL     1      43.875   4.617   9.675  0.00  0.00    +0.000 N 
ATOM     25  O   UNL     1      43.089   2.938  10.975  0.00  0.00    +0.000 OA
ATOM     26  H   UNL     1      44.520   5.393   9.575  0.00  0.00    +0.000 HD
ATOM     27  H   UNL     1      43.215   4.404   8.942  0.00  0.00    +0.000 HD
ENDBRANCH  20  23
ENDBRANCH  16  17
ENDBRANCH   2  15
TORSDOF 5
ENDMDL
MODEL 5
REMARK VINA RESULT:    -6.504      5.364      8.646
REMARK INTER + INTRA:          -9.255
REMARK INTER:                  -8.274
REMARK INTRA:                  -0.981
REMARK UNBOUND:                -0.849
REMARK  Name = 
REMARK  7 active torsions:
REMARK  status: ('A' for Active; 'I' for Inactive)
REMARK    1  A    between atoms: C_1  and  C_2
REMARK    2  A    between atoms: C_2  and  C_3
REMARK    3  A    between atoms: C_2  and  C_4
REMARK    4  A    between atoms: C_2  and  C_15
REMARK    5  A    between atoms: C_5  and  C_6
REMARK    6  A    between atoms: C_9  and  C_10
REMARK    7  A    between atoms: C_20  and  C_21
REMARK                            x       y       z     vdW  Elec       q    Type
REMARK                         _______ _______ _______ _____ _____    ______ ____
ROOT
ATOM      1  C   UNL     1      50.329   7.730  14.465  0.00  0.00    +0.000 C 
ATOM      2  C   UNL     1      48.853   7.422  14.818  0.00  0.00    +0.000 C 
ATOM      3  C   UNL     1      48.130   8.787  14.920  0.00  0.00    +0.000 C 
ENDROOT
BRANCH   2   4
ATOM      4  C   UNL     1      48.835   6.617  16.137  0.00  0.00    +0.000 A 
ATOM      5  C   UNL     1      48.966   7.290  17.361  0.00  0.00    +0.000 A 
ATOM      6  C   UNL     1      48.912   6.603  18.576  0.00  0.00    +0.000 A 
ATOM      7  C   UNL     1      48.726   5.220  18.606  0.00  0.00    +0.000 A 
ATOM      8 CL   UNL     1      48.661   4.488  20.166  0.00  0.00    +0.000 Cl
ATOM      9  C   UNL     1      48.598   4.505  17.412  0.00  0.00    +0.000 A 
ATOM     10  C   UNL     1      48.664   5.221  16.190  0.00  0.00    +0.000 A 
BRANCH   9  11
ATOM     11  C   UNL     1      48.372   3.016  17.327  0.00  0.00    +0.000 C 
ATOM     12  F   UNL     1      49.305   2.220  17.912  0.00  0.00    +0.000 F 
ATOM     13  F   UNL     1      47.184   2.658  17.898  0.00  0.00    +0.000 F 
ATOM     14  F   UNL     1      48.290   2.589  16.034  0.00  0.00    +0.000 F 
ENDBRANCH   9  11
ENDBRANCH   2   4
BRANCH   2  15
ATOM     15  C   UNL     1      48.121   6.636  13.725  0.00  0.00    +0.000 C 
ATOM     16  C   UNL     1      46.792   6.523  13.543  0.00  0.00    +0.000 C 
BRANCH  16  17
ATOM     17  C   UNL     1      46.171   5.721  12.476  0.00  0.00    +0.000 A 
ATOM     18  C   UNL     1      45.620   4.464  12.740  0.00  0.00    +0.000 A 
ATOM     19  N   UNL     1      45.060   3.673  11.785  0.00  0.00    +0.000 NA
ATOM     20  C   UNL     1      45.072   4.206  10.532  0.00  0.00    +0.000 A 
ATOM     21  C   UNL     1      45.607   5.456  10.259  0.00  0.00    +0.000 A 
ATOM     22  N   UNL     1      46.165   6.235  11.221  0.00  0.00    +0.000 NA
BRANCH  20  23
ATOM     23  C   UNL     1      44.498   3.396   9.421  0.00  0.00    +0.000 C 
ATOM     24  N   UNL     1      44.136   4.088   8.299  0.00  0.00    +0.000 N 
ATOM     25  O   UNL     1      44.351   2.185   9.506  0.00  0.00    +0.000 OA
ATOM     26  H   UNL     1      44.256   5.094   8.256  0.00  0.00    +0.000 HD
ATOM     27  H   UNL     1      43.723   3.591   7.524  0.00  0.00    +0.000 HD
ENDBRANCH  20  23
ENDBRANCH  16  17
ENDBRANCH   2  15
TORSDOF 5
ENDMDL
MODEL 6
REMARK VINA RESULT:    -6.408      2.758      4.395
REMARK INTER + INTRA:          -9.130
REMARK INTER:                  -8.181
REMARK INTRA:                  -0.949
REMARK UNBOUND:                -0.849
REMARK  Name = 
REMARK  7 active torsions:
REMARK  status: ('A' for Active; 'I' for Inactive)
REMARK    1  A    between atoms: C_1  and  C_2
REMARK    2  A    between atoms: C_2  and  C_3
REMARK    3  A    between atoms: C_2  and  C_4
REMARK    4  A    between atoms: C_2  and  C_15
REMARK    5  A    between atoms: C_5  and  C_6
REMARK    6  A    between atoms: C_9  and  C_10
REMARK    7  A    between atoms: C_20  and  C_21
REMARK                            x       y       z     vdW  Elec       q    Type
REMARK                         _______ _______ _______ _____ _____    ______ ____
ROOT
ATOM      1  C   UNL     1      46.040   8.860  12.542  0.00  0.00    +0.000 C 
ATOM      2  C   UNL     1      46.918   7.591  12.668  0.00  0.00    +0.000 C 
ATOM      3  C   UNL     1      48.148   7.813  11.754  0.00  0.00    +0.000 C 
ENDROOT
BRANCH   2   4
ATOM      4  C   UNL     1      46.059   6.374  12.257  0.00  0.00    +0.000 A 
ATOM      5  C   UNL     1      45.236   5.753  13.210  0.00  0.00    +0.000 A 
ATOM      6  C   UNL     1      44.413   4.679  12.868  0.00  0.00    +0.000 A 
ATOM      7  C   UNL     1      44.385   4.189  11.560  0.00  0.00    +0.000 A 
ATOM      8 CL   UNL     1      43.317   2.869  11.258  0.00  0.00    +0.000 Cl
ATOM      9  C   UNL     1      45.192   4.769  10.578  0.00  0.00    +0.000 A 
ATOM     10  C   UNL     1      46.027   5.854  10.949  0.00  0.00    +0.000 A 
BRANCH   9  11
ATOM     11  C   UNL     1      45.226   4.337   9.134  0.00  0.00    +0.000 C 
ATOM     12  F   UNL     1      44.060   4.421   8.441  0.00  0.00    +0.000 F 
ATOM     13  F   UNL     1      46.126   5.070   8.414  0.00  0.00    +0.000 F 
ATOM     14  F   UNL     1      45.633   3.041   9.002  0.00  0.00    +0.000 F 
ENDBRANCH   9  11
ENDBRANCH   2   4
BRANCH   2  15
ATOM     15  C   UNL     1      47.472   7.377  14.080  0.00  0.00    +0.000 C 
ATOM     16  C   UNL     1      48.518   6.611  14.447  0.00  0.00    +0.000 C 
BRANCH  16  17
ATOM     17  C   UNL     1      48.968   6.441  15.838  0.00  0.00    +0.000 A 
ATOM     18  C   UNL     1      49.304   7.540  16.633  0.00  0.00    +0.000 A 
ATOM     19  N   UNL     1      49.750   7.434  17.913  0.00  0.00    +0.000 NA
ATOM     20  C   UNL     1      49.844   6.156  18.374  0.00  0.00    +0.000 A 
ATOM     21  C   UNL     1      49.505   5.058  17.598  0.00  0.00    +0.000 A 
ATOM     22  N   UNL     1      49.062   5.177  16.320  0.00  0.00    +0.000 NA
BRANCH  20  23
ATOM     23  C   UNL     1      50.347   5.947  19.761  0.00  0.00    +0.000 C 
ATOM     24  N   UNL     1      50.255   4.672  20.246  0.00  0.00    +0.000 N 
ATOM     25  O   UNL     1      50.807   6.860  20.432  0.00  0.00    +0.000 OA
ATOM     26  H   UNL     1      49.858   3.934  19.676  0.00  0.00    +0.000 HD
ATOM     27  H   UNL     1      50.562   4.479  21.188  0.00  0.00    +0.000 HD
ENDBRANCH  20  23
ENDBRANCH  16  17
ENDBRANCH   2  15
TORSDOF 5
ENDMDL
MODEL 7
REMARK VINA RESULT:    -6.292      3.438      4.926
REMARK INTER + INTRA:          -8.980
REMARK INTER:                  -7.991
REMARK INTRA:                  -0.989
REMARK UNBOUND:                -0.849
REMARK  Name = 
REMARK  7 active torsions:
REMARK  status: ('A' for Active; 'I' for Inactive)
REMARK    1  A    between atoms: C_1  and  C_2
REMARK    2  A    between atoms: C_2  and  C_3
REMARK    3  A    between atoms: C_2  and  C_4
REMARK    4  A    between atoms: C_2  and  C_15
REMARK    5  A    between atoms: C_5  and  C_6
REMARK    6  A    between atoms: C_9  and  C_10
REMARK    7  A    between atoms: C_20  and  C_21
REMARK                            x       y       z     vdW  Elec       q    Type
REMARK                         _______ _______ _______ _____ _____    ______ ____
ROOT
ATOM      1  C   UNL     1      46.219   9.361  12.611  0.00  0.00    +0.000 C 
ATOM      2  C   UNL     1      47.044   8.053  12.533  0.00  0.00    +0.000 C 
ATOM      3  C   UNL     1      48.363   8.407  11.805  0.00  0.00    +0.000 C 
ENDROOT
BRANCH   2   4
ATOM      4  C   UNL     1      46.196   6.997  11.789  0.00  0.00    +0.000 A 
ATOM      5  C   UNL     1      46.649   6.482  10.564  0.00  0.00    +0.000 A 
ATOM      6  C   UNL     1      45.932   5.496   9.882  0.00  0.00    +0.000 A 
ATOM      7  C   UNL     1      44.738   4.993  10.403  0.00  0.00    +0.000 A 
ATOM      8 CL   UNL     1      43.953   3.768   9.477  0.00  0.00    +0.000 Cl
ATOM      9  C   UNL     1      44.243   5.480  11.615  0.00  0.00    +0.000 A 
ATOM     10  C   UNL     1      44.982   6.487  12.287  0.00  0.00    +0.000 A 
BRANCH   9  11
ATOM     11  C   UNL     1      42.978   4.995  12.279  0.00  0.00    +0.000 C 
ATOM     12  F   UNL     1      41.807   5.299  11.663  0.00  0.00    +0.000 F 
ATOM     13  F   UNL     1      42.974   3.635  12.411  0.00  0.00    +0.000 F 
ATOM     14  F   UNL     1      42.856   5.478  13.550  0.00  0.00    +0.000 F 
ENDBRANCH   9  11
ENDBRANCH   2   4
BRANCH   2  15
ATOM     15  C   UNL     1      47.450   7.511  13.907  0.00  0.00    +0.000 C 
ATOM     16  C   UNL     1      47.916   6.282  14.203  0.00  0.00    +0.000 C 
BRANCH  16  17
ATOM     17  C   UNL     1      48.258   5.835  15.563  0.00  0.00    +0.000 A 
ATOM     18  C   UNL     1      48.896   6.687  16.469  0.00  0.00    +0.000 A 
ATOM     19  N   UNL     1      49.257   6.313  17.726  0.00  0.00    +0.000 NA
ATOM     20  C   UNL     1      48.943   5.027  18.044  0.00  0.00    +0.000 A 
ATOM     21  C   UNL     1      48.303   4.174  17.157  0.00  0.00    +0.000 A 
ATOM     22  N   UNL     1      47.949   4.559  15.904  0.00  0.00    +0.000 NA
BRANCH  20  23
ATOM     23  C   UNL     1      49.324   4.527  19.395  0.00  0.00    +0.000 C 
ATOM     24  N   UNL     1      48.498   3.583  19.940  0.00  0.00    +0.000 N 
ATOM     25  O   UNL     1      50.311   4.940  19.989  0.00  0.00    +0.000 OA
ATOM     26  H   UNL     1      47.679   3.265  19.435  0.00  0.00    +0.000 HD
ATOM     27  H   UNL     1      48.699   3.225  20.863  0.00  0.00    +0.000 HD
ENDBRANCH  20  23
ENDBRANCH  16  17
ENDBRANCH   2  15
TORSDOF 5
ENDMDL
MODEL 8
REMARK VINA RESULT:    -6.145      5.843      9.104
REMARK INTER + INTRA:          -8.790
REMARK INTER:                  -7.933
REMARK INTRA:                  -0.857
REMARK UNBOUND:                -0.849
REMARK  Name = 
REMARK  7 active torsions:
REMARK  status: ('A' for Active; 'I' for Inactive)
REMARK    1  A    between atoms: C_1  and  C_2
REMARK    2  A    between atoms: C_2  and  C_3
REMARK    3  A    between atoms: C_2  and  C_4
REMARK    4  A    between atoms: C_2  and  C_15
REMARK    5  A    between atoms: C_5  and  C_6
REMARK    6  A    between atoms: C_9  and  C_10
REMARK    7  A    between atoms: C_20  and  C_21
REMARK                            x       y       z     vdW  Elec       q    Type
REMARK                         _______ _______ _______ _____ _____    ______ ____
ROOT
ATOM      1  C   UNL     1      47.970   5.847  18.561  0.00  0.00    +0.000 C 
ATOM      2  C   UNL     1      48.418   4.761  17.553  0.00  0.00    +0.000 C 
ATOM      3  C   UNL     1      47.852   3.417  18.072  0.00  0.00    +0.000 C 
ENDROOT
BRANCH   2   4
ATOM      4  C   UNL     1      49.962   4.790  17.476  0.00  0.00    +0.000 A 
ATOM      5  C   UNL     1      50.614   5.968  17.081  0.00  0.00    +0.000 A 
ATOM      6  C   UNL     1      52.008   6.047  17.041  0.00  0.00    +0.000 A 
ATOM      7  C   UNL     1      52.795   4.949  17.394  0.00  0.00    +0.000 A 
ATOM      8 CL   UNL     1      54.503   5.174  17.318  0.00  0.00    +0.000 Cl
ATOM      9  C   UNL     1      52.191   3.752  17.786  0.00  0.00    +0.000 A 
ATOM     10  C   UNL     1      50.774   3.691  17.812  0.00  0.00    +0.000 A 
BRANCH   9  11
ATOM     11  C   UNL     1      52.942   2.514  18.208  0.00  0.00    +0.000 C 
ATOM     12  F   UNL     1      54.044   2.189  17.485  0.00  0.00    +0.000 F 
ATOM     13  F   UNL     1      53.375   2.608  19.501  0.00  0.00    +0.000 F 
ATOM     14  F   UNL     1      52.148   1.404  18.177  0.00  0.00    +0.000 F 
ENDBRANCH   9  11
ENDBRANCH   2   4
BRANCH   2  15
ATOM     15  C   UNL     1      47.830   4.957  16.152  0.00  0.00    +0.000 C 
ATOM     16  C   UNL     1      47.122   4.070  15.426  0.00  0.00    +0.000 C 
BRANCH  16  17
ATOM     17  C   UNL     1      46.614   4.334  14.069  0.00  0.00    +0.000 A 
ATOM     18  C   UNL     1      46.703   5.605  13.494  0.00  0.00    +0.000 A 
ATOM     19  N   UNL     1      46.226   5.905  12.257  0.00  0.00    +0.000 NA
ATOM     20  C   UNL     1      45.646   4.859  11.606  0.00  0.00    +0.000 A 
ATOM     21  C   UNL     1      45.559   3.591  12.162  0.00  0.00    +0.000 A 
ATOM     22  N   UNL     1      46.039   3.304  13.400  0.00  0.00    +0.000 NA
BRANCH  20  23
ATOM     23  C   UNL     1      45.075   5.106  10.252  0.00  0.00    +0.000 C 
ATOM     24  N   UNL     1      43.715   5.240  10.191  0.00  0.00    +0.000 N 
ATOM     25  O   UNL     1      45.774   5.176   9.252  0.00  0.00    +0.000 OA
ATOM     26  H   UNL     1      43.154   5.167  11.032  0.00  0.00    +0.000 HD
ATOM     27  H   UNL     1      43.274   5.388   9.295  0.00  0.00    +0.000 HD
ENDBRANCH  20  23
ENDBRANCH  16  17
ENDBRANCH   2  15
TORSDOF 5
ENDMDL
MODEL 9
REMARK VINA RESULT:    -6.088      6.226      9.317
REMARK INTER + INTRA:          -8.717
REMARK INTER:                  -7.684
REMARK INTRA:                  -1.033
REMARK UNBOUND:                -0.849
REMARK  Name = 
REMARK  7 active torsions:
REMARK  status: ('A' for Active; 'I' for Inactive)
REMARK    1  A    between atoms: C_1  and  C_2
REMARK    2  A    between atoms: C_2  and  C_3
REMARK    3  A    between atoms: C_2  and  C_4
REMARK    4  A    between atoms: C_2  and  C_15
REMARK    5  A    between atoms: C_5  and  C_6
REMARK    6  A    between atoms: C_9  and  C_10
REMARK    7  A    between atoms: C_20  and  C_21
REMARK                            x       y       z     vdW  Elec       q    Type
REMARK                         _______ _______ _______ _____ _____    ______ ____
ROOT
ATOM      1  C   UNL     1      50.549   7.762  14.300  0.00  0.00    +0.000 C 
ATOM      2  C   UNL     1      49.033   8.061  14.404  0.00  0.00    +0.000 C 
ATOM      3  C   UNL     1      48.781   9.350  13.585  0.00  0.00    +0.000 C 
ENDROOT
BRANCH   2   4
ATOM      4  C   UNL     1      48.677   8.203  15.901  0.00  0.00    +0.000 A 
ATOM      5  C   UNL     1      48.286   9.454  16.404  0.00  0.00    +0.000 A 
ATOM      6  C   UNL     1      47.915   9.615  17.741  0.00  0.00    +0.000 A 
ATOM      7  C   UNL     1      47.923   8.529  18.619  0.00  0.00    +0.000 A 
ATOM      8 CL   UNL     1      47.429   8.850  20.240  0.00  0.00    +0.000 Cl
ATOM      9  C   UNL     1      48.311   7.266  18.167  0.00  0.00    +0.000 A 
ATOM     10  C   UNL     1      48.692   7.126  16.807  0.00  0.00    +0.000 A 
BRANCH   9  11
ATOM     11  C   UNL     1      48.336   6.022  19.020  0.00  0.00    +0.000 C 
ATOM     12  F   UNL     1      47.163   5.652  19.597  0.00  0.00    +0.000 F 
ATOM     13  F   UNL     1      48.744   4.933  18.303  0.00  0.00    +0.000 F 
ATOM     14  F   UNL     1      49.227   6.129  20.047  0.00  0.00    +0.000 F 
ENDBRANCH   9  11
ENDBRANCH   2   4
BRANCH   2  15
ATOM     15  C   UNL     1      48.159   6.976  13.768  0.00  0.00    +0.000 C 
ATOM     16  C   UNL     1      46.901   7.101  13.301  0.00  0.00    +0.000 C 
BRANCH  16  17
ATOM     17  C   UNL     1      46.121   5.994  12.726  0.00  0.00    +0.000 A 
ATOM     18  C   UNL     1      45.573   4.995  13.535  0.00  0.00    +0.000 A 
ATOM     19  N   UNL     1      44.867   3.937  13.051  0.00  0.00    +0.000 NA
ATOM     20  C   UNL     1      44.728   3.925  11.697  0.00  0.00    +0.000 A 
ATOM     21  C   UNL     1      45.259   4.915  10.883  0.00  0.00    +0.000 A 
ATOM     22  N   UNL     1      45.963   5.965  11.380  0.00  0.00    +0.000 NA
BRANCH  20  23
ATOM     23  C   UNL     1      43.989   2.788  11.079  0.00  0.00    +0.000 C 
ATOM     24  N   UNL     1      44.518   2.286   9.922  0.00  0.00    +0.000 N 
ATOM     25  O   UNL     1      42.964   2.334  11.569  0.00  0.00    +0.000 OA
ATOM     26  H   UNL     1      45.362   2.687   9.528  0.00  0.00    +0.000 HD
ATOM     27  H   UNL     1      44.045   1.529   9.451  0.00  0.00    +0.000 HD
ENDBRANCH  20  23
ENDBRANCH  16  17
ENDBRANCH   2  15
TORSDOF 5
ENDMDL
