MODEL 1
REMARK VINA RESULT:    -8.791      0.000      0.000
REMARK INTER + INTRA:         -12.401
REMARK INTER:                 -11.361
REMARK INTRA:                  -1.040
REMARK UNBOUND:                -1.040
REMARK  Name = 
REMARK  5 active torsions:
REMARK  status: ('A' for Active; 'I' for Inactive)
REMARK    1  A    between atoms: C_2  and  C_4
REMARK    2  A    between atoms: C_7  and  N_8
REMARK    3  A    between atoms: N_8  and  C_9
REMARK    4  A    between atoms: C_9  and  C_10
REMARK    5  A    between atoms: C_14  and  C_15
REMARK                            x       y       z     vdW  Elec       q    Type
REMARK                         _______ _______ _______ _____ _____    ______ ____
ROOT
ATOM      1  C   UNL     1      43.704   4.613  11.449  0.00  0.00    +0.000 C 
ENDROOT
BRANCH   1   2
ATOM      2  C   UNL     1      45.021   4.909  12.120  0.00  0.00    +0.000 A 
ATOM      3  C   UNL     1      45.593   3.989  13.000  0.00  0.00    +0.000 A 
ATOM      4  C   UNL     1      46.837   4.271  13.531  0.00  0.00    +0.000 A 
ATOM      5  N   UNL     1      47.535   5.392  13.254  0.00  0.00    +0.000 NA
ATOM      6  C   UNL     1      46.981   6.301  12.412  0.00  0.00    +0.000 A 
ATOM      7  C   UNL     1      45.733   6.079  11.826  0.00  0.00    +0.000 A 
BRANCH   6   8
ATOM      8  C   UNL     1      47.786   7.513  12.156  0.00  0.00    +0.000 A 
ATOM      9  C   UNL     1      49.176   7.421  11.931  0.00  0.00    +0.000 A 
ATOM     10  C   UNL     1      49.958   8.556  11.682  0.00  0.00    +0.000 A 
ATOM     11  C   UNL     1      49.365   9.813  11.663  0.00  0.00    +0.000 A 
ATOM     12  C   UNL     1      48.000   9.923  11.894  0.00  0.00    +0.000 A 
ATOM     13  F   UNL     1      47.427  11.134  11.886  0.00  0.00    +0.000 F 
ATOM     14  C   UNL     1      47.217   8.798  12.139  0.00  0.00    +0.000 A 
ENDBRANCH   6   8
ENDBRANCH   1   2
BRANCH   1  15
ATOM     15  N   UNL     1      43.800   4.802  10.010  0.00  0.00    +0.000 N 
ATOM     16  H   UNL     1      42.914   5.026   9.561  0.00  0.00    +0.000 HD
BRANCH  15  20
ATOM     17  C   UNL     1      46.342   2.271   7.776  0.00  0.00    +0.000 A 
ATOM     18  C   UNL     1      45.439   1.712   8.682  0.00  0.00    +0.000 A 
ATOM     19  C   UNL     1      44.582   2.538   9.417  0.00  0.00    +0.000 A 
ATOM     20  C   UNL     1      44.580   3.930   9.246  0.00  0.00    +0.000 A 
ATOM     21  C   UNL     1      45.511   4.474   8.350  0.00  0.00    +0.000 A 
ATOM     22  C   UNL     1      46.388   3.658   7.624  0.00  0.00    +0.000 A 
BRANCH  17  24
ATOM     23  N   UNL     1      48.399   2.042   6.496  0.00  0.00    +0.000 N 
ATOM     24  C   UNL     1      47.286   1.428   6.999  0.00  0.00    +0.000 C 
ATOM     25  O   UNL     1      47.098   0.229   6.837  0.00  0.00    +0.000 OA
ATOM     26  H   UNL     1      49.085   1.438   6.060  0.00  0.00    +0.000 HD
ATOM     27  H   UNL     1      48.708   2.948   6.816  0.00  0.00    +0.000 HD
ENDBRANCH  17  24
ENDBRANCH  15  20
ENDBRANCH   1  15
TORSDOF 5
ENDMDL
MODEL 2
REMARK VINA RESULT:    -8.695      0.915      1.658
REMARK INTER + INTRA:         -12.277
REMARK INTER:                 -11.298
REMARK INTRA:                  -0.979
REMARK UNBOUND:                -1.040
REMARK  Name = 
REMARK  5 active torsions:
REMARK  status: ('A' for Active; 'I' for Inactive)
REMARK    1  A    between atoms: C_2  and  C_4
REMARK    2  A    between atoms: C_7  and  N_8
REMARK    3  A    between atoms: N_8  and  C_9
REMARK    4  A    between atoms: C_9  and  C_10
REMARK    5  A    between atoms: C_14  and  C_15
REMARK                            x       y       z     vdW  Elec       q    Type
REMARK                         _______ _______ _______ _____ _____    ______ ____
ROOT
ATOM      1  C   UNL     1      43.572   4.735  11.313  0.00  0.00    +0.000 C 
ENDROOT
BRANCH   1   2
ATOM      2  C   UNL     1      44.859   5.071  12.022  0.00  0.00    +0.000 A 
ATOM      3  C   UNL     1      45.420   4.181  12.937  0.00  0.00    +0.000 A 
ATOM      4  C   UNL     1      46.640   4.498  13.503  0.00  0.00    +0.000 A 
ATOM      5  N   UNL     1      47.324   5.629  13.228  0.00  0.00    +0.000 NA
ATOM      6  C   UNL     1      46.779   6.510  12.350  0.00  0.00    +0.000 A 
ATOM      7  C   UNL     1      45.556   6.251  11.728  0.00  0.00    +0.000 A 
BRANCH   6   8
ATOM      8  C   UNL     1      47.568   7.734  12.097  0.00  0.00    +0.000 A 
ATOM      9  C   UNL     1      46.986   9.010  12.248  0.00  0.00    +0.000 A 
ATOM     10  C   UNL     1      47.717  10.183  12.018  0.00  0.00    +0.000 A 
ATOM     11  C   UNL     1      49.047  10.102  11.621  0.00  0.00    +0.000 A 
ATOM     12  C   UNL     1      49.631   8.854  11.457  0.00  0.00    +0.000 A 
ATOM     13  F   UNL     1      50.910   8.772  11.065  0.00  0.00    +0.000 F 
ATOM     14  C   UNL     1      48.911   7.684  11.687  0.00  0.00    +0.000 A 
ENDBRANCH   6   8
ENDBRANCH   1   2
BRANCH   1  15
ATOM     15  N   UNL     1      43.728   4.842   9.871  0.00  0.00    +0.000 N 
ATOM     16  H   UNL     1      42.848   4.906   9.362  0.00  0.00    +0.000 HD
BRANCH  15  20
ATOM     17  C   UNL     1      46.402   2.317   7.790  0.00  0.00    +0.000 A 
ATOM     18  C   UNL     1      46.483   3.699   7.613  0.00  0.00    +0.000 A 
ATOM     19  C   UNL     1      45.613   4.546   8.308  0.00  0.00    +0.000 A 
ATOM     20  C   UNL     1      44.668   4.045   9.214  0.00  0.00    +0.000 A 
ATOM     21  C   UNL     1      44.586   2.653   9.360  0.00  0.00    +0.000 A 
ATOM     22  C   UNL     1      45.438   1.793   8.655  0.00  0.00    +0.000 A 
BRANCH  17  24
ATOM     23  N   UNL     1      48.370   1.929   6.412  0.00  0.00    +0.000 N 
ATOM     24  C   UNL     1      47.291   1.385   7.050  0.00  0.00    +0.000 C 
ATOM     25  O   UNL     1      47.090   0.177   7.034  0.00  0.00    +0.000 OA
ATOM     26  H   UNL     1      49.024   1.274   6.001  0.00  0.00    +0.000 HD
ATOM     27  H   UNL     1      48.702   2.862   6.610  0.00  0.00    +0.000 HD
ENDBRANCH  17  24
ENDBRANCH  15  20
ENDBRANCH   1  15
TORSDOF 5
ENDMDL
MODEL 3
REMARK VINA RESULT:    -8.646      2.733      3.901
REMARK INTER + INTRA:         -12.213
REMARK INTER:                 -11.458
REMARK INTRA:                  -0.756
REMARK UNBOUND:                -1.040
REMARK  Name = 
REMARK  5 active torsions:
REMARK  status: ('A' for Active; 'I' for Inactive)
REMARK    1  A    between atoms: C_2  and  C_4
REMARK    2  A    between atoms: C_7  and  N_8
REMARK    3  A    between atoms: N_8  and  C_9
REMARK    4  A    between atoms: C_9  and  C_10
REMARK    5  A    between atoms: C_14  and  C_15
REMARK                            x       y       z     vdW  Elec       q    Type
REMARK                         _______ _______ _______ _____ _____    ______ ____
ROOT
ATOM      1  C   UNL     1      43.883   4.803  11.469  0.00  0.00    +0.000 C 
ENDROOT
BRANCH   1   2
ATOM      2  C   UNL     1      45.182   5.354  11.998  0.00  0.00    +0.000 A 
ATOM      3  C   UNL     1      45.870   6.347  11.299  0.00  0.00    +0.000 A 
ATOM      4  C   UNL     1      47.016   6.875  11.861  0.00  0.00    +0.000 A 
ATOM      5  N   UNL     1      47.518   6.483  13.051  0.00  0.00    +0.000 NA
ATOM      6  C   UNL     1      46.865   5.506  13.732  0.00  0.00    +0.000 A 
ATOM      7  C   UNL     1      45.693   4.934  13.233  0.00  0.00    +0.000 A 
BRANCH   6   8
ATOM      8  C   UNL     1      47.468   5.111  15.022  0.00  0.00    +0.000 A 
ATOM      9  C   UNL     1      48.467   5.905  15.625  0.00  0.00    +0.000 A 
ATOM     10  C   UNL     1      49.048   5.552  16.849  0.00  0.00    +0.000 A 
ATOM     11  C   UNL     1      48.648   4.386  17.493  0.00  0.00    +0.000 A 
ATOM     12  C   UNL     1      47.675   3.588  16.909  0.00  0.00    +0.000 A 
ATOM     13  F   UNL     1      47.294   2.459  17.522  0.00  0.00    +0.000 F 
ATOM     14  C   UNL     1      47.090   3.936  15.693  0.00  0.00    +0.000 A 
ENDBRANCH   6   8
ENDBRANCH   1   2
BRANCH   1  15
ATOM     15  N   UNL     1      43.850   4.850  10.016  0.00  0.00    +0.000 N 
ATOM     16  H   UNL     1      42.920   4.992   9.626  0.00  0.00    +0.000 HD
BRANCH  15  20
ATOM     17  C   UNL     1      46.322   2.200   7.842  0.00  0.00    +0.000 A 
ATOM     18  C   UNL     1      45.439   1.690   8.795  0.00  0.00    +0.000 A 
ATOM     19  C   UNL     1      44.605   2.556   9.510  0.00  0.00    +0.000 A 
ATOM     20  C   UNL     1      44.606   3.938   9.275  0.00  0.00    +0.000 A 
ATOM     21  C   UNL     1      45.517   4.434   8.331  0.00  0.00    +0.000 A 
ATOM     22  C   UNL     1      46.372   3.578   7.623  0.00  0.00    +0.000 A 
BRANCH  17  24
ATOM     23  N   UNL     1      48.340   1.899   6.514  0.00  0.00    +0.000 N 
ATOM     24  C   UNL     1      47.241   1.315   7.082  0.00  0.00    +0.000 C 
ATOM     25  O   UNL     1      47.048   0.110   6.989  0.00  0.00    +0.000 OA
ATOM     26  H   UNL     1      49.011   1.272   6.090  0.00  0.00    +0.000 HD
ATOM     27  H   UNL     1      48.659   2.820   6.776  0.00  0.00    +0.000 HD
ENDBRANCH  17  24
ENDBRANCH  15  20
ENDBRANCH   1  15
TORSDOF 5
ENDMDL
MODEL 4
REMARK VINA RESULT:    -8.181      3.876      6.965
REMARK INTER + INTRA:         -11.612
REMARK INTER:                 -10.692
REMARK INTRA:                  -0.920
REMARK UNBOUND:                -1.040
REMARK  Name = 
REMARK  5 active torsions:
REMARK  status: ('A' for Active; 'I' for Inactive)
REMARK    1  A    between atoms: C_2  and  C_4
REMARK    2  A    between atoms: C_7  and  N_8
REMARK    3  A    between atoms: N_8  and  C_9
REMARK    4  A    between atoms: C_9  and  C_10
REMARK    5  A    between atoms: C_14  and  C_15
REMARK                            x       y       z     vdW  Elec       q    Type
REMARK                         _______ _______ _______ _____ _____    ______ ____
ROOT
ATOM      1  C   UNL     1      43.469   6.441  11.370  0.00  0.00    +0.000 C 
ENDROOT
BRANCH   1   2
ATOM      2  C   UNL     1      43.716   4.986  11.065  0.00  0.00    +0.000 A 
ATOM      3  C   UNL     1      43.095   3.987  11.814  0.00  0.00    +0.000 A 
ATOM      4  C   UNL     1      43.293   2.669  11.448  0.00  0.00    +0.000 A 
ATOM      5  N   UNL     1      44.060   2.286  10.406  0.00  0.00    +0.000 NA
ATOM      6  C   UNL     1      44.682   3.251   9.680  0.00  0.00    +0.000 A 
ATOM      7  C   UNL     1      44.519   4.604   9.982  0.00  0.00    +0.000 A 
BRANCH   6   8
ATOM      8  C   UNL     1      45.518   2.770   8.559  0.00  0.00    +0.000 A 
ATOM      9  C   UNL     1      45.933   3.653   7.540  0.00  0.00    +0.000 A 
ATOM     10  C   UNL     1      46.729   3.221   6.471  0.00  0.00    +0.000 A 
ATOM     11  C   UNL     1      47.119   1.888   6.395  0.00  0.00    +0.000 A 
ATOM     12  C   UNL     1      46.709   1.004   7.384  0.00  0.00    +0.000 A 
ATOM     13  F   UNL     1      47.074  -0.283   7.308  0.00  0.00    +0.000 F 
ATOM     14  C   UNL     1      45.920   1.429   8.451  0.00  0.00    +0.000 A 
ENDBRANCH   6   8
ENDBRANCH   1   2
BRANCH   1  15
ATOM     15  N   UNL     1      44.179   6.849  12.572  0.00  0.00    +0.000 N 
ATOM     16  H   UNL     1      43.703   7.571  13.110  0.00  0.00    +0.000 HD
BRANCH  15  20
ATOM     17  C   UNL     1      48.339   7.591  12.593  0.00  0.00    +0.000 A 
ATOM     18  C   UNL     1      47.866   6.318  12.916  0.00  0.00    +0.000 A 
ATOM     19  C   UNL     1      46.492   6.056  12.898  0.00  0.00    +0.000 A 
ATOM     20  C   UNL     1      45.562   7.039  12.530  0.00  0.00    +0.000 A 
ATOM     21  C   UNL     1      46.054   8.318  12.234  0.00  0.00    +0.000 A 
ATOM     22  C   UNL     1      47.427   8.598  12.268  0.00  0.00    +0.000 A 
BRANCH  17  24
ATOM     23  N   UNL     1      50.589   7.275  11.721  0.00  0.00    +0.000 N 
ATOM     24  C   UNL     1      49.788   7.914  12.627  0.00  0.00    +0.000 C 
ATOM     25  O   UNL     1      50.249   8.738  13.406  0.00  0.00    +0.000 OA
ATOM     26  H   UNL     1      51.554   7.579  11.684  0.00  0.00    +0.000 HD
ATOM     27  H   UNL     1      50.218   6.793  10.916  0.00  0.00    +0.000 HD
ENDBRANCH  17  24
ENDBRANCH  15  20
ENDBRANCH   1  15
TORSDOF 5
ENDMDL
MODEL 5
REMARK VINA RESULT:    -8.108      1.754      2.349
REMARK INTER + INTRA:         -11.518
REMARK INTER:                 -10.590
REMARK INTRA:                  -0.928
REMARK UNBOUND:                -1.040
REMARK  Name = 
REMARK  5 active torsions:
REMARK  status: ('A' for Active; 'I' for Inactive)
REMARK    1  A    between atoms: C_2  and  C_4
REMARK    2  A    between atoms: C_7  and  N_8
REMARK    3  A    between atoms: N_8  and  C_9
REMARK    4  A    between atoms: C_9  and  C_10
REMARK    5  A    between atoms: C_14  and  C_15
REMARK                            x       y       z     vdW  Elec       q    Type
REMARK                         _______ _______ _______ _____ _____    ______ ____
ROOT
ATOM      1  C   UNL     1      44.000   3.753  11.930  0.00  0.00    +0.000 C 
ENDROOT
BRANCH   1   2
ATOM      2  C   UNL     1      44.937   4.834  12.404  0.00  0.00    +0.000 A 
ATOM      3  C   UNL     1      46.025   4.525  13.220  0.00  0.00    +0.000 A 
ATOM      4  C   UNL     1      46.899   5.538  13.565  0.00  0.00    +0.000 A 
ATOM      5  N   UNL     1      46.760   6.820  13.164  0.00  0.00    +0.000 NA
ATOM      6  C   UNL     1      45.695   7.134  12.383  0.00  0.00    +0.000 A 
ATOM      7  C   UNL     1      44.777   6.161  11.982  0.00  0.00    +0.000 A 
BRANCH   6   8
ATOM      8  C   UNL     1      45.589   8.554  11.985  0.00  0.00    +0.000 A 
ATOM      9  C   UNL     1      46.643   9.455  12.242  0.00  0.00    +0.000 A 
ATOM     10  C   UNL     1      46.566  10.803  11.870  0.00  0.00    +0.000 A 
ATOM     11  C   UNL     1      45.423  11.281  11.239  0.00  0.00    +0.000 A 
ATOM     12  C   UNL     1      44.372  10.410  10.988  0.00  0.00    +0.000 A 
ATOM     13  F   UNL     1      43.265  10.870  10.389  0.00  0.00    +0.000 F 
ATOM     14  C   UNL     1      44.444   9.068  11.354  0.00  0.00    +0.000 A 
ENDBRANCH   6   8
ENDBRANCH   1   2
BRANCH   1  15
ATOM     15  N   UNL     1      43.725   3.889  10.508  0.00  0.00    +0.000 N 
ATOM     16  H   UNL     1      42.796   3.574  10.234  0.00  0.00    +0.000 HD
BRANCH  15  20
ATOM     17  C   UNL     1      46.536   2.704   7.584  0.00  0.00    +0.000 A 
ATOM     18  C   UNL     1      46.260   4.061   7.762  0.00  0.00    +0.000 A 
ATOM     19  C   UNL     1      45.343   4.466   8.737  0.00  0.00    +0.000 A 
ATOM     20  C   UNL     1      44.704   3.541   9.575  0.00  0.00    +0.000 A 
ATOM     21  C   UNL     1      44.976   2.182   9.364  0.00  0.00    +0.000 A 
ATOM     22  C   UNL     1      45.878   1.762   8.377  0.00  0.00    +0.000 A 
BRANCH  17  24
ATOM     23  N   UNL     1      47.670   3.047   5.458  0.00  0.00    +0.000 N 
ATOM     24  C   UNL     1      47.484   2.234   6.542  0.00  0.00    +0.000 C 
ATOM     25  O   UNL     1      48.099   1.182   6.655  0.00  0.00    +0.000 OA
ATOM     26  H   UNL     1      48.394   2.767   4.808  0.00  0.00    +0.000 HD
ATOM     27  H   UNL     1      47.383   4.015   5.452  0.00  0.00    +0.000 HD
ENDBRANCH  17  24
ENDBRANCH  15  20
ENDBRANCH   1  15
TORSDOF 5
ENDMDL
MODEL 6
REMARK VINA RESULT:    -7.742      1.903      2.322
REMARK INTER + INTRA:         -11.045
REMARK INTER:                 -10.264
REMARK INTRA:                  -0.782
REMARK UNBOUND:                -1.040
REMARK  Name = 
REMARK  5 active torsions:
REMARK  status: ('A' for Active; 'I' for Inactive)
REMARK    1  A    between atoms: C_2  and  C_4
REMARK    2  A    between atoms: C_7  and  N_8
REMARK    3  A    between atoms: N_8  and  C_9
REMARK    4  A    between atoms: C_9  and  C_10
REMARK    5  A    between atoms: C_14  and  C_15
REMARK                            x       y       z     vdW  Elec       q    Type
REMARK                         _______ _______ _______ _____ _____    ______ ____
ROOT
ATOM      1  C   UNL     1      44.358   3.717  11.808  0.00  0.00    +0.000 C 
ENDROOT
BRANCH   1   2
ATOM      2  C   UNL     1      44.817   5.153  11.797  0.00  0.00    +0.000 A 
ATOM      3  C   UNL     1      43.927   6.182  11.487  0.00  0.00    +0.000 A 
ATOM      4  C   UNL     1      44.375   7.487  11.565  0.00  0.00    +0.000 A 
ATOM      5  N   UNL     1      45.632   7.829  11.919  0.00  0.00    +0.000 NA
ATOM      6  C   UNL     1      46.510   6.835  12.207  0.00  0.00    +0.000 A 
ATOM      7  C   UNL     1      46.126   5.493  12.163  0.00  0.00    +0.000 A 
BRANCH   6   8
ATOM      8  C   UNL     1      47.873   7.271  12.576  0.00  0.00    +0.000 A 
ATOM      9  C   UNL     1      48.648   8.045  11.687  0.00  0.00    +0.000 A 
ATOM     10  C   UNL     1      49.940   8.473  12.019  0.00  0.00    +0.000 A 
ATOM     11  C   UNL     1      50.489   8.125  13.248  0.00  0.00    +0.000 A 
ATOM     12  C   UNL     1      49.744   7.354  14.129  0.00  0.00    +0.000 A 
ATOM     13  F   UNL     1      50.275   7.008  15.310  0.00  0.00    +0.000 F 
ATOM     14  C   UNL     1      48.458   6.928  13.807  0.00  0.00    +0.000 A 
ENDBRANCH   6   8
ENDBRANCH   1   2
BRANCH   1  15
ATOM     15  N   UNL     1      43.788   3.343  10.523  0.00  0.00    +0.000 N 
ATOM     16  H   UNL     1      43.027   2.670  10.587  0.00  0.00    +0.000 HD
BRANCH  15  20
ATOM     17  C   UNL     1      46.477   2.745   7.318  0.00  0.00    +0.000 A 
ATOM     18  C   UNL     1      46.124   1.666   8.130  0.00  0.00    +0.000 A 
ATOM     19  C   UNL     1      45.224   1.848   9.185  0.00  0.00    +0.000 A 
ATOM     20  C   UNL     1      44.631   3.093   9.437  0.00  0.00    +0.000 A 
ATOM     21  C   UNL     1      45.017   4.170   8.627  0.00  0.00    +0.000 A 
ATOM     22  C   UNL     1      45.933   4.005   7.580  0.00  0.00    +0.000 A 
BRANCH  17  24
ATOM     23  N   UNL     1      48.698   2.139   6.528  0.00  0.00    +0.000 N 
ATOM     24  C   UNL     1      47.450   2.596   6.206  0.00  0.00    +0.000 C 
ATOM     25  O   UNL     1      47.147   2.840   5.045  0.00  0.00    +0.000 OA
ATOM     26  H   UNL     1      49.316   1.943   5.751  0.00  0.00    +0.000 HD
ATOM     27  H   UNL     1      48.900   1.697   7.413  0.00  0.00    +0.000 HD
ENDBRANCH  17  24
ENDBRANCH  15  20
ENDBRANCH   1  15
TORSDOF 5
ENDMDL
MODEL 7
REMARK VINA RESULT:    -7.435      2.416      2.925
REMARK INTER + INTRA:         -10.648
REMARK INTER:                 -10.078
REMARK INTRA:                  -0.570
REMARK UNBOUND:                -1.040
REMARK  Name = 
REMARK  5 active torsions:
REMARK  status: ('A' for Active; 'I' for Inactive)
REMARK    1  A    between atoms: C_2  and  C_4
REMARK    2  A    between atoms: C_7  and  N_8
REMARK    3  A    between atoms: N_8  and  C_9
REMARK    4  A    between atoms: C_9  and  C_10
REMARK    5  A    between atoms: C_14  and  C_15
REMARK                            x       y       z     vdW  Elec       q    Type
REMARK                         _______ _______ _______ _____ _____    ______ ____
ROOT
ATOM      1  C   UNL     1      44.369   5.675  10.971  0.00  0.00    +0.000 C 
ENDROOT
BRANCH   1   2
ATOM      2  C   UNL     1      45.263   5.069  12.021  0.00  0.00    +0.000 A 
ATOM      3  C   UNL     1      45.225   3.699  12.284  0.00  0.00    +0.000 A 
ATOM      4  C   UNL     1      46.117   3.177  13.200  0.00  0.00    +0.000 A 
ATOM      5  N   UNL     1      47.027   3.918  13.867  0.00  0.00    +0.000 NA
ATOM      6  C   UNL     1      47.063   5.255  13.631  0.00  0.00    +0.000 A 
ATOM      7  C   UNL     1      46.201   5.851  12.709  0.00  0.00    +0.000 A 
BRANCH   6   8
ATOM      8  C   UNL     1      48.071   6.015  14.399  0.00  0.00    +0.000 A 
ATOM      9  C   UNL     1      48.813   7.049  13.789  0.00  0.00    +0.000 A 
ATOM     10  C   UNL     1      49.770   7.785  14.499  0.00  0.00    +0.000 A 
ATOM     11  C   UNL     1      50.013   7.493  15.837  0.00  0.00    +0.000 A 
ATOM     12  C   UNL     1      49.300   6.472  16.449  0.00  0.00    +0.000 A 
ATOM     13  F   UNL     1      49.538   6.182  17.735  0.00  0.00    +0.000 F 
ATOM     14  C   UNL     1      48.344   5.739  15.749  0.00  0.00    +0.000 A 
ENDBRANCH   6   8
ENDBRANCH   1   2
BRANCH   1  15
ATOM     15  N   UNL     1      43.973   4.680   9.987  0.00  0.00    +0.000 N 
ATOM     16  H   UNL     1      43.301   3.998  10.333  0.00  0.00    +0.000 HD
BRANCH  15  20
ATOM     17  C   UNL     1      46.723   2.852   7.350  0.00  0.00    +0.000 A 
ATOM     18  C   UNL     1      46.771   4.233   7.544  0.00  0.00    +0.000 A 
ATOM     19  C   UNL     1      45.876   4.848   8.426  0.00  0.00    +0.000 A 
ATOM     20  C   UNL     1      44.937   4.105   9.155  0.00  0.00    +0.000 A 
ATOM     21  C   UNL     1      44.888   2.723   8.928  0.00  0.00    +0.000 A 
ATOM     22  C   UNL     1      45.766   2.098   8.033  0.00  0.00    +0.000 A 
BRANCH  17  24
ATOM     23  N   UNL     1      47.922   2.816   5.232  0.00  0.00    +0.000 N 
ATOM     24  C   UNL     1      47.639   2.167   6.402  0.00  0.00    +0.000 C 
ATOM     25  O   UNL     1      48.148   1.085   6.663  0.00  0.00    +0.000 OA
ATOM     26  H   UNL     1      48.626   2.389   4.643  0.00  0.00    +0.000 HD
ATOM     27  H   UNL     1      47.728   3.797   5.097  0.00  0.00    +0.000 HD
ENDBRANCH  17  24
ENDBRANCH  15  20
ENDBRANCH   1  15
TORSDOF 5
ENDMDL
MODEL 8
REMARK VINA RESULT:    -6.926      3.856      7.256
REMARK INTER + INTRA:          -9.991
REMARK INTER:                  -9.196
REMARK INTRA:                  -0.795
REMARK UNBOUND:                -1.040
REMARK  Name = 
REMARK  5 active torsions:
REMARK  status: ('A' for Active; 'I' for Inactive)
REMARK    1  A    between atoms: C_2  and  C_4
REMARK    2  A    between atoms: C_7  and  N_8
REMARK    3  A    between atoms: N_8  and  C_9
REMARK    4  A    between atoms: C_9  and  C_10
REMARK    5  A    between atoms: C_14  and  C_15
REMARK                            x       y       z     vdW  Elec       q    Type
REMARK                         _______ _______ _______ _____ _____    ______ ____
ROOT
ATOM      1  C   UNL     1      45.705   6.225  13.200  0.00  0.00    +0.000 C 
ENDROOT
BRANCH   1   2
ATOM      2  C   UNL     1      44.944   5.411  12.185  0.00  0.00    +0.000 A 
ATOM      3  C   UNL     1      43.551   5.334  12.235  0.00  0.00    +0.000 A 
ATOM      4  C   UNL     1      42.893   4.640  11.238  0.00  0.00    +0.000 A 
ATOM      5  N   UNL     1      43.519   4.021  10.214  0.00  0.00    +0.000 NA
ATOM      6  C   UNL     1      44.875   4.077  10.165  0.00  0.00    +0.000 A 
ATOM      7  C   UNL     1      45.608   4.771  11.130  0.00  0.00    +0.000 A 
BRANCH   6   8
ATOM      8  C   UNL     1      45.505   3.372   9.029  0.00  0.00    +0.000 A 
ATOM      9  C   UNL     1      46.009   4.091   7.925  0.00  0.00    +0.000 A 
ATOM     10  C   UNL     1      46.614   3.443   6.839  0.00  0.00    +0.000 A 
ATOM     11  C   UNL     1      46.717   2.057   6.832  0.00  0.00    +0.000 A 
ATOM     12  C   UNL     1      46.216   1.334   7.906  0.00  0.00    +0.000 A 
ATOM     13  F   UNL     1      46.304  -0.003   7.897  0.00  0.00    +0.000 F 
ATOM     14  C   UNL     1      45.616   1.972   8.989  0.00  0.00    +0.000 A 
ENDBRANCH   6   8
ENDBRANCH   1   2
BRANCH   1  15
ATOM     15  N   UNL     1      45.769   7.623  12.804  0.00  0.00    +0.000 N 
ATOM     16  H   UNL     1      45.014   7.914  12.186  0.00  0.00    +0.000 HD
BRANCH  15  20
ATOM     17  C   UNL     1      49.480   9.207  11.547  0.00  0.00    +0.000 A 
ATOM     18  C   UNL     1      48.417  10.073  11.811  0.00  0.00    +0.000 A 
ATOM     19  C   UNL     1      47.188   9.561  12.243  0.00  0.00    +0.000 A 
ATOM     20  C   UNL     1      46.997   8.188  12.450  0.00  0.00    +0.000 A 
ATOM     21  C   UNL     1      48.068   7.333  12.156  0.00  0.00    +0.000 A 
ATOM     22  C   UNL     1      49.298   7.832  11.704  0.00  0.00    +0.000 A 
BRANCH  17  24
ATOM     23  N   UNL     1      51.775   8.785  10.856  0.00  0.00    +0.000 N 
ATOM     24  C   UNL     1      50.790   9.711  11.063  0.00  0.00    +0.000 C 
ATOM     25  O   UNL     1      50.979  10.897  10.826  0.00  0.00    +0.000 OA
ATOM     26  H   UNL     1      52.626   9.125  10.427  0.00  0.00    +0.000 HD
ATOM     27  H   UNL     1      51.583   7.795  10.797  0.00  0.00    +0.000 HD
ENDBRANCH  17  24
ENDBRANCH  15  20
ENDBRANCH   1  15
TORSDOF 5
ENDMDL
MODEL 9
REMARK VINA RESULT:    -6.526      4.062      7.676
REMARK INTER + INTRA:          -9.473
REMARK INTER:                  -8.725
REMARK INTRA:                  -0.748
REMARK UNBOUND:                -1.040
REMARK  Name = 
REMARK  5 active torsions:
REMARK  status: ('A' for Active; 'I' for Inactive)
REMARK    1  A    between atoms: C_2  and  C_4
REMARK    2  A    between atoms: C_7  and  N_8
REMARK    3  A    between atoms: N_8  and  C_9
REMARK    4  A    between atoms: C_9  and  C_10
REMARK    5  A    between atoms: C_14  and  C_15
REMARK                            x       y       z     vdW  Elec       q    Type
REMARK                         _______ _______ _______ _____ _____    ______ ____
ROOT
ATOM      1  C   UNL     1      48.217   7.691  13.376  0.00  0.00    +0.000 C 
ENDROOT
BRANCH   1   2
ATOM      2  C   UNL     1      46.932   7.491  12.615  0.00  0.00    +0.000 A 
ATOM      3  C   UNL     1      45.969   8.499  12.567  0.00  0.00    +0.000 A 
ATOM      4  C   UNL     1      44.842   8.298  11.794  0.00  0.00    +0.000 A 
ATOM      5  N   UNL     1      44.610   7.176  11.081  0.00  0.00    +0.000 NA
ATOM      6  C   UNL     1      45.533   6.182  11.133  0.00  0.00    +0.000 A 
ATOM      7  C   UNL     1      46.704   6.318  11.883  0.00  0.00    +0.000 A 
BRANCH   6   8
ATOM      8  C   UNL     1      45.220   4.973  10.342  0.00  0.00    +0.000 A 
ATOM      9  C   UNL     1      44.534   3.887  10.926  0.00  0.00    +0.000 A 
ATOM     10  C   UNL     1      44.222   2.734  10.194  0.00  0.00    +0.000 A 
ATOM     11  C   UNL     1      44.601   2.640   8.859  0.00  0.00    +0.000 A 
ATOM     12  C   UNL     1      45.286   3.695   8.273  0.00  0.00    +0.000 A 
ATOM     13  F   UNL     1      45.661   3.604   6.989  0.00  0.00    +0.000 F 
ATOM     14  C   UNL     1      45.596   4.845   8.994  0.00  0.00    +0.000 A 
ENDBRANCH   6   8
ENDBRANCH   1   2
BRANCH   1  15
ATOM     15  N   UNL     1      47.988   7.624  14.811  0.00  0.00    +0.000 N 
ATOM     16  H   UNL     1      48.275   8.460  15.316  0.00  0.00    +0.000 HD
BRANCH  15  20
ATOM     17  C   UNL     1      48.864   4.187  17.109  0.00  0.00    +0.000 A 
ATOM     18  C   UNL     1      47.822   4.146  16.181  0.00  0.00    +0.000 A 
ATOM     19  C   UNL     1      47.532   5.273  15.403  0.00  0.00    +0.000 A 
ATOM     20  C   UNL     1      48.287   6.450  15.507  0.00  0.00    +0.000 A 
ATOM     21  C   UNL     1      49.313   6.480  16.462  0.00  0.00    +0.000 A 
ATOM     22  C   UNL     1      49.600   5.365  17.260  0.00  0.00    +0.000 A 
BRANCH  17  24
ATOM     23  N   UNL     1      48.573   2.963  19.192  0.00  0.00    +0.000 N 
ATOM     24  C   UNL     1      49.185   3.020  17.970  0.00  0.00    +0.000 C 
ATOM     25  O   UNL     1      49.937   2.130  17.598  0.00  0.00    +0.000 OA
ATOM     26  H   UNL     1      48.718   2.114  19.724  0.00  0.00    +0.000 HD
ATOM     27  H   UNL     1      47.773   3.532  19.423  0.00  0.00    +0.000 HD
ENDBRANCH  17  24
ENDBRANCH  15  20
ENDBRANCH   1  15
TORSDOF 5
ENDMDL
