MODEL 1
REMARK VINA RESULT:    -8.895      0.000      0.000
REMARK INTER + INTRA:         -11.493
REMARK INTER:                 -11.495
REMARK INTRA:                   0.002
REMARK UNBOUND:                 0.002
REMARK  Name = 
REMARK  5 active torsions:
REMARK  status: ('A' for Active; 'I' for Inactive)
REMARK    1  A    between atoms: C_2  and  C_3
REMARK    2  A    between atoms: C_6  and  N_7
REMARK    3  A    between atoms: N_7  and  C_8
REMARK    4  A    between atoms: C_8  and  C_9
REMARK    5  A    between atoms: C_13  and  C_14
REMARK                            x       y       z     vdW  Elec       q    Type
REMARK                         _______ _______ _______ _____ _____    ______ ____
ROOT
ATOM      1  C   UNL     1      43.974   4.894  11.605  0.00  0.00    +0.000 C 
ATOM      2  C   UNL     1      43.336   3.705  12.315  0.00  0.00    +0.000 C 
ATOM      3  C   UNL     1      42.804   5.079  12.544  0.00  0.00    +0.000 C 
ENDROOT
BRANCH   1   4
ATOM      4  C   UNL     1      45.374   5.324  12.026  0.00  0.00    +0.000 A 
ATOM      5  C   UNL     1      46.090   6.274  11.280  0.00  0.00    +0.000 A 
ATOM      6  C   UNL     1      47.236   6.879  11.789  0.00  0.00    +0.000 A 
ATOM      7  C   UNL     1      47.707   6.521  13.052  0.00  0.00    +0.000 A 
ATOM      8  C   UNL     1      47.070   5.528  13.815  0.00  0.00    +0.000 A 
ATOM      9  C   UNL     1      45.909   4.940  13.271  0.00  0.00    +0.000 A 
BRANCH   8  10
ATOM     10  C   UNL     1      47.564   5.145  15.156  0.00  0.00    +0.000 A 
ATOM     11  C   UNL     1      48.526   5.919  15.837  0.00  0.00    +0.000 A 
ATOM     12  C   UNL     1      49.009   5.547  17.104  0.00  0.00    +0.000 A 
ATOM     13  C   UNL     1      48.518   4.404  17.717  0.00  0.00    +0.000 A 
ATOM     14  C   UNL     1      47.559   3.640  17.068  0.00  0.00    +0.000 A 
ATOM     15  F   UNL     1      47.080   2.541  17.663  0.00  0.00    +0.000 F 
ATOM     16  C   UNL     1      47.089   3.994  15.807  0.00  0.00    +0.000 A 
ENDBRANCH   8  10
ENDBRANCH   1   4
BRANCH   1  17
ATOM     17  N   UNL     1      43.859   4.843  10.141  0.00  0.00    +0.000 N 
ATOM     18  H   UNL     1      42.904   4.852   9.783  0.00  0.00    +0.000 HD
BRANCH  17  22
ATOM     19  C   UNL     1      46.297   2.543   7.798  0.00  0.00    +0.000 A 
ATOM     20  C   UNL     1      46.136   3.902   7.600  0.00  0.00    +0.000 A 
ATOM     21  N   UNL     1      45.274   4.647   8.333  0.00  0.00    +0.000 NA
ATOM     22  C   UNL     1      44.563   4.001   9.285  0.00  0.00    +0.000 A 
ATOM     23  C   UNL     1      44.691   2.623   9.434  0.00  0.00    +0.000 A 
ATOM     24  N   UNL     1      45.557   1.862   8.705  0.00  0.00    +0.000 NA
BRANCH  19  26
ATOM     25  N   UNL     1      48.148   1.284   6.490  0.00  0.00    +0.000 NA
ATOM     26  C   UNL     1      47.308   1.819   7.088  0.00  0.00    +0.000 C 
ENDBRANCH  19  26
ENDBRANCH  17  22
ENDBRANCH   1  17
TORSDOF 5
ENDMDL
MODEL 2
REMARK VINA RESULT:    -8.413      2.318      3.411
REMARK INTER + INTRA:         -10.871
REMARK INTER:                  -9.960
REMARK INTRA:                  -0.911
REMARK UNBOUND:                 0.002
REMARK  Name = 
REMARK  5 active torsions:
REMARK  status: ('A' for Active; 'I' for Inactive)
REMARK    1  A    between atoms: C_2  and  C_3
REMARK    2  A    between atoms: C_6  and  N_7
REMARK    3  A    between atoms: N_7  and  C_8
REMARK    4  A    between atoms: C_8  and  C_9
REMARK    5  A    between atoms: C_13  and  C_14
REMARK                            x       y       z     vdW  Elec       q    Type
REMARK                         _______ _______ _______ _____ _____    ______ ____
ROOT
ATOM      1  C   UNL     1      43.766   5.059  11.201  0.00  0.00    +0.000 C 
ATOM      2  C   UNL     1      42.391   5.331  11.802  0.00  0.00    +0.000 C 
ATOM      3  C   UNL     1      43.069   6.385  10.992  0.00  0.00    +0.000 C 
ENDROOT
BRANCH   1   4
ATOM      4  C   UNL     1      44.961   4.956  12.140  0.00  0.00    +0.000 A 
ATOM      5  C   UNL     1      45.226   3.769  12.840  0.00  0.00    +0.000 A 
ATOM      6  C   UNL     1      46.447   3.563  13.477  0.00  0.00    +0.000 A 
ATOM      7  C   UNL     1      47.422   4.559  13.449  0.00  0.00    +0.000 A 
ATOM      8  C   UNL     1      47.187   5.793  12.821  0.00  0.00    +0.000 A 
ATOM      9  C   UNL     1      45.941   5.967  12.182  0.00  0.00    +0.000 A 
BRANCH   8  10
ATOM     10  C   UNL     1      48.218   6.855  12.787  0.00  0.00    +0.000 A 
ATOM     11  C   UNL     1      48.375   7.695  11.666  0.00  0.00    +0.000 A 
ATOM     12  C   UNL     1      49.365   8.693  11.626  0.00  0.00    +0.000 A 
ATOM     13  C   UNL     1      50.198   8.878  12.719  0.00  0.00    +0.000 A 
ATOM     14  C   UNL     1      50.045   8.071  13.837  0.00  0.00    +0.000 A 
ATOM     15  F   UNL     1      50.845   8.253  14.895  0.00  0.00    +0.000 F 
ATOM     16  C   UNL     1      49.078   7.070  13.876  0.00  0.00    +0.000 A 
ENDBRANCH   8  10
ENDBRANCH   1   4
BRANCH   1  17
ATOM     17  N   UNL     1      43.777   3.968  10.216  0.00  0.00    +0.000 N 
ATOM     18  H   UNL     1      43.369   3.091  10.540  0.00  0.00    +0.000 HD
BRANCH  17  22
ATOM     19  C   UNL     1      46.622   2.665   7.583  0.00  0.00    +0.000 A 
ATOM     20  C   UNL     1      45.992   1.822   8.479  0.00  0.00    +0.000 A 
ATOM     21  N   UNL     1      45.103   2.269   9.397  0.00  0.00    +0.000 NA
ATOM     22  C   UNL     1      44.846   3.598   9.405  0.00  0.00    +0.000 A 
ATOM     23  C   UNL     1      45.531   4.444   8.536  0.00  0.00    +0.000 A 
ATOM     24  N   UNL     1      46.426   4.006   7.606  0.00  0.00    +0.000 NA
BRANCH  19  26
ATOM     25  N   UNL     1      48.186   1.719   5.743  0.00  0.00    +0.000 NA
ATOM     26  C   UNL     1      47.458   2.135   6.549  0.00  0.00    +0.000 C 
ENDBRANCH  19  26
ENDBRANCH  17  22
ENDBRANCH   1  17
TORSDOF 5
ENDMDL
MODEL 3
REMARK VINA RESULT:    -8.359      3.602      7.414
REMARK INTER + INTRA:         -10.800
REMARK INTER:                 -10.153
REMARK INTRA:                  -0.647
REMARK UNBOUND:                 0.002
REMARK  Name = 
REMARK  5 active torsions:
REMARK  status: ('A' for Active; 'I' for Inactive)
REMARK    1  A    between atoms: C_2  and  C_3
REMARK    2  A    between atoms: C_6  and  N_7
REMARK    3  A    between atoms: N_7  and  C_8
REMARK    4  A    between atoms: C_8  and  C_9
REMARK    5  A    between atoms: C_13  and  C_14
REMARK                            x       y       z     vdW  Elec       q    Type
REMARK                         _______ _______ _______ _____ _____    ______ ____
ROOT
ATOM      1  C   UNL     1      46.013   7.160  12.310  0.00  0.00    +0.000 C 
ATOM      2  C   UNL     1      46.083   8.519  11.622  0.00  0.00    +0.000 C 
ATOM      3  C   UNL     1      45.316   8.369  12.893  0.00  0.00    +0.000 C 
ENDROOT
BRANCH   1   4
ATOM      4  C   UNL     1      45.206   6.052  11.646  0.00  0.00    +0.000 A 
ATOM      5  C   UNL     1      43.819   5.955  11.843  0.00  0.00    +0.000 A 
ATOM      6  C   UNL     1      43.031   5.134  11.040  0.00  0.00    +0.000 A 
ATOM      7  C   UNL     1      43.623   4.368  10.037  0.00  0.00    +0.000 A 
ATOM      8  C   UNL     1      45.014   4.374   9.839  0.00  0.00    +0.000 A 
ATOM      9  C   UNL     1      45.781   5.220  10.666  0.00  0.00    +0.000 A 
BRANCH   8  10
ATOM     10  C   UNL     1      45.648   3.564   8.775  0.00  0.00    +0.000 A 
ATOM     11  C   UNL     1      46.214   4.162   7.631  0.00  0.00    +0.000 A 
ATOM     12  C   UNL     1      46.803   3.392   6.612  0.00  0.00    +0.000 A 
ATOM     13  C   UNL     1      46.853   2.011   6.736  0.00  0.00    +0.000 A 
ATOM     14  C   UNL     1      46.315   1.409   7.864  0.00  0.00    +0.000 A 
ATOM     15  F   UNL     1      46.369   0.076   7.987  0.00  0.00    +0.000 F 
ATOM     16  C   UNL     1      45.716   2.164   8.868  0.00  0.00    +0.000 A 
ENDBRANCH   8  10
ENDBRANCH   1   4
BRANCH   1  17
ATOM     17  N   UNL     1      47.317   6.658  12.766  0.00  0.00    +0.000 N 
ATOM     18  H   UNL     1      47.922   6.298  12.029  0.00  0.00    +0.000 HD
BRANCH  17  22
ATOM     19  C   UNL     1      47.829   4.564  16.242  0.00  0.00    +0.000 A 
ATOM     20  C   UNL     1      48.610   5.654  15.904  0.00  0.00    +0.000 A 
ATOM     21  N   UNL     1      48.484   6.301  14.721  0.00  0.00    +0.000 NA
ATOM     22  C   UNL     1      47.547   5.834  13.865  0.00  0.00    +0.000 A 
ATOM     23  C   UNL     1      46.808   4.700  14.192  0.00  0.00    +0.000 A 
ATOM     24  N   UNL     1      46.922   4.042  15.380  0.00  0.00    +0.000 NA
BRANCH  19  26
ATOM     25  N   UNL     1      48.023   3.496  18.597  0.00  0.00    +0.000 NA
ATOM     26  C   UNL     1      47.907   3.989  17.550  0.00  0.00    +0.000 C 
ENDBRANCH  19  26
ENDBRANCH  17  22
ENDBRANCH   1  17
TORSDOF 5
ENDMDL
MODEL 4
REMARK VINA RESULT:    -7.469      4.279      7.967
REMARK INTER + INTRA:          -9.650
REMARK INTER:                  -8.786
REMARK INTRA:                  -0.864
REMARK UNBOUND:                 0.002
REMARK  Name = 
REMARK  5 active torsions:
REMARK  status: ('A' for Active; 'I' for Inactive)
REMARK    1  A    between atoms: C_2  and  C_3
REMARK    2  A    between atoms: C_6  and  N_7
REMARK    3  A    between atoms: N_7  and  C_8
REMARK    4  A    between atoms: C_8  and  C_9
REMARK    5  A    between atoms: C_13  and  C_14
REMARK                            x       y       z     vdW  Elec       q    Type
REMARK                         _______ _______ _______ _____ _____    ______ ____
ROOT
ATOM      1  C   UNL     1      48.676   7.947  12.617  0.00  0.00    +0.000 C 
ATOM      2  C   UNL     1      49.551   8.326  11.427  0.00  0.00    +0.000 C 
ATOM      3  C   UNL     1      49.179   9.361  12.435  0.00  0.00    +0.000 C 
ENDROOT
BRANCH   1   4
ATOM      4  C   UNL     1      47.212   7.612  12.363  0.00  0.00    +0.000 A 
ATOM      5  C   UNL     1      46.203   8.554  12.620  0.00  0.00    +0.000 A 
ATOM      6  C   UNL     1      44.908   8.374  12.143  0.00  0.00    +0.000 A 
ATOM      7  C   UNL     1      44.587   7.226  11.418  0.00  0.00    +0.000 A 
ATOM      8  C   UNL     1      45.539   6.219  11.188  0.00  0.00    +0.000 A 
ATOM      9  C   UNL     1      46.842   6.435  11.682  0.00  0.00    +0.000 A 
BRANCH   8  10
ATOM     10  C   UNL     1      45.206   4.999  10.420  0.00  0.00    +0.000 A 
ATOM     11  C   UNL     1      44.513   3.922  11.009  0.00  0.00    +0.000 A 
ATOM     12  C   UNL     1      44.210   2.756  10.284  0.00  0.00    +0.000 A 
ATOM     13  C   UNL     1      44.579   2.661   8.950  0.00  0.00    +0.000 A 
ATOM     14  C   UNL     1      45.247   3.718   8.351  0.00  0.00    +0.000 A 
ATOM     15  F   UNL     1      45.597   3.630   7.062  0.00  0.00    +0.000 F 
ATOM     16  C   UNL     1      45.564   4.869   9.067  0.00  0.00    +0.000 A 
ENDBRANCH   8  10
ENDBRANCH   1   4
BRANCH   1  17
ATOM     17  N   UNL     1      49.292   6.960  13.515  0.00  0.00    +0.000 N 
ATOM     18  H   UNL     1      49.438   6.036  13.106  0.00  0.00    +0.000 HD
BRANCH  17  22
ATOM     19  C   UNL     1      48.572   5.930  17.407  0.00  0.00    +0.000 A 
ATOM     20  C   UNL     1      48.145   5.162  16.340  0.00  0.00    +0.000 A 
ATOM     21  N   UNL     1      48.323   5.542  15.052  0.00  0.00    +0.000 NA
ATOM     22  C   UNL     1      48.949   6.723  14.843  0.00  0.00    +0.000 A 
ATOM     23  C   UNL     1      49.321   7.514  15.927  0.00  0.00    +0.000 A 
ATOM     24  N   UNL     1      49.150   7.143  17.227  0.00  0.00    +0.000 NA
BRANCH  19  26
ATOM     25  N   UNL     1      48.357   5.073  19.845  0.00  0.00    +0.000 NA
ATOM     26  C   UNL     1      48.477   5.433  18.746  0.00  0.00    +0.000 C 
ENDBRANCH  19  26
ENDBRANCH  17  22
ENDBRANCH   1  17
TORSDOF 5
ENDMDL
MODEL 5
REMARK VINA RESULT:    -7.050      2.625      4.522
REMARK INTER + INTRA:          -9.109
REMARK INTER:                  -8.391
REMARK INTRA:                  -0.718
REMARK UNBOUND:                 0.002
REMARK  Name = 
REMARK  5 active torsions:
REMARK  status: ('A' for Active; 'I' for Inactive)
REMARK    1  A    between atoms: C_2  and  C_3
REMARK    2  A    between atoms: C_6  and  N_7
REMARK    3  A    between atoms: N_7  and  C_8
REMARK    4  A    between atoms: C_8  and  C_9
REMARK    5  A    between atoms: C_13  and  C_14
REMARK                            x       y       z     vdW  Elec       q    Type
REMARK                         _______ _______ _______ _____ _____    ______ ____
ROOT
ATOM      1  C   UNL     1      48.043   8.170  12.602  0.00  0.00    +0.000 C 
ATOM      2  C   UNL     1      48.531   9.351  11.770  0.00  0.00    +0.000 C 
ATOM      3  C   UNL     1      49.092   7.990  11.527  0.00  0.00    +0.000 C 
ENDROOT
BRANCH   1   4
ATOM      4  C   UNL     1      48.431   8.110  14.073  0.00  0.00    +0.000 A 
ATOM      5  C   UNL     1      48.374   9.258  14.881  0.00  0.00    +0.000 A 
ATOM      6  C   UNL     1      48.454   9.171  16.268  0.00  0.00    +0.000 A 
ATOM      7  C   UNL     1      48.622   7.928  16.877  0.00  0.00    +0.000 A 
ATOM      8  C   UNL     1      48.753   6.754  16.117  0.00  0.00    +0.000 A 
ATOM      9  C   UNL     1      48.663   6.878  14.715  0.00  0.00    +0.000 A 
BRANCH   8  10
ATOM     10  C   UNL     1      48.931   5.432  16.758  0.00  0.00    +0.000 A 
ATOM     11  C   UNL     1      50.190   5.003  17.227  0.00  0.00    +0.000 A 
ATOM     12  C   UNL     1      50.363   3.740  17.821  0.00  0.00    +0.000 A 
ATOM     13  C   UNL     1      49.272   2.897  17.974  0.00  0.00    +0.000 A 
ATOM     14  C   UNL     1      48.024   3.311  17.532  0.00  0.00    +0.000 A 
ATOM     15  F   UNL     1      46.970   2.500  17.685  0.00  0.00    +0.000 F 
ATOM     16  C   UNL     1      47.849   4.553  16.928  0.00  0.00    +0.000 A 
ENDBRANCH   8  10
ENDBRANCH   1   4
BRANCH   1  17
ATOM     17  N   UNL     1      46.616   7.867  12.422  0.00  0.00    +0.000 N 
ATOM     18  H   UNL     1      45.993   8.313  13.095  0.00  0.00    +0.000 HD
BRANCH  17  22
ATOM     19  C   UNL     1      44.594   4.364  11.818  0.00  0.00    +0.000 A 
ATOM     20  C   UNL     1      44.789   4.907  13.074  0.00  0.00    +0.000 A 
ATOM     21  N   UNL     1      45.520   6.029  13.277  0.00  0.00    +0.000 NA
ATOM     22  C   UNL     1      46.061   6.613  12.184  0.00  0.00    +0.000 A 
ATOM     23  C   UNL     1      45.906   6.024  10.931  0.00  0.00    +0.000 A 
ATOM     24  N   UNL     1      45.171   4.896  10.714  0.00  0.00    +0.000 NA
BRANCH  19  26
ATOM     25  N   UNL     1      43.034   2.314  11.520  0.00  0.00    +0.000 NA
ATOM     26  C   UNL     1      43.712   3.251  11.634  0.00  0.00    +0.000 C 
ENDBRANCH  19  26
ENDBRANCH  17  22
ENDBRANCH   1  17
TORSDOF 5
ENDMDL
MODEL 6
REMARK VINA RESULT:    -6.895      4.975      7.982
REMARK INTER + INTRA:          -8.908
REMARK INTER:                  -8.460
REMARK INTRA:                  -0.448
REMARK UNBOUND:                 0.002
REMARK  Name = 
REMARK  5 active torsions:
REMARK  status: ('A' for Active; 'I' for Inactive)
REMARK    1  A    between atoms: C_2  and  C_3
REMARK    2  A    between atoms: C_6  and  N_7
REMARK    3  A    between atoms: N_7  and  C_8
REMARK    4  A    between atoms: C_8  and  C_9
REMARK    5  A    between atoms: C_13  and  C_14
REMARK                            x       y       z     vdW  Elec       q    Type
REMARK                         _______ _______ _______ _____ _____    ______ ____
ROOT
ATOM      1  C   UNL     1      48.182   4.734  16.891  0.00  0.00    +0.000 C 
ATOM      2  C   UNL     1      47.231   4.961  18.061  0.00  0.00    +0.000 C 
ATOM      3  C   UNL     1      47.259   3.637  17.373  0.00  0.00    +0.000 C 
ENDROOT
BRANCH   1   4
ATOM      4  C   UNL     1      47.902   5.454  15.579  0.00  0.00    +0.000 A 
ATOM      5  C   UNL     1      48.741   6.487  15.131  0.00  0.00    +0.000 A 
ATOM      6  C   UNL     1      48.667   6.963  13.825  0.00  0.00    +0.000 A 
ATOM      7  C   UNL     1      47.728   6.430  12.943  0.00  0.00    +0.000 A 
ATOM      8  C   UNL     1      46.819   5.441  13.355  0.00  0.00    +0.000 A 
ATOM      9  C   UNL     1      46.923   4.979  14.683  0.00  0.00    +0.000 A 
BRANCH   8  10
ATOM     10  C   UNL     1      45.820   4.871  12.423  0.00  0.00    +0.000 A 
ATOM     11  C   UNL     1      45.644   5.387  11.123  0.00  0.00    +0.000 A 
ATOM     12  C   UNL     1      44.684   4.857  10.243  0.00  0.00    +0.000 A 
ATOM     13  C   UNL     1      43.901   3.786  10.647  0.00  0.00    +0.000 A 
ATOM     14  C   UNL     1      44.072   3.255  11.917  0.00  0.00    +0.000 A 
ATOM     15  F   UNL     1      43.321   2.217  12.304  0.00  0.00    +0.000 F 
ATOM     16  C   UNL     1      45.009   3.787  12.799  0.00  0.00    +0.000 A 
ENDBRANCH   8  10
ENDBRANCH   1   4
BRANCH   1  17
ATOM     17  N   UNL     1      49.602   4.836  17.253  0.00  0.00    +0.000 N 
ATOM     18  H   UNL     1      50.153   5.461  16.664  0.00  0.00    +0.000 HD
BRANCH  17  22
ATOM     19  C   UNL     1      52.227   1.738  17.745  0.00  0.00    +0.000 A 
ATOM     20  C   UNL     1      51.031   1.603  17.064  0.00  0.00    +0.000 A 
ATOM     21  N   UNL     1      50.132   2.612  16.964  0.00  0.00    +0.000 NA
ATOM     22  C   UNL     1      50.454   3.780  17.565  0.00  0.00    +0.000 A 
ATOM     23  C   UNL     1      51.635   3.884  18.297  0.00  0.00    +0.000 A 
ATOM     24  N   UNL     1      52.548   2.878  18.403  0.00  0.00    +0.000 NA
BRANCH  19  26
ATOM     25  N   UNL     1      53.991  -0.162  17.758  0.00  0.00    +0.000 NA
ATOM     26  C   UNL     1      53.201   0.690  17.719  0.00  0.00    +0.000 C 
ENDBRANCH  19  26
ENDBRANCH  17  22
ENDBRANCH   1  17
TORSDOF 5
ENDMDL
MODEL 7
REMARK VINA RESULT:    -6.695      1.697      2.875
REMARK INTER + INTRA:          -8.650
REMARK INTER:                  -7.940
REMARK INTRA:                  -0.709
REMARK UNBOUND:                 0.002
REMARK  Name = 
REMARK  5 active torsions:
REMARK  status: ('A' for Active; 'I' for Inactive)
REMARK    1  A    between atoms: C_2  and  C_3
REMARK    2  A    between atoms: C_6  and  N_7
REMARK    3  A    between atoms: N_7  and  C_8
REMARK    4  A    between atoms: C_8  and  C_9
REMARK    5  A    between atoms: C_13  and  C_14
REMARK                            x       y       z     vdW  Elec       q    Type
REMARK                         _______ _______ _______ _____ _____    ______ ____
ROOT
ATOM      1  C   UNL     1      45.479   8.047  12.234  0.00  0.00    +0.000 C 
ATOM      2  C   UNL     1      44.979   9.407  12.706  0.00  0.00    +0.000 C 
ATOM      3  C   UNL     1      45.339   9.206  11.273  0.00  0.00    +0.000 C 
ENDROOT
BRANCH   1   4
ATOM      4  C   UNL     1      46.858   7.584  12.686  0.00  0.00    +0.000 A 
ATOM      5  C   UNL     1      48.021   8.105  12.097  0.00  0.00    +0.000 A 
ATOM      6  C   UNL     1      49.273   7.908  12.673  0.00  0.00    +0.000 A 
ATOM      7  C   UNL     1      49.390   7.158  13.842  0.00  0.00    +0.000 A 
ATOM      8  C   UNL     1      48.269   6.556  14.438  0.00  0.00    +0.000 A 
ATOM      9  C   UNL     1      47.016   6.779  13.831  0.00  0.00    +0.000 A 
BRANCH   8  10
ATOM     10  C   UNL     1      48.386   5.759  15.680  0.00  0.00    +0.000 A 
ATOM     11  C   UNL     1      49.373   6.040  16.647  0.00  0.00    +0.000 A 
ATOM     12  C   UNL     1      49.495   5.273  17.819  0.00  0.00    +0.000 A 
ATOM     13  C   UNL     1      48.615   4.226  18.050  0.00  0.00    +0.000 A 
ATOM     14  C   UNL     1      47.627   3.948  17.116  0.00  0.00    +0.000 A 
ATOM     15  F   UNL     1      46.773   2.941  17.342  0.00  0.00    +0.000 F 
ATOM     16  C   UNL     1      47.511   4.692  15.946  0.00  0.00    +0.000 A 
ENDBRANCH   8  10
ENDBRANCH   1   4
BRANCH   1  17
ATOM     17  N   UNL     1      44.490   6.969  12.377  0.00  0.00    +0.000 N 
ATOM     18  H   UNL     1      44.398   6.591  13.320  0.00  0.00    +0.000 HD
BRANCH  17  22
ATOM     19  C   UNL     1      44.397   3.612  10.043  0.00  0.00    +0.000 A 
ATOM     20  C   UNL     1      45.275   4.655   9.816  0.00  0.00    +0.000 A 
ATOM     21  N   UNL     1      45.255   5.796  10.547  0.00  0.00    +0.000 NA
ATOM     22  C   UNL     1      44.328   5.878  11.528  0.00  0.00    +0.000 A 
ATOM     23  C   UNL     1      43.411   4.844  11.708  0.00  0.00    +0.000 A 
ATOM     24  N   UNL     1      43.422   3.691  10.981  0.00  0.00    +0.000 NA
BRANCH  19  26
ATOM     25  N   UNL     1      44.705   1.376   8.767  0.00  0.00    +0.000 NA
ATOM     26  C   UNL     1      44.534   2.377   9.332  0.00  0.00    +0.000 C 
ENDBRANCH  19  26
ENDBRANCH  17  22
ENDBRANCH   1  17
TORSDOF 5
ENDMDL
MODEL 8
REMARK VINA RESULT:    -6.452      3.215      4.804
REMARK INTER + INTRA:          -8.336
REMARK INTER:                  -7.789
REMARK INTRA:                  -0.547
REMARK UNBOUND:                 0.002
REMARK  Name = 
REMARK  5 active torsions:
REMARK  status: ('A' for Active; 'I' for Inactive)
REMARK    1  A    between atoms: C_2  and  C_3
REMARK    2  A    between atoms: C_6  and  N_7
REMARK    3  A    between atoms: N_7  and  C_8
REMARK    4  A    between atoms: C_8  and  C_9
REMARK    5  A    between atoms: C_13  and  C_14
REMARK                            x       y       z     vdW  Elec       q    Type
REMARK                         _______ _______ _______ _____ _____    ______ ____
ROOT
ATOM      1  C   UNL     1      48.000   7.462  13.019  0.00  0.00    +0.000 C 
ATOM      2  C   UNL     1      48.004   8.747  12.199  0.00  0.00    +0.000 C 
ATOM      3  C   UNL     1      48.266   7.439  11.531  0.00  0.00    +0.000 C 
ENDROOT
BRANCH   1   4
ATOM      4  C   UNL     1      49.135   7.229  14.008  0.00  0.00    +0.000 A 
ATOM      5  C   UNL     1      50.402   7.795  13.796  0.00  0.00    +0.000 A 
ATOM      6  C   UNL     1      51.358   7.826  14.807  0.00  0.00    +0.000 A 
ATOM      7  C   UNL     1      51.073   7.263  16.051  0.00  0.00    +0.000 A 
ATOM      8  C   UNL     1      49.846   6.624  16.298  0.00  0.00    +0.000 A 
ATOM      9  C   UNL     1      48.899   6.614  15.253  0.00  0.00    +0.000 A 
BRANCH   8  10
ATOM     10  C   UNL     1      49.537   6.025  17.616  0.00  0.00    +0.000 A 
ATOM     11  C   UNL     1      50.478   5.233  18.306  0.00  0.00    +0.000 A 
ATOM     12  C   UNL     1      50.180   4.650  19.550  0.00  0.00    +0.000 A 
ATOM     13  C   UNL     1      48.940   4.871  20.132  0.00  0.00    +0.000 A 
ATOM     14  C   UNL     1      48.009   5.661  19.474  0.00  0.00    +0.000 A 
ATOM     15  F   UNL     1      46.814   5.879  20.038  0.00  0.00    +0.000 F 
ATOM     16  C   UNL     1      48.292   6.227  18.234  0.00  0.00    +0.000 A 
ENDBRANCH   8  10
ENDBRANCH   1   4
BRANCH   1  17
ATOM     17  N   UNL     1      46.699   7.153  13.631  0.00  0.00    +0.000 N 
ATOM     18  H   UNL     1      46.651   7.303  14.639  0.00  0.00    +0.000 HD
BRANCH  17  22
ATOM     19  C   UNL     1      44.403   3.965  12.496  0.00  0.00    +0.000 A 
ATOM     20  C   UNL     1      43.917   5.258  12.538  0.00  0.00    +0.000 A 
ATOM     21  N   UNL     1      44.659   6.301  12.982  0.00  0.00    +0.000 NA
ATOM     22  C   UNL     1      45.919   6.026  13.389  0.00  0.00    +0.000 A 
ATOM     23  C   UNL     1      46.377   4.711  13.397  0.00  0.00    +0.000 A 
ATOM     24  N   UNL     1      45.641   3.653  12.951  0.00  0.00    +0.000 NA
BRANCH  19  26
ATOM     25  N   UNL     1      42.960   2.075  11.463  0.00  0.00    +0.000 NA
ATOM     26  C   UNL     1      43.631   2.916  11.904  0.00  0.00    +0.000 C 
ENDBRANCH  19  26
ENDBRANCH  17  22
ENDBRANCH   1  17
TORSDOF 5
ENDMDL
MODEL 9
REMARK VINA RESULT:    -6.368      4.780      7.322
REMARK INTER + INTRA:          -8.228
REMARK INTER:                  -7.537
REMARK INTRA:                  -0.691
REMARK UNBOUND:                 0.002
REMARK  Name = 
REMARK  5 active torsions:
REMARK  status: ('A' for Active; 'I' for Inactive)
REMARK    1  A    between atoms: C_2  and  C_3
REMARK    2  A    between atoms: C_6  and  N_7
REMARK    3  A    between atoms: N_7  and  C_8
REMARK    4  A    between atoms: C_8  and  C_9
REMARK    5  A    between atoms: C_13  and  C_14
REMARK                            x       y       z     vdW  Elec       q    Type
REMARK                         _______ _______ _______ _____ _____    ______ ____
ROOT
ATOM      1  C   UNL     1      48.441   7.864  13.502  0.00  0.00    +0.000 C 
ATOM      2  C   UNL     1      48.536   8.217  14.982  0.00  0.00    +0.000 C 
ATOM      3  C   UNL     1      48.946   6.861  14.514  0.00  0.00    +0.000 C 
ENDROOT
BRANCH   1   4
ATOM      4  C   UNL     1      47.059   7.702  12.882  0.00  0.00    +0.000 A 
ATOM      5  C   UNL     1      46.162   8.781  12.830  0.00  0.00    +0.000 A 
ATOM      6  C   UNL     1      45.021   8.735  12.034  0.00  0.00    +0.000 A 
ATOM      7  C   UNL     1      44.739   7.590  11.289  0.00  0.00    +0.000 A 
ATOM      8  C   UNL     1      45.565   6.456  11.354  0.00  0.00    +0.000 A 
ATOM      9  C   UNL     1      46.715   6.538  12.167  0.00  0.00    +0.000 A 
BRANCH   8  10
ATOM     10  C   UNL     1      45.272   5.237  10.566  0.00  0.00    +0.000 A 
ATOM     11  C   UNL     1      44.570   4.149  11.124  0.00  0.00    +0.000 A 
ATOM     12  C   UNL     1      44.305   2.985  10.382  0.00  0.00    +0.000 A 
ATOM     13  C   UNL     1      44.721   2.903   9.061  0.00  0.00    +0.000 A 
ATOM     14  C   UNL     1      45.398   3.972   8.492  0.00  0.00    +0.000 A 
ATOM     15  F   UNL     1      45.794   3.896   7.215  0.00  0.00    +0.000 F 
ATOM     16  C   UNL     1      45.678   5.121   9.226  0.00  0.00    +0.000 A 
ENDBRANCH   8  10
ENDBRANCH   1   4
BRANCH   1  17
ATOM     17  N   UNL     1      49.311   8.678  12.641  0.00  0.00    +0.000 N 
ATOM     18  H   UNL     1      48.841   9.127  11.854  0.00  0.00    +0.000 HD
BRANCH  17  22
ATOM     19  C   UNL     1      52.905   7.862  10.869  0.00  0.00    +0.000 A 
ATOM     20  C   UNL     1      51.716   7.302  10.440  0.00  0.00    +0.000 A 
ATOM     21  N   UNL     1      50.539   7.519  11.073  0.00  0.00    +0.000 NA
ATOM     22  C   UNL     1      50.567   8.321  12.161  0.00  0.00    +0.000 A 
ATOM     23  C   UNL     1      51.780   8.832  12.618  0.00  0.00    +0.000 A 
ATOM     24  N   UNL     1      52.972   8.623  11.989  0.00  0.00    +0.000 NA
BRANCH  19  26
ATOM     25  N   UNL     1      55.040   7.564   9.428  0.00  0.00    +0.000 NA
ATOM     26  C   UNL     1      54.102   7.709  10.100  0.00  0.00    +0.000 C 
ENDBRANCH  19  26
ENDBRANCH  17  22
ENDBRANCH   1  17
TORSDOF 5
ENDMDL
