MODEL 1
REMARK VINA RESULT:    -8.477      0.000      0.000
REMARK INTER + INTRA:         -10.624
REMARK INTER:                  -9.963
REMARK INTRA:                  -0.661
REMARK UNBOUND:                -0.661
REMARK  Name = 
REMARK  3 active torsions:
REMARK  status: ('A' for Active; 'I' for Inactive)
REMARK    1  A    between atoms: C_2  and  C_4
REMARK    2  A    between atoms: N_8  and  C_9
REMARK    3  A    between atoms: C_9  and  C_10
REMARK                            x       y       z     vdW  Elec       q    Type
REMARK                         _______ _______ _______ _____ _____    ______ ____
ROOT
ATOM      1  C   UNL     1      46.578   2.747   7.452  0.00  0.00    +0.000 A 
ATOM      2  C   UNL     1      46.250   4.082   7.668  0.00  0.00    +0.000 A 
ATOM      3  C   UNL     1      45.404   4.418   8.725  0.00  0.00    +0.000 A 
ATOM      4  C   UNL     1      44.902   3.420   9.554  0.00  0.00    +0.000 A 
ATOM      5  N   UNL     1      43.992   3.659  10.584  0.00  0.00    +0.000 N 
ATOM      6  N   UNL     1      45.209   2.120   9.342  0.00  0.00    +0.000 NA
ATOM      7  C   UNL     1      46.023   1.806   8.303  0.00  0.00    +0.000 A 
ATOM      8  H   UNL     1      43.862   2.767  11.059  0.00  0.00    +0.000 HD
ENDROOT
BRANCH   1  10
ATOM      9  N   UNL     1      47.335   2.995   5.157  0.00  0.00    +0.000 N 
ATOM     10  C   UNL     1      47.444   2.307   6.338  0.00  0.00    +0.000 C 
ATOM     11  O   UNL     1      48.236   1.387   6.466  0.00  0.00    +0.000 OA
ATOM     12  H   UNL     1      47.977   2.734   4.421  0.00  0.00    +0.000 HD
ATOM     13  H   UNL     1      46.882   3.895   5.087  0.00  0.00    +0.000 HD
ENDBRANCH   1  10
BRANCH   5  14
ATOM     14  C   UNL     1      43.931   4.867  11.421  0.00  0.00    +0.000 C 
ATOM     15  C   UNL     1      42.613   5.042  12.174  0.00  0.00    +0.000 C 
ATOM     16  C   UNL     1      43.012   6.047  11.149  0.00  0.00    +0.000 C 
BRANCH  14  17
ATOM     17  C   UNL     1      45.224   5.182  12.173  0.00  0.00    +0.000 A 
ATOM     18  C   UNL     1      45.994   6.314  11.845  0.00  0.00    +0.000 A 
ATOM     19  C   UNL     1      47.118   6.671  12.595  0.00  0.00    +0.000 A 
ATOM     20  C   UNL     1      47.491   5.890  13.679  0.00  0.00    +0.000 A 
ATOM     21  F   UNL     1      48.546   6.252  14.422  0.00  0.00    +0.000 F 
ATOM     22  C   UNL     1      46.781   4.746  14.010  0.00  0.00    +0.000 A 
ATOM     23  C   UNL     1      45.661   4.390  13.254  0.00  0.00    +0.000 A 
ENDBRANCH  14  17
ENDBRANCH   5  14
TORSDOF 3
ENDMDL
MODEL 2
REMARK VINA RESULT:    -6.898      3.960      6.298
REMARK INTER + INTRA:          -8.769
REMARK INTER:                  -8.274
REMARK INTRA:                  -0.495
REMARK UNBOUND:                -0.661
REMARK  Name = 
REMARK  3 active torsions:
REMARK  status: ('A' for Active; 'I' for Inactive)
REMARK    1  A    between atoms: C_2  and  C_4
REMARK    2  A    between atoms: N_8  and  C_9
REMARK    3  A    between atoms: C_9  and  C_10
REMARK                            x       y       z     vdW  Elec       q    Type
REMARK                         _______ _______ _______ _____ _____    ______ ____
ROOT
ATOM      1  C   UNL     1      48.430   6.701  13.662  0.00  0.00    +0.000 A 
ATOM      2  C   UNL     1      47.544   5.691  14.022  0.00  0.00    +0.000 A 
ATOM      3  C   UNL     1      46.422   5.446  13.229  0.00  0.00    +0.000 A 
ATOM      4  C   UNL     1      46.204   6.210  12.087  0.00  0.00    +0.000 A 
ATOM      5  N   UNL     1      45.071   6.084  11.281  0.00  0.00    +0.000 N 
ATOM      6  N   UNL     1      47.056   7.200  11.737  0.00  0.00    +0.000 NA
ATOM      7  C   UNL     1      48.135   7.434  12.524  0.00  0.00    +0.000 A 
ATOM      8  H   UNL     1      45.217   6.708  10.490  0.00  0.00    +0.000 HD
ENDROOT
BRANCH   1  10
ATOM      9  N   UNL     1      50.601   7.775  13.843  0.00  0.00    +0.000 N 
ATOM     10  C   UNL     1      49.624   7.041  14.464  0.00  0.00    +0.000 C 
ATOM     11  O   UNL     1      49.729   6.703  15.633  0.00  0.00    +0.000 OA
ATOM     12  H   UNL     1      51.383   8.062  14.416  0.00  0.00    +0.000 HD
ATOM     13  H   UNL     1      50.447   8.271  12.976  0.00  0.00    +0.000 HD
ENDBRANCH   1  10
BRANCH   5  14
ATOM     14  C   UNL     1      44.335   4.839  11.012  0.00  0.00    +0.000 C 
ATOM     15  C   UNL     1      42.818   4.969  11.134  0.00  0.00    +0.000 C 
ATOM     16  C   UNL     1      43.554   4.066  12.063  0.00  0.00    +0.000 C 
BRANCH  14  17
ATOM     17  C   UNL     1      44.884   4.018   9.845  0.00  0.00    +0.000 A 
ATOM     18  C   UNL     1      45.546   4.642   8.770  0.00  0.00    +0.000 A 
ATOM     19  C   UNL     1      46.146   3.895   7.753  0.00  0.00    +0.000 A 
ATOM     20  C   UNL     1      46.079   2.509   7.794  0.00  0.00    +0.000 A 
ATOM     21  F   UNL     1      46.685   1.790   6.840  0.00  0.00    +0.000 F 
ATOM     22  C   UNL     1      45.403   1.859   8.816  0.00  0.00    +0.000 A 
ATOM     23  C   UNL     1      44.801   2.612   9.827  0.00  0.00    +0.000 A 
ENDBRANCH  14  17
ENDBRANCH   5  14
TORSDOF 3
ENDMDL
MODEL 3
REMARK VINA RESULT:    -6.732      3.940      6.439
REMARK INTER + INTRA:          -8.574
REMARK INTER:                  -8.760
REMARK INTRA:                   0.186
REMARK UNBOUND:                -0.661
REMARK  Name = 
REMARK  3 active torsions:
REMARK  status: ('A' for Active; 'I' for Inactive)
REMARK    1  A    between atoms: C_2  and  C_4
REMARK    2  A    between atoms: N_8  and  C_9
REMARK    3  A    between atoms: C_9  and  C_10
REMARK                            x       y       z     vdW  Elec       q    Type
REMARK                         _______ _______ _______ _____ _____    ______ ____
ROOT
ATOM      1  C   UNL     1      47.871   5.769  14.722  0.00  0.00    +0.000 A 
ATOM      2  C   UNL     1      47.406   6.126  13.460  0.00  0.00    +0.000 A 
ATOM      3  C   UNL     1      46.630   5.220  12.733  0.00  0.00    +0.000 A 
ATOM      4  C   UNL     1      46.326   3.978  13.279  0.00  0.00    +0.000 A 
ATOM      5  N   UNL     1      45.622   2.986  12.592  0.00  0.00    +0.000 N 
ATOM      6  N   UNL     1      46.784   3.622  14.500  0.00  0.00    +0.000 NA
ATOM      7  C   UNL     1      47.547   4.506  15.189  0.00  0.00    +0.000 A 
ATOM      8  H   UNL     1      45.488   2.226  13.255  0.00  0.00    +0.000 HD
ENDROOT
BRANCH   1  10
ATOM      9  N   UNL     1      48.230   7.910  15.811  0.00  0.00    +0.000 N 
ATOM     10  C   UNL     1      48.720   6.659  15.541  0.00  0.00    +0.000 C 
ATOM     11  O   UNL     1      49.801   6.292  15.976  0.00  0.00    +0.000 OA
ATOM     12  H   UNL     1      48.785   8.489  16.428  0.00  0.00    +0.000 HD
ATOM     13  H   UNL     1      47.260   8.160  15.680  0.00  0.00    +0.000 HD
ENDBRANCH   1  10
BRANCH   5  14
ATOM     14  C   UNL     1      44.546   3.209  11.615  0.00  0.00    +0.000 C 
ATOM     15  C   UNL     1      43.448   4.156  12.096  0.00  0.00    +0.000 C 
ATOM     16  C   UNL     1      43.114   2.735  11.800  0.00  0.00    +0.000 C 
BRANCH  14  17
ATOM     17  C   UNL     1      45.024   3.356  10.170  0.00  0.00    +0.000 A 
ATOM     18  C   UNL     1      45.331   4.622   9.634  0.00  0.00    +0.000 A 
ATOM     19  C   UNL     1      45.870   4.757   8.352  0.00  0.00    +0.000 A 
ATOM     20  C   UNL     1      46.098   3.624   7.584  0.00  0.00    +0.000 A 
ATOM     21  F   UNL     1      46.649   3.749   6.370  0.00  0.00    +0.000 F 
ATOM     22  C   UNL     1      45.772   2.363   8.061  0.00  0.00    +0.000 A 
ATOM     23  C   UNL     1      45.229   2.234   9.342  0.00  0.00    +0.000 A 
ENDBRANCH  14  17
ENDBRANCH   5  14
TORSDOF 3
ENDMDL
MODEL 4
REMARK VINA RESULT:    -6.256      4.219      6.819
REMARK INTER + INTRA:          -8.014
REMARK INTER:                  -8.369
REMARK INTRA:                   0.355
REMARK UNBOUND:                -0.661
REMARK  Name = 
REMARK  3 active torsions:
REMARK  status: ('A' for Active; 'I' for Inactive)
REMARK    1  A    between atoms: C_2  and  C_4
REMARK    2  A    between atoms: N_8  and  C_9
REMARK    3  A    between atoms: C_9  and  C_10
REMARK                            x       y       z     vdW  Elec       q    Type
REMARK                         _______ _______ _______ _____ _____    ______ ____
ROOT
ATOM      1  C   UNL     1      48.422   5.844  15.510  0.00  0.00    +0.000 A 
ATOM      2  C   UNL     1      48.085   6.323  14.248  0.00  0.00    +0.000 A 
ATOM      3  C   UNL     1      47.067   5.698  13.526  0.00  0.00    +0.000 A 
ATOM      4  C   UNL     1      46.398   4.609  14.075  0.00  0.00    +0.000 A 
ATOM      5  N   UNL     1      45.423   3.880  13.392  0.00  0.00    +0.000 N 
ATOM      6  N   UNL     1      46.728   4.133  15.296  0.00  0.00    +0.000 NA
ATOM      7  C   UNL     1      47.728   4.742  15.982  0.00  0.00    +0.000 A 
ATOM      8  H   UNL     1      45.063   3.199  14.057  0.00  0.00    +0.000 HD
ENDROOT
BRANCH   1  10
ATOM      9  N   UNL     1      49.222   7.598  16.987  0.00  0.00    +0.000 N 
ATOM     10  C   UNL     1      49.505   6.432  16.325  0.00  0.00    +0.000 C 
ATOM     11  O   UNL     1      50.597   5.894  16.424  0.00  0.00    +0.000 OA
ATOM     12  H   UNL     1      49.944   7.959  17.597  0.00  0.00    +0.000 HD
ATOM     13  H   UNL     1      48.280   7.936  17.125  0.00  0.00    +0.000 HD
ENDBRANCH   1  10
BRANCH   5  14
ATOM     14  C   UNL     1      44.464   4.420  12.417  0.00  0.00    +0.000 C 
ATOM     15  C   UNL     1      43.958   5.823  12.746  0.00  0.00    +0.000 C 
ATOM     16  C   UNL     1      42.998   4.685  12.718  0.00  0.00    +0.000 C 
BRANCH  14  17
ATOM     17  C   UNL     1      44.806   4.115  10.958  0.00  0.00    +0.000 A 
ATOM     18  C   UNL     1      44.398   2.908  10.357  0.00  0.00    +0.000 A 
ATOM     19  C   UNL     1      44.610   2.665   8.998  0.00  0.00    +0.000 A 
ATOM     20  C   UNL     1      45.245   3.626   8.223  0.00  0.00    +0.000 A 
ATOM     21  F   UNL     1      45.416   3.410   6.912  0.00  0.00    +0.000 F 
ATOM     22  C   UNL     1      45.696   4.810   8.787  0.00  0.00    +0.000 A 
ATOM     23  C   UNL     1      45.486   5.045  10.148  0.00  0.00    +0.000 A 
ENDBRANCH  14  17
ENDBRANCH   5  14
TORSDOF 3
ENDMDL
MODEL 5
REMARK VINA RESULT:    -5.629      1.974      2.725
REMARK INTER + INTRA:          -7.277
REMARK INTER:                  -7.485
REMARK INTRA:                   0.207
REMARK UNBOUND:                -0.661
REMARK  Name = 
REMARK  3 active torsions:
REMARK  status: ('A' for Active; 'I' for Inactive)
REMARK    1  A    between atoms: C_2  and  C_4
REMARK    2  A    between atoms: N_8  and  C_9
REMARK    3  A    between atoms: C_9  and  C_10
REMARK                            x       y       z     vdW  Elec       q    Type
REMARK                         _______ _______ _______ _____ _____    ______ ____
ROOT
ATOM      1  C   UNL     1      46.395   3.177   7.387  0.00  0.00    +0.000 A 
ATOM      2  C   UNL     1      46.405   4.396   8.058  0.00  0.00    +0.000 A 
ATOM      3  C   UNL     1      45.572   4.579   9.163  0.00  0.00    +0.000 A 
ATOM      4  C   UNL     1      44.745   3.542   9.584  0.00  0.00    +0.000 A 
ATOM      5  N   UNL     1      43.828   3.664  10.629  0.00  0.00    +0.000 N 
ATOM      6  N   UNL     1      44.723   2.359   8.929  0.00  0.00    +0.000 NA
ATOM      7  C   UNL     1      45.529   2.200   7.850  0.00  0.00    +0.000 A 
ATOM      8  H   UNL     1      43.422   2.740  10.758  0.00  0.00    +0.000 HD
ENDROOT
BRANCH   1  10
ATOM      9  N   UNL     1      48.530   2.556   6.411  0.00  0.00    +0.000 N 
ATOM     10  C   UNL     1      47.225   2.915   6.194  0.00  0.00    +0.000 C 
ATOM     11  O   UNL     1      46.768   2.992   5.064  0.00  0.00    +0.000 OA
ATOM     12  H   UNL     1      49.074   2.311   5.594  0.00  0.00    +0.000 HD
ATOM     13  H   UNL     1      48.872   2.249   7.311  0.00  0.00    +0.000 HD
ENDBRANCH   1  10
BRANCH   5  14
ATOM     14  C   UNL     1      43.998   4.485  11.837  0.00  0.00    +0.000 C 
ATOM     15  C   UNL     1      44.878   3.847  12.910  0.00  0.00    +0.000 C 
ATOM     16  C   UNL     1      43.443   4.118  13.204  0.00  0.00    +0.000 C 
BRANCH  14  17
ATOM     17  C   UNL     1      44.181   5.979  11.566  0.00  0.00    +0.000 A 
ATOM     18  C   UNL     1      43.121   6.759  11.065  0.00  0.00    +0.000 A 
ATOM     19  C   UNL     1      43.244   8.143  10.916  0.00  0.00    +0.000 A 
ATOM     20  C   UNL     1      44.438   8.763  11.257  0.00  0.00    +0.000 A 
ATOM     21  F   UNL     1      44.545  10.094  11.150  0.00  0.00    +0.000 F 
ATOM     22  C   UNL     1      45.518   8.024  11.717  0.00  0.00    +0.000 A 
ATOM     23  C   UNL     1      45.391   6.640  11.859  0.00  0.00    +0.000 A 
ENDBRANCH  14  17
ENDBRANCH   5  14
TORSDOF 3
ENDMDL
