MODEL 1
REMARK VINA RESULT:    -8.582      0.000      0.000
REMARK INTER + INTRA:         -12.920
REMARK INTER:                 -11.593
REMARK INTRA:                  -1.327
REMARK UNBOUND:                -1.327
REMARK  Name = 
REMARK  7 active torsions:
REMARK  status: ('A' for Active; 'I' for Inactive)
REMARK    1  A    between atoms: C_1  and  O_2
REMARK    2  A    between atoms: O_2  and  C_3
REMARK    3  A    between atoms: C_5  and  C_6
REMARK    4  A    between atoms: C_6  and  N_7
REMARK    5  A    between atoms: C_8  and  C_10
REMARK    6  A    between atoms: C_22  and  C_23
REMARK    7  A    between atoms: C_23  and  N_24
REMARK                            x       y       z     vdW  Elec       q    Type
REMARK                         _______ _______ _______ _____ _____    ______ ____
ROOT
ATOM      1  C   UNL     1      44.313   5.404  11.768  0.00  0.00    +0.000 A 
ATOM      2  C   UNL     1      44.978   6.291  12.632  0.00  0.00    +0.000 A 
ATOM      3  C   UNL     1      46.151   6.948  12.241  0.00  0.00    +0.000 A 
ATOM      4  C   UNL     1      46.687   6.672  10.984  0.00  0.00    +0.000 A 
ATOM      5  C   UNL     1      46.036   5.795  10.116  0.00  0.00    +0.000 A 
ATOM      6  C   UNL     1      44.838   5.155  10.486  0.00  0.00    +0.000 A 
ENDROOT
BRANCH   1   8
ATOM      7  C   UNL     1      43.395   3.581  12.967  0.00  0.00    +0.000 C 
ATOM      8  O   UNL     1      43.179   4.722  12.138  0.00  0.00    +0.000 OA
ENDBRANCH   1   8
BRANCH   3   9
ATOM      9  C   UNL     1      46.844   7.903  13.172  0.00  0.00    +0.000 C 
BRANCH   9  10
ATOM     10  N   UNL     1      47.322   7.235  14.353  0.00  0.00    +0.000 N 
ATOM     11  C   UNL     1      48.604   6.769  14.476  0.00  0.00    +0.000 C 
ATOM     12  O   UNL     1      49.438   6.879  13.580  0.00  0.00    +0.000 OA
ATOM     13  H   UNL     1      46.612   6.886  14.989  0.00  0.00    +0.000 HD
BRANCH  11  14
ATOM     14  C   UNL     1      48.952   6.198  15.782  0.00  0.00    +0.000 A 
ATOM     15  C   UNL     1      49.973   6.767  16.533  0.00  0.00    +0.000 A 
ATOM     16  S   UNL     1      50.217   6.007  18.040  0.00  0.00    +0.000 S 
ATOM     17  C   UNL     1      48.997   4.863  17.722  0.00  0.00    +0.000 A 
ATOM     18  N   UNL     1      48.710   3.880  18.616  0.00  0.00    +0.000 NA
ATOM     19  C   UNL     1      47.778   3.069  18.237  0.00  0.00    +0.000 A 
ATOM     20  N   UNL     1      47.100   3.160  17.050  0.00  0.00    +0.000 N 
ATOM     21  C   UNL     1      47.316   4.167  16.141  0.00  0.00    +0.000 A 
ATOM     22  O   UNL     1      46.619   4.280  15.136  0.00  0.00    +0.000 OA
ATOM     23  C   UNL     1      48.386   5.081  16.498  0.00  0.00    +0.000 A 
ATOM     24  H   UNL     1      46.363   2.507  16.823  0.00  0.00    +0.000 HD
ENDBRANCH  11  14
ENDBRANCH   9  10
ENDBRANCH   3   9
BRANCH   6  25
ATOM     25  C   UNL     1      44.162   4.254   9.469  0.00  0.00    +0.000 C 
BRANCH  25  26
ATOM     26  N   UNL     1      44.766   2.944   9.456  0.00  0.00    +0.000 N 
ATOM     27  C   UNL     1      45.603   2.558   8.446  0.00  0.00    +0.000 A 
ATOM     28  N   UNL     1      45.944   3.438   7.490  0.00  0.00    +0.000 NA
ATOM     29  C   UNL     1      46.781   3.017   6.529  0.00  0.00    +0.000 A 
ATOM     30  C   UNL     1      47.281   1.741   6.466  0.00  0.00    +0.000 A 
ATOM     31  C   UNL     1      46.880   0.911   7.483  0.00  0.00    +0.000 A 
ATOM     32  N   UNL     1      46.047   1.297   8.475  0.00  0.00    +0.000 NA
ATOM     33  H   UNL     1      44.546   2.249  10.150  0.00  0.00    +0.000 HD
ENDBRANCH  25  26
ENDBRANCH   6  25
TORSDOF 6
ENDMDL
MODEL 2
REMARK VINA RESULT:    -7.725      2.208      3.925
REMARK INTER + INTRA:         -11.762
REMARK INTER:                 -10.408
REMARK INTRA:                  -1.354
REMARK UNBOUND:                -1.327
REMARK  Name = 
REMARK  7 active torsions:
REMARK  status: ('A' for Active; 'I' for Inactive)
REMARK    1  A    between atoms: C_1  and  O_2
REMARK    2  A    between atoms: O_2  and  C_3
REMARK    3  A    between atoms: C_5  and  C_6
REMARK    4  A    between atoms: C_6  and  N_7
REMARK    5  A    between atoms: C_8  and  C_10
REMARK    6  A    between atoms: C_22  and  C_23
REMARK    7  A    between atoms: C_23  and  N_24
REMARK                            x       y       z     vdW  Elec       q    Type
REMARK                         _______ _______ _______ _____ _____    ______ ____
ROOT
ATOM      1  C   UNL     1      45.326   5.623  11.701  0.00  0.00    +0.000 A 
ATOM      2  C   UNL     1      46.106   5.656  12.869  0.00  0.00    +0.000 A 
ATOM      3  C   UNL     1      46.428   4.483  13.564  0.00  0.00    +0.000 A 
ATOM      4  C   UNL     1      45.918   3.270  13.105  0.00  0.00    +0.000 A 
ATOM      5  C   UNL     1      45.144   3.223  11.945  0.00  0.00    +0.000 A 
ATOM      6  C   UNL     1      44.843   4.392  11.220  0.00  0.00    +0.000 A 
ENDROOT
BRANCH   1   8
ATOM      7  C   UNL     1      45.103   7.979  11.749  0.00  0.00    +0.000 C 
ATOM      8  O   UNL     1      44.969   6.761  11.019  0.00  0.00    +0.000 OA
ENDBRANCH   1   8
BRANCH   3   9
ATOM      9  C   UNL     1      47.274   4.532  14.806  0.00  0.00    +0.000 C 
BRANCH   9  10
ATOM     10  N   UNL     1      47.555   5.887  15.198  0.00  0.00    +0.000 N 
ATOM     11  C   UNL     1      48.674   6.239  15.906  0.00  0.00    +0.000 C 
ATOM     12  O   UNL     1      49.515   5.420  16.266  0.00  0.00    +0.000 OA
ATOM     13  H   UNL     1      46.774   6.535  15.165  0.00  0.00    +0.000 HD
BRANCH  11  14
ATOM     14  C   UNL     1      48.854   7.676  16.141  0.00  0.00    +0.000 A 
ATOM     15  C   UNL     1      49.000   8.150  17.439  0.00  0.00    +0.000 A 
ATOM     16  S   UNL     1      49.241   9.836  17.527  0.00  0.00    +0.000 S 
ATOM     17  C   UNL     1      49.113   9.997  15.838  0.00  0.00    +0.000 A 
ATOM     18  N   UNL     1      49.198  11.218  15.243  0.00  0.00    +0.000 NA
ATOM     19  C   UNL     1      49.062  11.196  13.959  0.00  0.00    +0.000 A 
ATOM     20  N   UNL     1      48.860  10.064  13.214  0.00  0.00    +0.000 N 
ATOM     21  C   UNL     1      48.823   8.805  13.763  0.00  0.00    +0.000 A 
ATOM     22  O   UNL     1      48.746   7.804  13.057  0.00  0.00    +0.000 OA
ATOM     23  C   UNL     1      48.927   8.777  15.211  0.00  0.00    +0.000 A 
ATOM     24  H   UNL     1      48.786  10.113  12.208  0.00  0.00    +0.000 HD
ENDBRANCH  11  14
ENDBRANCH   9  10
ENDBRANCH   3   9
BRANCH   6  25
ATOM     25  C   UNL     1      44.036   4.255   9.940  0.00  0.00    +0.000 C 
BRANCH  25  26
ATOM     26  N   UNL     1      44.843   4.567   8.785  0.00  0.00    +0.000 N 
ATOM     27  C   UNL     1      45.621   3.616   8.186  0.00  0.00    +0.000 A 
ATOM     28  N   UNL     1      45.573   2.345   8.618  0.00  0.00    +0.000 NA
ATOM     29  C   UNL     1      46.343   1.445   7.987  0.00  0.00    +0.000 A 
ATOM     30  C   UNL     1      47.182   1.762   6.949  0.00  0.00    +0.000 A 
ATOM     31  C   UNL     1      47.166   3.082   6.574  0.00  0.00    +0.000 A 
ATOM     32  N   UNL     1      46.399   4.018   7.175  0.00  0.00    +0.000 NA
ATOM     33  H   UNL     1      44.912   5.502   8.422  0.00  0.00    +0.000 HD
ENDBRANCH  25  26
ENDBRANCH   6  25
TORSDOF 6
ENDMDL
MODEL 3
REMARK VINA RESULT:    -7.488      1.792      2.442
REMARK INTER + INTRA:         -11.441
REMARK INTER:                 -10.417
REMARK INTRA:                  -1.024
REMARK UNBOUND:                -1.327
REMARK  Name = 
REMARK  7 active torsions:
REMARK  status: ('A' for Active; 'I' for Inactive)
REMARK    1  A    between atoms: C_1  and  O_2
REMARK    2  A    between atoms: O_2  and  C_3
REMARK    3  A    between atoms: C_5  and  C_6
REMARK    4  A    between atoms: C_6  and  N_7
REMARK    5  A    between atoms: C_8  and  C_10
REMARK    6  A    between atoms: C_22  and  C_23
REMARK    7  A    between atoms: C_23  and  N_24
REMARK                            x       y       z     vdW  Elec       q    Type
REMARK                         _______ _______ _______ _____ _____    ______ ____
ROOT
ATOM      1  C   UNL     1      45.221   4.571  12.328  0.00  0.00    +0.000 A 
ATOM      2  C   UNL     1      46.001   5.316  13.229  0.00  0.00    +0.000 A 
ATOM      3  C   UNL     1      46.752   6.419  12.802  0.00  0.00    +0.000 A 
ATOM      4  C   UNL     1      46.755   6.745  11.447  0.00  0.00    +0.000 A 
ATOM      5  C   UNL     1      45.984   6.015  10.544  0.00  0.00    +0.000 A 
ATOM      6  C   UNL     1      45.199   4.925  10.967  0.00  0.00    +0.000 A 
ENDROOT
BRANCH   1   8
ATOM      7  C   UNL     1      43.188   3.732  13.204  0.00  0.00    +0.000 C 
ATOM      8  O   UNL     1      44.501   3.466  12.714  0.00  0.00    +0.000 OA
ENDBRANCH   1   8
BRANCH   3   9
ATOM      9  C   UNL     1      47.573   7.215  13.779  0.00  0.00    +0.000 C 
BRANCH   9  10
ATOM     10  N   UNL     1      48.163   6.370  14.782  0.00  0.00    +0.000 N 
ATOM     11  C   UNL     1      48.665   6.855  15.961  0.00  0.00    +0.000 C 
ATOM     12  O   UNL     1      48.656   8.050  16.243  0.00  0.00    +0.000 OA
ATOM     13  H   UNL     1      48.436   5.439  14.482  0.00  0.00    +0.000 HD
BRANCH  11  14
ATOM     14  C   UNL     1      49.144   5.846  16.913  0.00  0.00    +0.000 A 
ATOM     15  C   UNL     1      48.228   5.087  17.632  0.00  0.00    +0.000 A 
ATOM     16  S   UNL     1      48.954   3.935  18.659  0.00  0.00    +0.000 S 
ATOM     17  C   UNL     1      50.517   4.442  18.213  0.00  0.00    +0.000 A 
ATOM     18  N   UNL     1      51.621   3.871  18.764  0.00  0.00    +0.000 NA
ATOM     19  C   UNL     1      52.740   4.366  18.351  0.00  0.00    +0.000 A 
ATOM     20  N   UNL     1      52.855   5.372  17.428  0.00  0.00    +0.000 N 
ATOM     21  C   UNL     1      51.772   5.940  16.803  0.00  0.00    +0.000 A 
ATOM     22  O   UNL     1      51.914   6.765  15.904  0.00  0.00    +0.000 OA
ATOM     23  C   UNL     1      50.485   5.450  17.264  0.00  0.00    +0.000 A 
ATOM     24  H   UNL     1      53.764   5.698  17.128  0.00  0.00    +0.000 HD
ENDBRANCH  11  14
ENDBRANCH   9  10
ENDBRANCH   3   9
BRANCH   6  25
ATOM     25  C   UNL     1      44.347   4.210   9.933  0.00  0.00    +0.000 C 
BRANCH  25  26
ATOM     26  N   UNL     1      44.795   2.851   9.744  0.00  0.00    +0.000 N 
ATOM     27  C   UNL     1      45.629   2.517   8.714  0.00  0.00    +0.000 A 
ATOM     28  N   UNL     1      46.116   3.477   7.911  0.00  0.00    +0.000 NA
ATOM     29  C   UNL     1      46.944   3.100   6.923  0.00  0.00    +0.000 A 
ATOM     30  C   UNL     1      47.294   1.795   6.687  0.00  0.00    +0.000 A 
ATOM     31  C   UNL     1      46.751   0.883   7.556  0.00  0.00    +0.000 A 
ATOM     32  N   UNL     1      45.922   1.220   8.568  0.00  0.00    +0.000 NA
ATOM     33  H   UNL     1      44.462   2.097  10.319  0.00  0.00    +0.000 HD
ENDBRANCH  25  26
ENDBRANCH   6  25
TORSDOF 6
ENDMDL
MODEL 4
REMARK VINA RESULT:    -7.416      4.284      8.987
REMARK INTER + INTRA:         -11.344
REMARK INTER:                 -10.481
REMARK INTRA:                  -0.863
REMARK UNBOUND:                -1.327
REMARK  Name = 
REMARK  7 active torsions:
REMARK  status: ('A' for Active; 'I' for Inactive)
REMARK    1  A    between atoms: C_1  and  O_2
REMARK    2  A    between atoms: O_2  and  C_3
REMARK    3  A    between atoms: C_5  and  C_6
REMARK    4  A    between atoms: C_6  and  N_7
REMARK    5  A    between atoms: C_8  and  C_10
REMARK    6  A    between atoms: C_22  and  C_23
REMARK    7  A    between atoms: C_23  and  N_24
REMARK                            x       y       z     vdW  Elec       q    Type
REMARK                         _______ _______ _______ _____ _____    ______ ____
ROOT
ATOM      1  C   UNL     1      50.668   4.206  18.116  0.00  0.00    +0.000 A 
ATOM      2  C   UNL     1      49.292   4.313  17.851  0.00  0.00    +0.000 A 
ATOM      3  C   UNL     1      48.591   3.283  17.211  0.00  0.00    +0.000 A 
ATOM      4  C   UNL     1      49.292   2.155  16.789  0.00  0.00    +0.000 A 
ATOM      5  C   UNL     1      50.658   2.036  17.047  0.00  0.00    +0.000 A 
ATOM      6  C   UNL     1      51.366   3.050  17.720  0.00  0.00    +0.000 A 
ENDROOT
BRANCH   1   8
ATOM      7  C   UNL     1      51.201   6.512  18.152  0.00  0.00    +0.000 C 
ATOM      8  O   UNL     1      51.386   5.214  18.713  0.00  0.00    +0.000 OA
ENDBRANCH   1   8
BRANCH   3   9
ATOM      9  C   UNL     1      47.116   3.407  16.945  0.00  0.00    +0.000 C 
BRANCH   9  10
ATOM     10  N   UNL     1      46.842   4.406  15.947  0.00  0.00    +0.000 N 
ATOM     11  C   UNL     1      46.924   4.153  14.603  0.00  0.00    +0.000 C 
ATOM     12  O   UNL     1      47.247   3.057  14.152  0.00  0.00    +0.000 OA
ATOM     13  H   UNL     1      46.843   5.370  16.264  0.00  0.00    +0.000 HD
BRANCH  11  14
ATOM     14  C   UNL     1      46.519   5.256  13.722  0.00  0.00    +0.000 A 
ATOM     15  C   UNL     1      47.383   6.324  13.514  0.00  0.00    +0.000 A 
ATOM     16  S   UNL     1      46.773   7.493  12.432  0.00  0.00    +0.000 S 
ATOM     17  C   UNL     1      45.316   6.635  12.240  0.00  0.00    +0.000 A 
ATOM     18  N   UNL     1      44.320   7.115  11.448  0.00  0.00    +0.000 NA
ATOM     19  C   UNL     1      43.264   6.374  11.410  0.00  0.00    +0.000 A 
ATOM     20  N   UNL     1      43.117   5.189  12.083  0.00  0.00    +0.000 N 
ATOM     21  C   UNL     1      44.114   4.637  12.849  0.00  0.00    +0.000 A 
ATOM     22  O   UNL     1      43.989   3.524  13.353  0.00  0.00    +0.000 OA
ATOM     23  C   UNL     1      45.310   5.453  12.962  0.00  0.00    +0.000 A 
ATOM     24  H   UNL     1      42.271   4.643  11.992  0.00  0.00    +0.000 HD
ENDBRANCH  11  14
ENDBRANCH   9  10
ENDBRANCH   3   9
BRANCH   6  25
ATOM     25  C   UNL     1      52.840   2.826  18.009  0.00  0.00    +0.000 C 
BRANCH  25  26
ATOM     26  N   UNL     1      53.045   1.584  18.716  0.00  0.00    +0.000 N 
ATOM     27  C   UNL     1      53.711   0.540  18.136  0.00  0.00    +0.000 A 
ATOM     28  N   UNL     1      54.263   0.693  16.922  0.00  0.00    +0.000 NA
ATOM     29  C   UNL     1      54.920  -0.356  16.402  0.00  0.00    +0.000 A 
ATOM     30  C   UNL     1      55.034  -1.567  17.036  0.00  0.00    +0.000 A 
ATOM     31  C   UNL     1      54.439  -1.633  18.271  0.00  0.00    +0.000 A 
ATOM     32  N   UNL     1      53.777  -0.598  18.835  0.00  0.00    +0.000 NA
ATOM     33  H   UNL     1      52.653   1.420  19.628  0.00  0.00    +0.000 HD
ENDBRANCH  25  26
ENDBRANCH   6  25
TORSDOF 6
ENDMDL
MODEL 5
REMARK VINA RESULT:    -7.305      2.761      3.508
REMARK INTER + INTRA:         -11.194
REMARK INTER:                  -9.869
REMARK INTRA:                  -1.325
REMARK UNBOUND:                -1.327
REMARK  Name = 
REMARK  7 active torsions:
REMARK  status: ('A' for Active; 'I' for Inactive)
REMARK    1  A    between atoms: C_1  and  O_2
REMARK    2  A    between atoms: O_2  and  C_3
REMARK    3  A    between atoms: C_5  and  C_6
REMARK    4  A    between atoms: C_6  and  N_7
REMARK    5  A    between atoms: C_8  and  C_10
REMARK    6  A    between atoms: C_22  and  C_23
REMARK    7  A    between atoms: C_23  and  N_24
REMARK                            x       y       z     vdW  Elec       q    Type
REMARK                         _______ _______ _______ _____ _____    ______ ____
ROOT
ATOM      1  C   UNL     1      45.895   6.023  12.154  0.00  0.00    +0.000 A 
ATOM      2  C   UNL     1      46.740   5.943  13.274  0.00  0.00    +0.000 A 
ATOM      3  C   UNL     1      46.916   4.740  13.969  0.00  0.00    +0.000 A 
ATOM      4  C   UNL     1      46.197   3.618  13.561  0.00  0.00    +0.000 A 
ATOM      5  C   UNL     1      45.356   3.684  12.450  0.00  0.00    +0.000 A 
ATOM      6  C   UNL     1      45.198   4.879  11.723  0.00  0.00    +0.000 A 
ENDROOT
BRANCH   1   8
ATOM      7  C   UNL     1      45.299   8.311  12.282  0.00  0.00    +0.000 C 
ATOM      8  O   UNL     1      45.680   7.198  11.474  0.00  0.00    +0.000 OA
ENDBRANCH   1   8
BRANCH   3   9
ATOM      9  C   UNL     1      47.832   4.666  15.159  0.00  0.00    +0.000 C 
BRANCH   9  10
ATOM     10  N   UNL     1      47.812   5.889  15.916  0.00  0.00    +0.000 N 
ATOM     11  C   UNL     1      48.911   6.694  16.056  0.00  0.00    +0.000 C 
ATOM     12  O   UNL     1      49.999   6.425  15.553  0.00  0.00    +0.000 OA
ATOM     13  H   UNL     1      47.036   6.005  16.560  0.00  0.00    +0.000 HD
BRANCH  11  14
ATOM     14  C   UNL     1      48.691   7.951  16.781  0.00  0.00    +0.000 A 
ATOM     15  C   UNL     1      48.963   9.163  16.157  0.00  0.00    +0.000 A 
ATOM     16  S   UNL     1      48.612  10.522  17.126  0.00  0.00    +0.000 S 
ATOM     17  C   UNL     1      48.129   9.538  18.427  0.00  0.00    +0.000 A 
ATOM     18  N   UNL     1      47.728  10.085  19.607  0.00  0.00    +0.000 NA
ATOM     19  C   UNL     1      47.410   9.223  20.514  0.00  0.00    +0.000 A 
ATOM     20  N   UNL     1      47.444   7.864  20.345  0.00  0.00    +0.000 N 
ATOM     21  C   UNL     1      47.787   7.267  19.156  0.00  0.00    +0.000 A 
ATOM     22  O   UNL     1      47.705   6.050  19.007  0.00  0.00    +0.000 OA
ATOM     23  C   UNL     1      48.197   8.191  18.115  0.00  0.00    +0.000 A 
ATOM     24  H   UNL     1      47.158   7.242  21.089  0.00  0.00    +0.000 HD
ENDBRANCH  11  14
ENDBRANCH   9  10
ENDBRANCH   3   9
BRANCH   6  25
ATOM     25  C   UNL     1      44.305   4.860  10.495  0.00  0.00    +0.000 C 
BRANCH  25  26
ATOM     26  N   UNL     1      45.071   5.096   9.295  0.00  0.00    +0.000 N 
ATOM     27  C   UNL     1      45.637   4.063   8.601  0.00  0.00    +0.000 A 
ATOM     28  N   UNL     1      45.407   2.797   8.984  0.00  0.00    +0.000 NA
ATOM     29  C   UNL     1      45.971   1.817   8.261  0.00  0.00    +0.000 A 
ATOM     30  C   UNL     1      46.778   2.046   7.175  0.00  0.00    +0.000 A 
ATOM     31  C   UNL     1      46.957   3.369   6.856  0.00  0.00    +0.000 A 
ATOM     32  N   UNL     1      46.399   4.385   7.551  0.00  0.00    +0.000 NA
ATOM     33  H   UNL     1      45.269   6.025   8.965  0.00  0.00    +0.000 HD
ENDBRANCH  25  26
ENDBRANCH   6  25
TORSDOF 6
ENDMDL
MODEL 6
REMARK VINA RESULT:    -7.022      4.375      9.052
REMARK INTER + INTRA:         -10.812
REMARK INTER:                  -9.576
REMARK INTRA:                  -1.235
REMARK UNBOUND:                -1.327
REMARK  Name = 
REMARK  7 active torsions:
REMARK  status: ('A' for Active; 'I' for Inactive)
REMARK    1  A    between atoms: C_1  and  O_2
REMARK    2  A    between atoms: O_2  and  C_3
REMARK    3  A    between atoms: C_5  and  C_6
REMARK    4  A    between atoms: C_6  and  N_7
REMARK    5  A    between atoms: C_8  and  C_10
REMARK    6  A    between atoms: C_22  and  C_23
REMARK    7  A    between atoms: C_23  and  N_24
REMARK                            x       y       z     vdW  Elec       q    Type
REMARK                         _______ _______ _______ _____ _____    ______ ____
ROOT
ATOM      1  C   UNL     1      51.026   4.196  17.760  0.00  0.00    +0.000 A 
ATOM      2  C   UNL     1      49.657   4.426  17.545  0.00  0.00    +0.000 A 
ATOM      3  C   UNL     1      48.793   3.388  17.170  0.00  0.00    +0.000 A 
ATOM      4  C   UNL     1      49.323   2.116  16.963  0.00  0.00    +0.000 A 
ATOM      5  C   UNL     1      50.681   1.874  17.175  0.00  0.00    +0.000 A 
ATOM      6  C   UNL     1      51.551   2.902  17.585  0.00  0.00    +0.000 A 
ENDROOT
BRANCH   1   8
ATOM      7  C   UNL     1      52.232   6.102  17.040  0.00  0.00    +0.000 C 
ATOM      8  O   UNL     1      51.900   5.202  18.096  0.00  0.00    +0.000 OA
ENDBRANCH   1   8
BRANCH   3   9
ATOM      9  C   UNL     1      47.328   3.647  16.955  0.00  0.00    +0.000 C 
BRANCH   9  10
ATOM     10  N   UNL     1      47.112   4.627  15.924  0.00  0.00    +0.000 N 
ATOM     11  C   UNL     1      47.088   4.309  14.592  0.00  0.00    +0.000 C 
ATOM     12  O   UNL     1      47.259   3.165  14.179  0.00  0.00    +0.000 OA
ATOM     13  H   UNL     1      47.239   5.597  16.193  0.00  0.00    +0.000 HD
BRANCH  11  14
ATOM     14  C   UNL     1      46.760   5.412  13.680  0.00  0.00    +0.000 A 
ATOM     15  C   UNL     1      45.576   5.376  12.952  0.00  0.00    +0.000 A 
ATOM     16  S   UNL     1      45.334   6.753  11.976  0.00  0.00    +0.000 S 
ATOM     17  C   UNL     1      46.822   7.424  12.457  0.00  0.00    +0.000 A 
ATOM     18  N   UNL     1      47.249   8.613  11.954  0.00  0.00    +0.000 NA
ATOM     19  C   UNL     1      48.404   8.992  12.389  0.00  0.00    +0.000 A 
ATOM     20  N   UNL     1      49.167   8.296  13.290  0.00  0.00    +0.000 N 
ATOM     21  C   UNL     1      48.753   7.120  13.867  0.00  0.00    +0.000 A 
ATOM     22  O   UNL     1      49.413   6.577  14.749  0.00  0.00    +0.000 OA
ATOM     23  C   UNL     1      47.478   6.626  13.379  0.00  0.00    +0.000 A 
ATOM     24  H   UNL     1      50.054   8.661  13.609  0.00  0.00    +0.000 HD
ENDBRANCH  11  14
ENDBRANCH   9  10
ENDBRANCH   3   9
BRANCH   6  25
ATOM     25  C   UNL     1      53.006   2.551  17.844  0.00  0.00    +0.000 C 
BRANCH  25  26
ATOM     26  N   UNL     1      53.114   1.345  18.629  0.00  0.00    +0.000 N 
ATOM     27  C   UNL     1      53.780   0.248  18.155  0.00  0.00    +0.000 A 
ATOM     28  N   UNL     1      54.423   0.315  16.978  0.00  0.00    +0.000 NA
ATOM     29  C   UNL     1      55.076  -0.783  16.564  0.00  0.00    +0.000 A 
ATOM     30  C   UNL     1      55.099  -1.960  17.268  0.00  0.00    +0.000 A 
ATOM     31  C   UNL     1      54.416  -1.937  18.458  0.00  0.00    +0.000 A 
ATOM     32  N   UNL     1      53.755  -0.851  18.916  0.00  0.00    +0.000 NA
ATOM     33  H   UNL     1      52.653   1.245  19.517  0.00  0.00    +0.000 HD
ENDBRANCH  25  26
ENDBRANCH   6  25
TORSDOF 6
ENDMDL
MODEL 7
REMARK VINA RESULT:    -6.868      2.903      4.497
REMARK INTER + INTRA:         -10.604
REMARK INTER:                  -9.819
REMARK INTRA:                  -0.785
REMARK UNBOUND:                -1.327
REMARK  Name = 
REMARK  7 active torsions:
REMARK  status: ('A' for Active; 'I' for Inactive)
REMARK    1  A    between atoms: C_1  and  O_2
REMARK    2  A    between atoms: O_2  and  C_3
REMARK    3  A    between atoms: C_5  and  C_6
REMARK    4  A    between atoms: C_6  and  N_7
REMARK    5  A    between atoms: C_8  and  C_10
REMARK    6  A    between atoms: C_22  and  C_23
REMARK    7  A    between atoms: C_23  and  N_24
REMARK                            x       y       z     vdW  Elec       q    Type
REMARK                         _______ _______ _______ _____ _____    ______ ____
ROOT
ATOM      1  C   UNL     1      45.474   4.092  12.448  0.00  0.00    +0.000 A 
ATOM      2  C   UNL     1      46.331   4.389  13.522  0.00  0.00    +0.000 A 
ATOM      3  C   UNL     1      47.008   5.612  13.596  0.00  0.00    +0.000 A 
ATOM      4  C   UNL     1      46.860   6.526  12.554  0.00  0.00    +0.000 A 
ATOM      5  C   UNL     1      46.011   6.244  11.484  0.00  0.00    +0.000 A 
ATOM      6  C   UNL     1      45.299   5.031  11.416  0.00  0.00    +0.000 A 
ENDROOT
BRANCH   1   8
ATOM      7  C   UNL     1      43.408   2.938  12.510  0.00  0.00    +0.000 C 
ATOM      8  O   UNL     1      44.823   2.887  12.335  0.00  0.00    +0.000 OA
ENDBRANCH   1   8
BRANCH   3   9
ATOM      9  C   UNL     1      47.913   5.921  14.757  0.00  0.00    +0.000 C 
BRANCH   9  10
ATOM     10  N   UNL     1      48.705   7.096  14.510  0.00  0.00    +0.000 N 
ATOM     11  C   UNL     1      49.952   7.277  15.046  0.00  0.00    +0.000 C 
ATOM     12  O   UNL     1      50.482   6.452  15.787  0.00  0.00    +0.000 OA
ATOM     13  H   UNL     1      48.210   7.902  14.142  0.00  0.00    +0.000 HD
BRANCH  11  14
ATOM     14  C   UNL     1      50.661   8.488  14.616  0.00  0.00    +0.000 A 
ATOM     15  C   UNL     1      51.152   9.374  15.567  0.00  0.00    +0.000 A 
ATOM     16  S   UNL     1      51.984  10.703  14.896  0.00  0.00    +0.000 S 
ATOM     17  C   UNL     1      51.679  10.163  13.311  0.00  0.00    +0.000 A 
ATOM     18  N   UNL     1      52.104  10.877  12.235  0.00  0.00    +0.000 NA
ATOM     19  C   UNL     1      51.786  10.364  11.093  0.00  0.00    +0.000 A 
ATOM     20  N   UNL     1      51.091   9.194  10.930  0.00  0.00    +0.000 N 
ATOM     21  C   UNL     1      50.690   8.410  11.985  0.00  0.00    +0.000 A 
ATOM     22  O   UNL     1      50.162   7.317  11.802  0.00  0.00    +0.000 OA
ATOM     23  C   UNL     1      50.984   8.966  13.294  0.00  0.00    +0.000 A 
ATOM     24  H   UNL     1      50.894   8.833  10.007  0.00  0.00    +0.000 HD
ENDBRANCH  11  14
ENDBRANCH   9  10
ENDBRANCH   3   9
BRANCH   6  25
ATOM     25  C   UNL     1      44.355   4.817  10.245  0.00  0.00    +0.000 C 
BRANCH  25  26
ATOM     26  N   UNL     1      45.053   4.949   8.989  0.00  0.00    +0.000 N 
ATOM     27  C   UNL     1      45.646   3.872   8.391  0.00  0.00    +0.000 A 
ATOM     28  N   UNL     1      45.507   2.650   8.929  0.00  0.00    +0.000 NA
ATOM     29  C   UNL     1      46.095   1.622   8.297  0.00  0.00    +0.000 A 
ATOM     30  C   UNL     1      46.838   1.763   7.152  0.00  0.00    +0.000 A 
ATOM     31  C   UNL     1      46.926   3.045   6.673  0.00  0.00    +0.000 A 
ATOM     32  N   UNL     1      46.342   4.106   7.273  0.00  0.00    +0.000 NA
ATOM     33  H   UNL     1      45.183   5.841   8.543  0.00  0.00    +0.000 HD
ENDBRANCH  25  26
ENDBRANCH   6  25
TORSDOF 6
ENDMDL
MODEL 8
REMARK VINA RESULT:    -6.842      3.106      7.975
REMARK INTER + INTRA:         -10.570
REMARK INTER:                  -9.421
REMARK INTRA:                  -1.149
REMARK UNBOUND:                -1.327
REMARK  Name = 
REMARK  7 active torsions:
REMARK  status: ('A' for Active; 'I' for Inactive)
REMARK    1  A    between atoms: C_1  and  O_2
REMARK    2  A    between atoms: O_2  and  C_3
REMARK    3  A    between atoms: C_5  and  C_6
REMARK    4  A    between atoms: C_6  and  N_7
REMARK    5  A    between atoms: C_8  and  C_10
REMARK    6  A    between atoms: C_22  and  C_23
REMARK    7  A    between atoms: C_23  and  N_24
REMARK                            x       y       z     vdW  Elec       q    Type
REMARK                         _______ _______ _______ _____ _____    ______ ____
ROOT
ATOM      1  C   UNL     1      48.524   5.688  16.402  0.00  0.00    +0.000 A 
ATOM      2  C   UNL     1      48.201   6.152  15.115  0.00  0.00    +0.000 A 
ATOM      3  C   UNL     1      49.071   6.986  14.402  0.00  0.00    +0.000 A 
ATOM      4  C   UNL     1      50.257   7.396  15.009  0.00  0.00    +0.000 A 
ATOM      5  C   UNL     1      50.590   6.940  16.285  0.00  0.00    +0.000 A 
ATOM      6  C   UNL     1      49.738   6.075  16.998  0.00  0.00    +0.000 A 
ENDROOT
BRANCH   1   8
ATOM      7  C   UNL     1      47.275   3.680  16.507  0.00  0.00    +0.000 C 
ATOM      8  O   UNL     1      47.674   4.897  17.136  0.00  0.00    +0.000 OA
ENDBRANCH   1   8
BRANCH   3   9
ATOM      9  C   UNL     1      48.718   7.465  13.021  0.00  0.00    +0.000 C 
BRANCH   9  10
ATOM     10  N   UNL     1      47.863   6.529  12.341  0.00  0.00    +0.000 N 
ATOM     11  C   UNL     1      46.569   6.819  11.998  0.00  0.00    +0.000 C 
ATOM     12  O   UNL     1      46.040   7.898  12.255  0.00  0.00    +0.000 OA
ATOM     13  H   UNL     1      48.158   5.558  12.356  0.00  0.00    +0.000 HD
BRANCH  11  14
ATOM     14  C   UNL     1      45.868   5.787  11.225  0.00  0.00    +0.000 A 
ATOM     15  C   UNL     1      45.980   5.768   9.840  0.00  0.00    +0.000 A 
ATOM     16  S   UNL     1      45.139   4.480   9.104  0.00  0.00    +0.000 S 
ATOM     17  C   UNL     1      44.558   3.930  10.607  0.00  0.00    +0.000 A 
ATOM     18  N   UNL     1      43.732   2.852  10.685  0.00  0.00    +0.000 NA
ATOM     19  C   UNL     1      43.351   2.558  11.884  0.00  0.00    +0.000 A 
ATOM     20  N   UNL     1      43.730   3.237  13.012  0.00  0.00    +0.000 N 
ATOM     21  C   UNL     1      44.606   4.296  12.988  0.00  0.00    +0.000 A 
ATOM     22  O   UNL     1      45.007   4.814  14.027  0.00  0.00    +0.000 OA
ATOM     23  C   UNL     1      45.031   4.696  11.659  0.00  0.00    +0.000 A 
ATOM     24  H   UNL     1      43.415   2.940  13.925  0.00  0.00    +0.000 HD
ENDBRANCH  11  14
ENDBRANCH   9  10
ENDBRANCH   3   9
BRANCH   6  25
ATOM     25  C   UNL     1      50.193   5.582  18.361  0.00  0.00    +0.000 C 
BRANCH  25  26
ATOM     26  N   UNL     1      51.518   5.017  18.290  0.00  0.00    +0.000 N 
ATOM     27  C   UNL     1      51.710   3.694  18.001  0.00  0.00    +0.000 A 
ATOM     28  N   UNL     1      50.659   2.920  17.690  0.00  0.00    +0.000 NA
ATOM     29  C   UNL     1      50.900   1.632  17.398  0.00  0.00    +0.000 A 
ATOM     30  C   UNL     1      52.152   1.072  17.424  0.00  0.00    +0.000 A 
ATOM     31  C   UNL     1      53.166   1.936  17.752  0.00  0.00    +0.000 A 
ATOM     32  N   UNL     1      52.968   3.241  18.042  0.00  0.00    +0.000 NA
ATOM     33  H   UNL     1      52.339   5.554  18.512  0.00  0.00    +0.000 HD
ENDBRANCH  25  26
ENDBRANCH   6  25
TORSDOF 6
ENDMDL
MODEL 9
REMARK VINA RESULT:    -6.707      3.507      8.055
REMARK INTER + INTRA:         -10.387
REMARK INTER:                  -8.906
REMARK INTRA:                  -1.481
REMARK UNBOUND:                -1.327
REMARK  Name = 
REMARK  7 active torsions:
REMARK  status: ('A' for Active; 'I' for Inactive)
REMARK    1  A    between atoms: C_1  and  O_2
REMARK    2  A    between atoms: O_2  and  C_3
REMARK    3  A    between atoms: C_5  and  C_6
REMARK    4  A    between atoms: C_6  and  N_7
REMARK    5  A    between atoms: C_8  and  C_10
REMARK    6  A    between atoms: C_22  and  C_23
REMARK    7  A    between atoms: C_23  and  N_24
REMARK                            x       y       z     vdW  Elec       q    Type
REMARK                         _______ _______ _______ _____ _____    ______ ____
ROOT
ATOM      1  C   UNL     1      48.827   5.070  17.036  0.00  0.00    +0.000 A 
ATOM      2  C   UNL     1      48.357   5.908  16.011  0.00  0.00    +0.000 A 
ATOM      3  C   UNL     1      49.190   6.861  15.409  0.00  0.00    +0.000 A 
ATOM      4  C   UNL     1      50.494   7.004  15.878  0.00  0.00    +0.000 A 
ATOM      5  C   UNL     1      50.973   6.176  16.894  0.00  0.00    +0.000 A 
ATOM      6  C   UNL     1      50.155   5.193  17.483  0.00  0.00    +0.000 A 
ENDROOT
BRANCH   1   8
ATOM      7  C   UNL     1      47.535   3.096  16.836  0.00  0.00    +0.000 C 
ATOM      8  O   UNL     1      48.022   4.151  17.665  0.00  0.00    +0.000 OA
ENDBRANCH   1   8
BRANCH   3   9
ATOM      9  C   UNL     1      48.676   7.742  14.304  0.00  0.00    +0.000 C 
BRANCH   9  10
ATOM     10  N   UNL     1      47.415   7.271  13.797  0.00  0.00    +0.000 N 
ATOM     11  C   UNL     1      47.147   7.166  12.458  0.00  0.00    +0.000 C 
ATOM     12  O   UNL     1      47.960   7.476  11.591  0.00  0.00    +0.000 OA
ATOM     13  H   UNL     1      46.641   7.268  14.452  0.00  0.00    +0.000 HD
BRANCH  11  14
ATOM     14  C   UNL     1      45.847   6.577  12.113  0.00  0.00    +0.000 A 
ATOM     15  C   UNL     1      44.867   7.367  11.525  0.00  0.00    +0.000 A 
ATOM     16  S   UNL     1      43.437   6.516  11.153  0.00  0.00    +0.000 S 
ATOM     17  C   UNL     1      44.061   5.073  11.806  0.00  0.00    +0.000 A 
ATOM     18  N   UNL     1      43.315   3.937  11.832  0.00  0.00    +0.000 NA
ATOM     19  C   UNL     1      43.904   2.924  12.375  0.00  0.00    +0.000 A 
ATOM     20  N   UNL     1      45.176   2.941  12.884  0.00  0.00    +0.000 N 
ATOM     21  C   UNL     1      45.987   4.048  12.829  0.00  0.00    +0.000 A 
ATOM     22  O   UNL     1      47.158   4.000  13.198  0.00  0.00    +0.000 OA
ATOM     23  C   UNL     1      45.357   5.230  12.268  0.00  0.00    +0.000 A 
ATOM     24  H   UNL     1      45.589   2.105  13.274  0.00  0.00    +0.000 HD
ENDBRANCH  11  14
ENDBRANCH   9  10
ENDBRANCH   3   9
BRANCH   6  25
ATOM     25  C   UNL     1      50.763   4.298  18.548  0.00  0.00    +0.000 C 
BRANCH  25  26
ATOM     26  N   UNL     1      50.865   2.936  18.082  0.00  0.00    +0.000 N 
ATOM     27  C   UNL     1      52.082   2.347  17.874  0.00  0.00    +0.000 A 
ATOM     28  N   UNL     1      53.206   3.009  18.191  0.00  0.00    +0.000 NA
ATOM     29  C   UNL     1      54.375   2.383  17.983  0.00  0.00    +0.000 A 
ATOM     30  C   UNL     1      54.474   1.123  17.451  0.00  0.00    +0.000 A 
ATOM     31  C   UNL     1      53.276   0.522  17.158  0.00  0.00    +0.000 A 
ATOM     32  N   UNL     1      52.077   1.113  17.361  0.00  0.00    +0.000 NA
ATOM     33  H   UNL     1      50.054   2.396  17.834  0.00  0.00    +0.000 HD
ENDBRANCH  25  26
ENDBRANCH   6  25
TORSDOF 6
ENDMDL
