MODEL 1
REMARK VINA RESULT:    -8.141      0.000      0.000
REMARK INTER + INTRA:         -11.918
REMARK INTER:                 -11.234
REMARK INTRA:                  -0.684
REMARK UNBOUND:                -0.684
REMARK  Name = 
REMARK  7 active torsions:
REMARK  status: ('A' for Active; 'I' for Inactive)
REMARK    1  A    between atoms: N_1  and  C_2
REMARK    2  A    between atoms: C_2  and  C_3
REMARK    3  A    between atoms: C_3  and  N_4
REMARK    4  A    between atoms: C_3  and  C_17
REMARK    5  A    between atoms: C_5  and  C_7
REMARK    6  A    between atoms: C_20  and  O_21
REMARK    7  A    between atoms: O_21  and  C_22
REMARK                            x       y       z     vdW  Elec       q    Type
REMARK                         _______ _______ _______ _____ _____    ______ ____
ROOT
ATOM      1  C   UNL     1      46.389   6.929  12.742  0.00  0.00    +0.000 C 
ENDROOT
BRANCH   1   2
ATOM      2  C   UNL     1      45.916   5.902  11.709  0.00  0.00    +0.000 A 
ATOM      3  C   UNL     1      45.334   4.700  12.140  0.00  0.00    +0.000 A 
ATOM      4  C   UNL     1      44.898   3.742  11.217  0.00  0.00    +0.000 A 
ATOM      5  C   UNL     1      44.992   3.983   9.845  0.00  0.00    +0.000 A 
ATOM      6  C   UNL     1      45.594   5.163   9.404  0.00  0.00    +0.000 A 
ATOM      7  C   UNL     1      46.048   6.117  10.327  0.00  0.00    +0.000 A 
BRANCH   5   8
ATOM      8  O   UNL     1      44.590   3.085   8.880  0.00  0.00    +0.000 OA
BRANCH   8   9
ATOM      9  C   UNL     1      45.562   2.503   8.070  0.00  0.00    +0.000 A 
ATOM     10  C   UNL     1      45.972   3.228   6.961  0.00  0.00    +0.000 A 
ATOM     11  C   UNL     1      46.963   2.685   6.145  0.00  0.00    +0.000 A 
ATOM     12  C   UNL     1      47.504   1.443   6.465  0.00  0.00    +0.000 A 
ATOM     13  C   UNL     1      47.013   0.782   7.576  0.00  0.00    +0.000 A 
ATOM     14  N   UNL     1      46.043   1.275   8.372  0.00  0.00    +0.000 NA
ENDBRANCH   8   9
ENDBRANCH   5   8
ENDBRANCH   1   2
BRANCH   1  15
ATOM     15  N   UNL     1      46.609   6.263  14.022  0.00  0.00    +0.000 N 
ATOM     16  C   UNL     1      47.863   5.933  14.472  0.00  0.00    +0.000 C 
ATOM     17  O   UNL     1      48.893   6.272  13.898  0.00  0.00    +0.000 OA
ATOM     18  H   UNL     1      45.814   5.751  14.395  0.00  0.00    +0.000 HD
BRANCH  16  19
ATOM     19  C   UNL     1      47.924   5.172  15.724  0.00  0.00    +0.000 A 
ATOM     20  C   UNL     1      47.477   3.857  15.769  0.00  0.00    +0.000 A 
ATOM     21  S   UNL     1      47.565   3.166  17.326  0.00  0.00    +0.000 S 
ATOM     22  C   UNL     1      48.164   4.612  17.996  0.00  0.00    +0.000 A 
ATOM     23  N   UNL     1      48.393   4.729  19.331  0.00  0.00    +0.000 NA
ATOM     24  C   UNL     1      48.804   5.900  19.698  0.00  0.00    +0.000 A 
ATOM     25  N   UNL     1      49.032   6.950  18.850  0.00  0.00    +0.000 N 
ATOM     26  C   UNL     1      48.885   6.856  17.488  0.00  0.00    +0.000 A 
ATOM     27  O   UNL     1      49.219   7.766  16.740  0.00  0.00    +0.000 OA
ATOM     28  C   UNL     1      48.353   5.586  17.033  0.00  0.00    +0.000 A 
ATOM     29  H   UNL     1      49.400   7.829  19.193  0.00  0.00    +0.000 HD
ENDBRANCH  16  19
ENDBRANCH   1  15
BRANCH   1  30
ATOM     30  C   UNL     1      45.396   8.123  12.881  0.00  0.00    +0.000 C 
BRANCH  30  31
ATOM     31  N   UNL     1      46.019   9.452  12.905  0.00  0.00    +0.000 NA
ATOM     32  H   UNL     1      46.230   9.691  13.873  0.00  0.00    +0.000 HD
ATOM     33  H   UNL     1      45.351  10.147  12.575  0.00  0.00    +0.000 HD
ENDBRANCH  30  31
ENDBRANCH   1  30
TORSDOF 7
ENDMDL
MODEL 2
REMARK VINA RESULT:    -8.131      1.671      2.226
REMARK INTER + INTRA:         -11.905
REMARK INTER:                 -11.148
REMARK INTRA:                  -0.757
REMARK UNBOUND:                -0.684
REMARK  Name = 
REMARK  7 active torsions:
REMARK  status: ('A' for Active; 'I' for Inactive)
REMARK    1  A    between atoms: N_1  and  C_2
REMARK    2  A    between atoms: C_2  and  C_3
REMARK    3  A    between atoms: C_3  and  N_4
REMARK    4  A    between atoms: C_3  and  C_17
REMARK    5  A    between atoms: C_5  and  C_7
REMARK    6  A    between atoms: C_20  and  O_21
REMARK    7  A    between atoms: O_21  and  C_22
REMARK                            x       y       z     vdW  Elec       q    Type
REMARK                         _______ _______ _______ _____ _____    ______ ____
ROOT
ATOM      1  C   UNL     1      46.066   8.027  12.359  0.00  0.00    +0.000 C 
ENDROOT
BRANCH   1   2
ATOM      2  C   UNL     1      45.563   6.815  11.570  0.00  0.00    +0.000 A 
ATOM      3  C   UNL     1      44.337   6.224  11.909  0.00  0.00    +0.000 A 
ATOM      4  C   UNL     1      43.857   5.112  11.207  0.00  0.00    +0.000 A 
ATOM      5  C   UNL     1      44.569   4.594  10.123  0.00  0.00    +0.000 A 
ATOM      6  C   UNL     1      45.804   5.156   9.794  0.00  0.00    +0.000 A 
ATOM      7  C   UNL     1      46.296   6.259  10.506  0.00  0.00    +0.000 A 
BRANCH   5   8
ATOM      8  O   UNL     1      44.163   3.500   9.391  0.00  0.00    +0.000 OA
BRANCH   8   9
ATOM      9  C   UNL     1      45.093   2.871   8.568  0.00  0.00    +0.000 A 
ATOM     10  C   UNL     1      45.544   3.586   7.468  0.00  0.00    +0.000 A 
ATOM     11  C   UNL     1      46.495   2.994   6.638  0.00  0.00    +0.000 A 
ATOM     12  C   UNL     1      46.958   1.716   6.937  0.00  0.00    +0.000 A 
ATOM     13  C   UNL     1      46.431   1.070   8.040  0.00  0.00    +0.000 A 
ATOM     14  N   UNL     1      45.497   1.610   8.848  0.00  0.00    +0.000 NA
ENDBRANCH   8   9
ENDBRANCH   5   8
ENDBRANCH   1   2
BRANCH   1  15
ATOM     15  N   UNL     1      46.666   7.574  13.611  0.00  0.00    +0.000 N 
ATOM     16  C   UNL     1      47.987   7.215  13.704  0.00  0.00    +0.000 C 
ATOM     17  O   UNL     1      48.787   7.355  12.784  0.00  0.00    +0.000 OA
ATOM     18  H   UNL     1      46.017   7.209  14.304  0.00  0.00    +0.000 HD
BRANCH  16  19
ATOM     19  C   UNL     1      48.424   6.680  14.998  0.00  0.00    +0.000 A 
ATOM     20  C   UNL     1      49.370   7.360  15.754  0.00  0.00    +0.000 A 
ATOM     21  S   UNL     1      49.799   6.545  17.191  0.00  0.00    +0.000 S 
ATOM     22  C   UNL     1      48.765   5.242  16.827  0.00  0.00    +0.000 A 
ATOM     23  N   UNL     1      48.704   4.145  17.629  0.00  0.00    +0.000 NA
ATOM     24  C   UNL     1      47.908   3.219  17.199  0.00  0.00    +0.000 A 
ATOM     25  N   UNL     1      47.151   3.303  16.062  0.00  0.00    +0.000 N 
ATOM     26  C   UNL     1      47.125   4.419  15.264  0.00  0.00    +0.000 A 
ATOM     27  O   UNL     1      46.344   4.521  14.326  0.00  0.00    +0.000 OA
ATOM     28  C   UNL     1      48.057   5.456  15.660  0.00  0.00    +0.000 A 
ATOM     29  H   UNL     1      46.509   2.562  15.805  0.00  0.00    +0.000 HD
ENDBRANCH  16  19
ENDBRANCH   1  15
BRANCH   1  30
ATOM     30  C   UNL     1      44.938   9.073  12.610  0.00  0.00    +0.000 C 
BRANCH  30  31
ATOM     31  N   UNL     1      45.318  10.470  12.366  0.00  0.00    +0.000 NA
ATOM     32  H   UNL     1      46.285  10.488  12.044  0.00  0.00    +0.000 HD
ATOM     33  H   UNL     1      45.296  10.987  13.244  0.00  0.00    +0.000 HD
ENDBRANCH  30  31
ENDBRANCH   1  30
TORSDOF 7
ENDMDL
MODEL 3
REMARK VINA RESULT:    -7.931      3.197      4.231
REMARK INTER + INTRA:         -11.629
REMARK INTER:                 -10.345
REMARK INTRA:                  -1.285
REMARK UNBOUND:                -0.684
REMARK  Name = 
REMARK  7 active torsions:
REMARK  status: ('A' for Active; 'I' for Inactive)
REMARK    1  A    between atoms: N_1  and  C_2
REMARK    2  A    between atoms: C_2  and  C_3
REMARK    3  A    between atoms: C_3  and  N_4
REMARK    4  A    between atoms: C_3  and  C_17
REMARK    5  A    between atoms: C_5  and  C_7
REMARK    6  A    between atoms: C_20  and  O_21
REMARK    7  A    between atoms: O_21  and  C_22
REMARK                            x       y       z     vdW  Elec       q    Type
REMARK                         _______ _______ _______ _____ _____    ______ ____
ROOT
ATOM      1  C   UNL     1      46.382   5.822  13.648  0.00  0.00    +0.000 C 
ENDROOT
BRANCH   1   2
ATOM      2  C   UNL     1      45.896   5.120  12.378  0.00  0.00    +0.000 A 
ATOM      3  C   UNL     1      45.410   3.806  12.452  0.00  0.00    +0.000 A 
ATOM      4  C   UNL     1      44.965   3.138  11.305  0.00  0.00    +0.000 A 
ATOM      5  C   UNL     1      44.951   3.784  10.068  0.00  0.00    +0.000 A 
ATOM      6  C   UNL     1      45.458   5.082   9.976  0.00  0.00    +0.000 A 
ATOM      7  C   UNL     1      45.922   5.747  11.120  0.00  0.00    +0.000 A 
BRANCH   5   8
ATOM      8  O   UNL     1      44.534   3.190   8.896  0.00  0.00    +0.000 OA
BRANCH   8   9
ATOM      9  C   UNL     1      45.488   2.583   8.085  0.00  0.00    +0.000 A 
ATOM     10  C   UNL     1      45.884   3.279   6.952  0.00  0.00    +0.000 A 
ATOM     11  C   UNL     1      46.857   2.709   6.132  0.00  0.00    +0.000 A 
ATOM     12  C   UNL     1      47.395   1.471   6.472  0.00  0.00    +0.000 A 
ATOM     13  C   UNL     1      46.919   0.840   7.606  0.00  0.00    +0.000 A 
ATOM     14  N   UNL     1      45.966   1.358   8.406  0.00  0.00    +0.000 NA
ENDBRANCH   8   9
ENDBRANCH   5   8
ENDBRANCH   1   2
BRANCH   1  15
ATOM     15  N   UNL     1      47.501   6.701  13.318  0.00  0.00    +0.000 N 
ATOM     16  C   UNL     1      47.367   8.065  13.249  0.00  0.00    +0.000 C 
ATOM     17  O   UNL     1      46.340   8.656  13.569  0.00  0.00    +0.000 OA
ATOM     18  H   UNL     1      48.268   6.266  12.813  0.00  0.00    +0.000 HD
BRANCH  16  19
ATOM     19  C   UNL     1      48.547   8.811  12.802  0.00  0.00    +0.000 A 
ATOM     20  C   UNL     1      48.440   9.751  11.785  0.00  0.00    +0.000 A 
ATOM     21  S   UNL     1      49.932  10.462  11.361  0.00  0.00    +0.000 S 
ATOM     22  C   UNL     1      50.772   9.508  12.493  0.00  0.00    +0.000 A 
ATOM     23  N   UNL     1      52.127   9.568  12.600  0.00  0.00    +0.000 NA
ATOM     24  C   UNL     1      52.627   8.753  13.472  0.00  0.00    +0.000 A 
ATOM     25  N   UNL     1      51.896   7.908  14.262  0.00  0.00    +0.000 N 
ATOM     26  C   UNL     1      50.524   7.866  14.241  0.00  0.00    +0.000 A 
ATOM     27  O   UNL     1      49.888   7.199  15.047  0.00  0.00    +0.000 OA
ATOM     28  C   UNL     1      49.918   8.707  13.227  0.00  0.00    +0.000 A 
ATOM     29  H   UNL     1      52.343   7.328  14.962  0.00  0.00    +0.000 HD
ENDBRANCH  16  19
ENDBRANCH   1  15
BRANCH   1  30
ATOM     30  C   UNL     1      46.762   4.809  14.770  0.00  0.00    +0.000 C 
BRANCH  30  31
ATOM     31  N   UNL     1      47.895   5.210  15.614  0.00  0.00    +0.000 NA
ATOM     32  H   UNL     1      48.013   6.219  15.536  0.00  0.00    +0.000 HD
ATOM     33  H   UNL     1      48.752   4.791  15.255  0.00  0.00    +0.000 HD
ENDBRANCH  30  31
ENDBRANCH   1  30
TORSDOF 7
ENDMDL
MODEL 4
REMARK VINA RESULT:    -7.657      1.637      2.086
REMARK INTER + INTRA:         -11.251
REMARK INTER:                 -10.198
REMARK INTRA:                  -1.053
REMARK UNBOUND:                -0.684
REMARK  Name = 
REMARK  7 active torsions:
REMARK  status: ('A' for Active; 'I' for Inactive)
REMARK    1  A    between atoms: N_1  and  C_2
REMARK    2  A    between atoms: C_2  and  C_3
REMARK    3  A    between atoms: C_3  and  N_4
REMARK    4  A    between atoms: C_3  and  C_17
REMARK    5  A    between atoms: C_5  and  C_7
REMARK    6  A    between atoms: C_20  and  O_21
REMARK    7  A    between atoms: O_21  and  C_22
REMARK                            x       y       z     vdW  Elec       q    Type
REMARK                         _______ _______ _______ _____ _____    ______ ____
ROOT
ATOM      1  C   UNL     1      48.050   7.236  13.909  0.00  0.00    +0.000 C 
ENDROOT
BRANCH   1   2
ATOM      2  C   UNL     1      47.129   6.489  12.941  0.00  0.00    +0.000 A 
ATOM      3  C   UNL     1      46.520   5.292  13.345  0.00  0.00    +0.000 A 
ATOM      4  C   UNL     1      45.678   4.585  12.478  0.00  0.00    +0.000 A 
ATOM      5  C   UNL     1      45.389   5.083  11.206  0.00  0.00    +0.000 A 
ATOM      6  C   UNL     1      46.011   6.259  10.782  0.00  0.00    +0.000 A 
ATOM      7  C   UNL     1      46.869   6.959  11.642  0.00  0.00    +0.000 A 
BRANCH   5   8
ATOM      8  O   UNL     1      44.576   4.441  10.297  0.00  0.00    +0.000 OA
BRANCH   8   9
ATOM      9  C   UNL     1      45.174   3.727   9.262  0.00  0.00    +0.000 A 
ATOM     10  C   UNL     1      45.290   2.355   9.430  0.00  0.00    +0.000 A 
ATOM     11  C   UNL     1      45.860   1.608   8.400  0.00  0.00    +0.000 A 
ATOM     12  C   UNL     1      46.292   2.257   7.247  0.00  0.00    +0.000 A 
ATOM     13  C   UNL     1      46.159   3.632   7.180  0.00  0.00    +0.000 A 
ATOM     14  N   UNL     1      45.629   4.381   8.168  0.00  0.00    +0.000 NA
ENDBRANCH   8   9
ENDBRANCH   5   8
ENDBRANCH   1   2
BRANCH   1  15
ATOM     15  N   UNL     1      47.976   6.613  15.227  0.00  0.00    +0.000 N 
ATOM     16  C   UNL     1      49.097   6.298  15.954  0.00  0.00    +0.000 C 
ATOM     17  O   UNL     1      50.231   6.616  15.611  0.00  0.00    +0.000 OA
ATOM     18  H   UNL     1      47.114   6.115  15.431  0.00  0.00    +0.000 HD
BRANCH  16  19
ATOM     19  C   UNL     1      48.873   5.579  17.212  0.00  0.00    +0.000 A 
ATOM     20  C   UNL     1      48.996   4.196  17.262  0.00  0.00    +0.000 A 
ATOM     21  S   UNL     1      48.630   3.540  18.794  0.00  0.00    +0.000 S 
ATOM     22  C   UNL     1      48.258   5.077  19.426  0.00  0.00    +0.000 A 
ATOM     23  N   UNL     1      47.796   5.224  20.697  0.00  0.00    +0.000 NA
ATOM     24  C   UNL     1      47.514   6.445  21.020  0.00  0.00    +0.000 A 
ATOM     25  N   UNL     1      47.678   7.529  20.201  0.00  0.00    +0.000 N 
ATOM     26  C   UNL     1      48.210   7.437  18.939  0.00  0.00    +0.000 A 
ATOM     27  O   UNL     1      48.468   8.433  18.275  0.00  0.00    +0.000 OA
ATOM     28  C   UNL     1      48.472   6.080  18.500  0.00  0.00    +0.000 A 
ATOM     29  H   UNL     1      47.485   8.467  20.530  0.00  0.00    +0.000 HD
ENDBRANCH  16  19
ENDBRANCH   1  15
BRANCH   1  30
ATOM     30  C   UNL     1      47.721   8.759  13.976  0.00  0.00    +0.000 C 
BRANCH  30  31
ATOM     31  N   UNL     1      47.486   9.286  15.326  0.00  0.00    +0.000 NA
ATOM     32  H   UNL     1      46.498   9.522  15.412  0.00  0.00    +0.000 HD
ATOM     33  H   UNL     1      48.002  10.157  15.446  0.00  0.00    +0.000 HD
ENDBRANCH  30  31
ENDBRANCH   1  30
TORSDOF 7
ENDMDL
MODEL 5
REMARK VINA RESULT:    -7.250      3.291      8.260
REMARK INTER + INTRA:         -10.688
REMARK INTER:                  -9.604
REMARK INTRA:                  -1.084
REMARK UNBOUND:                -0.684
REMARK  Name = 
REMARK  7 active torsions:
REMARK  status: ('A' for Active; 'I' for Inactive)
REMARK    1  A    between atoms: N_1  and  C_2
REMARK    2  A    between atoms: C_2  and  C_3
REMARK    3  A    between atoms: C_3  and  N_4
REMARK    4  A    between atoms: C_3  and  C_17
REMARK    5  A    between atoms: C_5  and  C_7
REMARK    6  A    between atoms: C_20  and  O_21
REMARK    7  A    between atoms: O_21  and  C_22
REMARK                            x       y       z     vdW  Elec       q    Type
REMARK                         _______ _______ _______ _____ _____    ______ ____
ROOT
ATOM      1  C   UNL     1      47.887   7.238  13.463  0.00  0.00    +0.000 C 
ENDROOT
BRANCH   1   2
ATOM      2  C   UNL     1      48.330   6.498  14.728  0.00  0.00    +0.000 A 
ATOM      3  C   UNL     1      49.430   6.970  15.461  0.00  0.00    +0.000 A 
ATOM      4  C   UNL     1      49.860   6.309  16.617  0.00  0.00    +0.000 A 
ATOM      5  C   UNL     1      49.173   5.189  17.092  0.00  0.00    +0.000 A 
ATOM      6  C   UNL     1      48.096   4.693  16.356  0.00  0.00    +0.000 A 
ATOM      7  C   UNL     1      47.673   5.343  15.187  0.00  0.00    +0.000 A 
BRANCH   5   8
ATOM      8  O   UNL     1      49.541   4.484  18.218  0.00  0.00    +0.000 OA
BRANCH   8   9
ATOM      9  C   UNL     1      50.612   3.599  18.125  0.00  0.00    +0.000 A 
ATOM     10  C   UNL     1      50.374   2.390  17.488  0.00  0.00    +0.000 A 
ATOM     11  C   UNL     1      51.432   1.492  17.355  0.00  0.00    +0.000 A 
ATOM     12  C   UNL     1      52.683   1.834  17.862  0.00  0.00    +0.000 A 
ATOM     13  C   UNL     1      52.818   3.051  18.505  0.00  0.00    +0.000 A 
ATOM     14  N   UNL     1      51.808   3.930  18.664  0.00  0.00    +0.000 NA
ENDBRANCH   8   9
ENDBRANCH   5   8
ENDBRANCH   1   2
BRANCH   1  15
ATOM     15  N   UNL     1      47.306   6.284  12.522  0.00  0.00    +0.000 N 
ATOM     16  C   UNL     1      46.218   6.591  11.745  0.00  0.00    +0.000 C 
ATOM     17  O   UNL     1      45.724   7.713  11.693  0.00  0.00    +0.000 OA
ATOM     18  H   UNL     1      47.505   5.305  12.708  0.00  0.00    +0.000 HD
BRANCH  16  19
ATOM     19  C   UNL     1      45.678   5.501  10.925  0.00  0.00    +0.000 A 
ATOM     20  C   UNL     1      45.790   5.543   9.541  0.00  0.00    +0.000 A 
ATOM     21  S   UNL     1      45.043   4.222   8.762  0.00  0.00    +0.000 S 
ATOM     22  C   UNL     1      44.513   3.575  10.245  0.00  0.00    +0.000 A 
ATOM     23  N   UNL     1      43.738   2.458  10.291  0.00  0.00    +0.000 NA
ATOM     24  C   UNL     1      43.376   2.113  11.485  0.00  0.00    +0.000 A 
ATOM     25  N   UNL     1      43.742   2.763  12.632  0.00  0.00    +0.000 N 
ATOM     26  C   UNL     1      44.583   3.848  12.639  0.00  0.00    +0.000 A 
ATOM     27  O   UNL     1      45.000   4.332  13.684  0.00  0.00    +0.000 OA
ATOM     28  C   UNL     1      44.955   4.322  11.320  0.00  0.00    +0.000 A 
ATOM     29  H   UNL     1      43.466   2.414  13.542  0.00  0.00    +0.000 HD
ENDBRANCH  16  19
ENDBRANCH   1  15
BRANCH   1  30
ATOM     30  C   UNL     1      49.054   8.044  12.815  0.00  0.00    +0.000 C 
BRANCH  30  31
ATOM     31  N   UNL     1      50.048   7.234  12.100  0.00  0.00    +0.000 NA
ATOM     32  H   UNL     1      50.226   6.390  12.643  0.00  0.00    +0.000 HD
ATOM     33  H   UNL     1      50.932   7.740  12.056  0.00  0.00    +0.000 HD
ENDBRANCH  30  31
ENDBRANCH   1  30
TORSDOF 7
ENDMDL
MODEL 6
REMARK VINA RESULT:    -7.206      3.569      5.787
REMARK INTER + INTRA:         -10.629
REMARK INTER:                  -9.350
REMARK INTRA:                  -1.279
REMARK UNBOUND:                -0.684
REMARK  Name = 
REMARK  7 active torsions:
REMARK  status: ('A' for Active; 'I' for Inactive)
REMARK    1  A    between atoms: N_1  and  C_2
REMARK    2  A    between atoms: C_2  and  C_3
REMARK    3  A    between atoms: C_3  and  N_4
REMARK    4  A    between atoms: C_3  and  C_17
REMARK    5  A    between atoms: C_5  and  C_7
REMARK    6  A    between atoms: C_20  and  O_21
REMARK    7  A    between atoms: O_21  and  C_22
REMARK                            x       y       z     vdW  Elec       q    Type
REMARK                         _______ _______ _______ _____ _____    ______ ____
ROOT
ATOM      1  C   UNL     1      49.129   6.493  17.312  0.00  0.00    +0.000 C 
ENDROOT
BRANCH   1   2
ATOM      2  C   UNL     1      48.341   5.726  16.247  0.00  0.00    +0.000 A 
ATOM      3  C   UNL     1      48.231   6.252  14.951  0.00  0.00    +0.000 A 
ATOM      4  C   UNL     1      47.511   5.575  13.959  0.00  0.00    +0.000 A 
ATOM      5  C   UNL     1      46.926   4.336  14.228  0.00  0.00    +0.000 A 
ATOM      6  C   UNL     1      47.005   3.816  15.521  0.00  0.00    +0.000 A 
ATOM      7  C   UNL     1      47.710   4.501  16.521  0.00  0.00    +0.000 A 
BRANCH   5   8
ATOM      8  O   UNL     1      46.199   3.615  13.305  0.00  0.00    +0.000 OA
BRANCH   8   9
ATOM      9  C   UNL     1      45.052   4.193  12.768  0.00  0.00    +0.000 A 
ATOM     10  C   UNL     1      45.034   4.396  11.396  0.00  0.00    +0.000 A 
ATOM     11  C   UNL     1      43.890   4.949  10.823  0.00  0.00    +0.000 A 
ATOM     12  C   UNL     1      42.811   5.278  11.639  0.00  0.00    +0.000 A 
ATOM     13  C   UNL     1      42.930   5.064  13.000  0.00  0.00    +0.000 A 
ATOM     14  N   UNL     1      44.031   4.548  13.583  0.00  0.00    +0.000 NA
ENDBRANCH   8   9
ENDBRANCH   5   8
ENDBRANCH   1   2
BRANCH   1  15
ATOM     15  N   UNL     1      50.135   5.612  17.899  0.00  0.00    +0.000 N 
ATOM     16  C   UNL     1      51.398   5.489  17.375  0.00  0.00    +0.000 C 
ATOM     17  O   UNL     1      51.815   6.187  16.456  0.00  0.00    +0.000 OA
ATOM     18  H   UNL     1      49.776   4.854  18.473  0.00  0.00    +0.000 HD
BRANCH  16  19
ATOM     19  C   UNL     1      52.266   4.488  18.004  0.00  0.00    +0.000 A 
ATOM     20  C   UNL     1      53.367   4.886  18.752  0.00  0.00    +0.000 A 
ATOM     21  S   UNL     1      54.291   3.578  19.343  0.00  0.00    +0.000 S 
ATOM     22  C   UNL     1      53.272   2.444  18.586  0.00  0.00    +0.000 A 
ATOM     23  N   UNL     1      53.541   1.111  18.633  0.00  0.00    +0.000 NA
ATOM     24  C   UNL     1      52.703   0.377  17.975  0.00  0.00    +0.000 A 
ATOM     25  N   UNL     1      51.611   0.851  17.299  0.00  0.00    +0.000 N 
ATOM     26  C   UNL     1      51.259   2.177  17.285  0.00  0.00    +0.000 A 
ATOM     27  O   UNL     1      50.209   2.559  16.785  0.00  0.00    +0.000 OA
ATOM     28  C   UNL     1      52.208   3.052  17.946  0.00  0.00    +0.000 A 
ATOM     29  H   UNL     1      50.964   0.219  16.842  0.00  0.00    +0.000 HD
ENDBRANCH  16  19
ENDBRANCH   1  15
BRANCH   1  30
ATOM     30  C   UNL     1      48.199   7.106  18.403  0.00  0.00    +0.000 C 
BRANCH  30  31
ATOM     31  N   UNL     1      47.565   8.379  18.037  0.00  0.00    +0.000 NA
ATOM     32  H   UNL     1      46.707   8.175  17.525  0.00  0.00    +0.000 HD
ATOM     33  H   UNL     1      48.170   8.889  17.396  0.00  0.00    +0.000 HD
ENDBRANCH  30  31
ENDBRANCH   1  30
TORSDOF 7
ENDMDL
MODEL 7
REMARK VINA RESULT:    -6.985      2.096      2.971
REMARK INTER + INTRA:         -10.323
REMARK INTER:                  -9.332
REMARK INTRA:                  -0.991
REMARK UNBOUND:                -0.684
REMARK  Name = 
REMARK  7 active torsions:
REMARK  status: ('A' for Active; 'I' for Inactive)
REMARK    1  A    between atoms: N_1  and  C_2
REMARK    2  A    between atoms: C_2  and  C_3
REMARK    3  A    between atoms: C_3  and  N_4
REMARK    4  A    between atoms: C_3  and  C_17
REMARK    5  A    between atoms: C_5  and  C_7
REMARK    6  A    between atoms: C_20  and  O_21
REMARK    7  A    between atoms: O_21  and  C_22
REMARK                            x       y       z     vdW  Elec       q    Type
REMARK                         _______ _______ _______ _____ _____    ______ ____
ROOT
ATOM      1  C   UNL     1      48.580   7.810  13.858  0.00  0.00    +0.000 C 
ENDROOT
BRANCH   1   2
ATOM      2  C   UNL     1      47.496   7.080  13.060  0.00  0.00    +0.000 A 
ATOM      3  C   UNL     1      47.237   5.725  13.317  0.00  0.00    +0.000 A 
ATOM      4  C   UNL     1      46.256   5.033  12.599  0.00  0.00    +0.000 A 
ATOM      5  C   UNL     1      45.481   5.689  11.640  0.00  0.00    +0.000 A 
ATOM      6  C   UNL     1      45.748   7.029  11.355  0.00  0.00    +0.000 A 
ATOM      7  C   UNL     1      46.743   7.722  12.062  0.00  0.00    +0.000 A 
BRANCH   5   8
ATOM      8  O   UNL     1      44.503   5.072  10.891  0.00  0.00    +0.000 OA
BRANCH   8   9
ATOM      9  C   UNL     1      44.895   4.205   9.874  0.00  0.00    +0.000 A 
ATOM     10  C   UNL     1      44.649   2.854  10.071  0.00  0.00    +0.000 A 
ATOM     11  C   UNL     1      45.006   1.963   9.060  0.00  0.00    +0.000 A 
ATOM     12  C   UNL     1      45.594   2.452   7.897  0.00  0.00    +0.000 A 
ATOM     13  C   UNL     1      45.825   3.812   7.802  0.00  0.00    +0.000 A 
ATOM     14  N   UNL     1      45.507   4.694   8.771  0.00  0.00    +0.000 NA
ENDBRANCH   8   9
ENDBRANCH   5   8
ENDBRANCH   1   2
BRANCH   1  15
ATOM     15  N   UNL     1      48.297   7.688  15.285  0.00  0.00    +0.000 N 
ATOM     16  C   UNL     1      49.198   7.149  16.168  0.00  0.00    +0.000 C 
ATOM     17  O   UNL     1      50.343   6.838  15.854  0.00  0.00    +0.000 OA
ATOM     18  H   UNL     1      47.313   7.688  15.540  0.00  0.00    +0.000 HD
BRANCH  16  19
ATOM     19  C   UNL     1      48.736   6.992  17.551  0.00  0.00    +0.000 A 
ATOM     20  C   UNL     1      48.292   8.093  18.272  0.00  0.00    +0.000 A 
ATOM     21  S   UNL     1      47.862   7.721  19.880  0.00  0.00    +0.000 S 
ATOM     22  C   UNL     1      48.293   6.086  19.676  0.00  0.00    +0.000 A 
ATOM     23  N   UNL     1      48.235   5.207  20.712  0.00  0.00    +0.000 NA
ATOM     24  C   UNL     1      48.636   4.012  20.416  0.00  0.00    +0.000 A 
ATOM     25  N   UNL     1      49.061   3.614  19.177  0.00  0.00    +0.000 N 
ATOM     26  C   UNL     1      49.067   4.447  18.087  0.00  0.00    +0.000 A 
ATOM     27  O   UNL     1      49.326   4.035  16.963  0.00  0.00    +0.000 OA
ATOM     28  C   UNL     1      48.698   5.818  18.382  0.00  0.00    +0.000 A 
ATOM     29  H   UNL     1      49.317   2.651  18.997  0.00  0.00    +0.000 HD
ENDBRANCH  16  19
ENDBRANCH   1  15
BRANCH   1  30
ATOM     30  C   UNL     1      48.721   9.302  13.428  0.00  0.00    +0.000 C 
BRANCH  30  31
ATOM     31  N   UNL     1      48.235  10.281  14.408  0.00  0.00    +0.000 NA
ATOM     32  H   UNL     1      47.233  10.405  14.268  0.00  0.00    +0.000 HD
ATOM     33  H   UNL     1      48.665  11.187  14.227  0.00  0.00    +0.000 HD
ENDBRANCH  30  31
ENDBRANCH   1  30
TORSDOF 7
ENDMDL
MODEL 8
REMARK VINA RESULT:    -6.792      2.584      8.718
REMARK INTER + INTRA:         -10.058
REMARK INTER:                  -8.876
REMARK INTRA:                  -1.181
REMARK UNBOUND:                -0.684
REMARK  Name = 
REMARK  7 active torsions:
REMARK  status: ('A' for Active; 'I' for Inactive)
REMARK    1  A    between atoms: N_1  and  C_2
REMARK    2  A    between atoms: C_2  and  C_3
REMARK    3  A    between atoms: C_3  and  N_4
REMARK    4  A    between atoms: C_3  and  C_17
REMARK    5  A    between atoms: C_5  and  C_7
REMARK    6  A    between atoms: C_20  and  O_21
REMARK    7  A    between atoms: O_21  and  C_22
REMARK                            x       y       z     vdW  Elec       q    Type
REMARK                         _______ _______ _______ _____ _____    ______ ____
ROOT
ATOM      1  C   UNL     1      44.909   5.942  12.021  0.00  0.00    +0.000 C 
ENDROOT
BRANCH   1   2
ATOM      2  C   UNL     1      46.092   6.054  12.986  0.00  0.00    +0.000 A 
ATOM      3  C   UNL     1      46.425   4.965  13.807  0.00  0.00    +0.000 A 
ATOM      4  C   UNL     1      47.498   5.043  14.702  0.00  0.00    +0.000 A 
ATOM      5  C   UNL     1      48.289   6.192  14.766  0.00  0.00    +0.000 A 
ATOM      6  C   UNL     1      47.950   7.292  13.975  0.00  0.00    +0.000 A 
ATOM      7  C   UNL     1      46.864   7.223  13.089  0.00  0.00    +0.000 A 
BRANCH   5   8
ATOM      8  O   UNL     1      49.355   6.343  15.626  0.00  0.00    +0.000 OA
BRANCH   8   9
ATOM      9  C   UNL     1      49.312   5.691  16.855  0.00  0.00    +0.000 A 
ATOM     10  C   UNL     1      48.437   6.197  17.805  0.00  0.00    +0.000 A 
ATOM     11  C   UNL     1      48.351   5.551  19.037  0.00  0.00    +0.000 A 
ATOM     12  C   UNL     1      49.140   4.429  19.274  0.00  0.00    +0.000 A 
ATOM     13  C   UNL     1      50.003   4.013  18.276  0.00  0.00    +0.000 A 
ATOM     14  N   UNL     1      50.120   4.629  17.083  0.00  0.00    +0.000 NA
ENDBRANCH   8   9
ENDBRANCH   5   8
ENDBRANCH   1   2
BRANCH   1  15
ATOM     15  N   UNL     1      45.213   4.948  10.994  0.00  0.00    +0.000 N 
ATOM     16  C   UNL     1      44.259   4.103  10.485  0.00  0.00    +0.000 C 
ATOM     17  O   UNL     1      43.067   4.192  10.761  0.00  0.00    +0.000 OA
ATOM     18  H   UNL     1      46.189   4.670  10.926  0.00  0.00    +0.000 HD
BRANCH  16  19
ATOM     19  C   UNL     1      44.732   3.087   9.539  0.00  0.00    +0.000 A 
ATOM     20  C   UNL     1      44.259   1.783   9.617  0.00  0.00    +0.000 A 
ATOM     21  S   UNL     1      44.976   0.735   8.478  0.00  0.00    +0.000 S 
ATOM     22  C   UNL     1      45.968   1.979   7.874  0.00  0.00    +0.000 A 
ATOM     23  N   UNL     1      46.895   1.737   6.908  0.00  0.00    +0.000 NA
ATOM     24  C   UNL     1      47.604   2.770   6.583  0.00  0.00    +0.000 A 
ATOM     25  N   UNL     1      47.451   4.022   7.113  0.00  0.00    +0.000 N 
ATOM     26  C   UNL     1      46.482   4.329   8.034  0.00  0.00    +0.000 A 
ATOM     27  O   UNL     1      46.280   5.482   8.396  0.00  0.00    +0.000 OA
ATOM     28  C   UNL     1      45.709   3.189   8.489  0.00  0.00    +0.000 A 
ATOM     29  H   UNL     1      48.006   4.802   6.781  0.00  0.00    +0.000 HD
ENDBRANCH  16  19
ENDBRANCH   1  15
BRANCH   1  30
ATOM     30  C   UNL     1      44.532   7.317  11.391  0.00  0.00    +0.000 C 
BRANCH  30  31
ATOM     31  N   UNL     1      43.120   7.465  11.017  0.00  0.00    +0.000 NA
ATOM     32  H   UNL     1      43.040   8.250  10.370  0.00  0.00    +0.000 HD
ATOM     33  H   UNL     1      42.573   7.713  11.840  0.00  0.00    +0.000 HD
ENDBRANCH  30  31
ENDBRANCH   1  30
TORSDOF 7
ENDMDL
MODEL 9
REMARK VINA RESULT:    -6.435      2.999      4.040
REMARK INTER + INTRA:          -9.564
REMARK INTER:                  -8.274
REMARK INTRA:                  -1.290
REMARK UNBOUND:                -0.684
REMARK  Name = 
REMARK  7 active torsions:
REMARK  status: ('A' for Active; 'I' for Inactive)
REMARK    1  A    between atoms: N_1  and  C_2
REMARK    2  A    between atoms: C_2  and  C_3
REMARK    3  A    between atoms: C_3  and  N_4
REMARK    4  A    between atoms: C_3  and  C_17
REMARK    5  A    between atoms: C_5  and  C_7
REMARK    6  A    between atoms: C_20  and  O_21
REMARK    7  A    between atoms: O_21  and  C_22
REMARK                            x       y       z     vdW  Elec       q    Type
REMARK                         _______ _______ _______ _____ _____    ______ ____
ROOT
ATOM      1  C   UNL     1      48.809   9.040  13.881  0.00  0.00    +0.000 C 
ENDROOT
BRANCH   1   2
ATOM      2  C   UNL     1      47.664   8.386  13.104  0.00  0.00    +0.000 A 
ATOM      3  C   UNL     1      46.369   8.920  13.192  0.00  0.00    +0.000 A 
ATOM      4  C   UNL     1      45.303   8.339  12.497  0.00  0.00    +0.000 A 
ATOM      5  C   UNL     1      45.514   7.238  11.664  0.00  0.00    +0.000 A 
ATOM      6  C   UNL     1      46.791   6.680  11.590  0.00  0.00    +0.000 A 
ATOM      7  C   UNL     1      47.858   7.250  12.299  0.00  0.00    +0.000 A 
BRANCH   5   8
ATOM      8  O   UNL     1      44.513   6.610  10.955  0.00  0.00    +0.000 OA
BRANCH   8   9
ATOM      9  C   UNL     1      44.147   5.319  11.327  0.00  0.00    +0.000 A 
ATOM     10  C   UNL     1      44.233   4.336  10.353  0.00  0.00    +0.000 A 
ATOM     11  C   UNL     1      43.898   3.028  10.701  0.00  0.00    +0.000 A 
ATOM     12  C   UNL     1      43.491   2.753  12.003  0.00  0.00    +0.000 A 
ATOM     13  C   UNL     1      43.411   3.803  12.899  0.00  0.00    +0.000 A 
ATOM     14  N   UNL     1      43.710   5.080  12.585  0.00  0.00    +0.000 NA
ENDBRANCH   8   9
ENDBRANCH   5   8
ENDBRANCH   1   2
BRANCH   1  15
ATOM     15  N   UNL     1      48.847   8.499  15.237  0.00  0.00    +0.000 N 
ATOM     16  C   UNL     1      49.674   7.463  15.591  0.00  0.00    +0.000 C 
ATOM     17  O   UNL     1      50.522   6.993  14.839  0.00  0.00    +0.000 OA
ATOM     18  H   UNL     1      48.019   8.669  15.802  0.00  0.00    +0.000 HD
BRANCH  16  19
ATOM     19  C   UNL     1      49.527   6.954  16.959  0.00  0.00    +0.000 A 
ATOM     20  C   UNL     1      50.004   7.690  18.036  0.00  0.00    +0.000 A 
ATOM     21  S   UNL     1      49.801   6.902  19.536  0.00  0.00    +0.000 S 
ATOM     22  C   UNL     1      49.108   5.538  18.789  0.00  0.00    +0.000 A 
ATOM     23  N   UNL     1      48.763   4.438  19.511  0.00  0.00    +0.000 NA
ATOM     24  C   UNL     1      48.290   3.465  18.800  0.00  0.00    +0.000 A 
ATOM     25  N   UNL     1      48.108   3.503  17.444  0.00  0.00    +0.000 N 
ATOM     26  C   UNL     1      48.373   4.617  16.686  0.00  0.00    +0.000 A 
ATOM     27  O   UNL     1      48.080   4.672  15.499  0.00  0.00    +0.000 OA
ATOM     28  C   UNL     1      48.976   5.710  17.424  0.00  0.00    +0.000 A 
ATOM     29  H   UNL     1      47.687   2.725  16.951  0.00  0.00    +0.000 HD
ENDBRANCH  16  19
ENDBRANCH   1  15
BRANCH   1  30
ATOM     30  C   UNL     1      48.702  10.595  13.888  0.00  0.00    +0.000 C 
BRANCH  30  31
ATOM     31  N   UNL     1      48.674  11.212  15.220  0.00  0.00    +0.000 NA
ATOM     32  H   UNL     1      49.504  10.911  15.731  0.00  0.00    +0.000 HD
ATOM     33  H   UNL     1      47.872  10.861  15.742  0.00  0.00    +0.000 HD
ENDBRANCH  30  31
ENDBRANCH   1  30
TORSDOF 7
ENDMDL
