MODEL 1
REMARK VINA RESULT:    -8.031      0.000      0.000
REMARK INTER + INTRA:         -12.209
REMARK INTER:                 -11.317
REMARK INTRA:                  -0.891
REMARK UNBOUND:                -0.891
REMARK  Name = 
REMARK  8 active torsions:
REMARK  status: ('A' for Active; 'I' for Inactive)
REMARK    1  A    between atoms: C_1  and  C_2
REMARK    2  A    between atoms: C_2  and  N_3
REMARK    3  A    between atoms: C_2  and  C_25
REMARK    4  A    between atoms: N_3  and  C_4
REMARK    5  A    between atoms: C_4  and  C_5
REMARK    6  A    between atoms: C_8  and  C_9
REMARK    7  A    between atoms: C_9  and  N_10
REMARK    8  A    between atoms: C_11  and  C_13
REMARK                            x       y       z     vdW  Elec       q    Type
REMARK                         _______ _______ _______ _____ _____    ______ ____
ROOT
ATOM      1  C   UNL     1      44.684   5.400  11.459  0.00  0.00    +0.000 A 
ATOM      2  C   UNL     1      45.007   4.810  12.682  0.00  0.00    +0.000 A 
ATOM      3  C   UNL     1      46.147   5.221  13.375  0.00  0.00    +0.000 A 
ATOM      4  C   UNL     1      46.939   6.235  12.837  0.00  0.00    +0.000 A 
ATOM      5  N   UNL     1      46.639   6.835  11.658  0.00  0.00    +0.000 NA
ATOM      6  C   UNL     1      45.529   6.410  11.007  0.00  0.00    +0.000 A 
ENDROOT
BRANCH   1   7
ATOM      7  C   UNL     1      43.559   4.892  10.593  0.00  0.00    +0.000 C 
BRANCH   7   8
ATOM      8  N   UNL     1      44.018   4.386   9.298  0.00  0.00    +0.000 NA
ATOM      9  H   UNL     1      44.542   5.133   8.835  0.00  0.00    +0.000 HD
BRANCH   8  11
ATOM     10  C   UNL     1      44.134   2.016   9.874  0.00  0.00    +0.000 C 
ATOM     11  C   UNL     1      44.958   3.242   9.466  0.00  0.00    +0.000 C 
BRANCH  11  12
ATOM     12  C   UNL     1      45.780   2.873   8.227  0.00  0.00    +0.000 A 
ATOM     13  N   UNL     1      45.962   3.821   7.283  0.00  0.00    +0.000 NA
ATOM     14  C   UNL     1      46.738   3.485   6.234  0.00  0.00    +0.000 A 
ATOM     15  C   UNL     1      47.326   2.251   6.088  0.00  0.00    +0.000 A 
ATOM     16  C   UNL     1      47.068   1.349   7.093  0.00  0.00    +0.000 A 
ATOM     17  N   UNL     1      46.310   1.630   8.169  0.00  0.00    +0.000 NA
ENDBRANCH  11  12
ENDBRANCH   8  11
ENDBRANCH   7   8
ENDBRANCH   1   7
BRANCH   4  18
ATOM     18  C   UNL     1      48.219   6.650  13.527  0.00  0.00    +0.000 C 
BRANCH  18  19
ATOM     19  N   UNL     1      48.043   6.730  14.963  0.00  0.00    +0.000 N 
ATOM     20  C   UNL     1      49.104   6.707  15.828  0.00  0.00    +0.000 C 
ATOM     21  O   UNL     1      50.269   6.680  15.436  0.00  0.00    +0.000 OA
ATOM     22  H   UNL     1      47.115   6.491  15.300  0.00  0.00    +0.000 HD
BRANCH  20  23
ATOM     23  C   UNL     1      48.785   6.801  17.257  0.00  0.00    +0.000 A 
ATOM     24  C   UNL     1      48.385   8.017  17.795  0.00  0.00    +0.000 A 
ATOM     25  S   UNL     1      48.011   7.942  19.458  0.00  0.00    +0.000 S 
ATOM     26  C   UNL     1      48.416   6.289  19.526  0.00  0.00    +0.000 A 
ATOM     27  N   UNL     1      48.342   5.600  20.698  0.00  0.00    +0.000 NA
ATOM     28  C   UNL     1      48.710   4.365  20.613  0.00  0.00    +0.000 A 
ATOM     29  N   UNL     1      49.130   3.753  19.459  0.00  0.00    +0.000 N 
ATOM     30  C   UNL     1      49.185   4.397  18.245  0.00  0.00    +0.000 A 
ATOM     31  O   UNL     1      49.510   3.810  17.222  0.00  0.00    +0.000 OA
ATOM     32  C   UNL     1      48.806   5.798  18.293  0.00  0.00    +0.000 A 
ATOM     33  H   UNL     1      49.385   2.777  19.455  0.00  0.00    +0.000 HD
ENDBRANCH  20  23
ENDBRANCH  18  19
ENDBRANCH   4  18
TORSDOF 7
ENDMDL
MODEL 2
REMARK VINA RESULT:    -7.983      2.378      3.214
REMARK INTER + INTRA:         -12.142
REMARK INTER:                 -11.233
REMARK INTRA:                  -0.909
REMARK UNBOUND:                -0.891
REMARK  Name = 
REMARK  8 active torsions:
REMARK  status: ('A' for Active; 'I' for Inactive)
REMARK    1  A    between atoms: C_1  and  C_2
REMARK    2  A    between atoms: C_2  and  N_3
REMARK    3  A    between atoms: C_2  and  C_25
REMARK    4  A    between atoms: N_3  and  C_4
REMARK    5  A    between atoms: C_4  and  C_5
REMARK    6  A    between atoms: C_8  and  C_9
REMARK    7  A    between atoms: C_9  and  N_10
REMARK    8  A    between atoms: C_11  and  C_13
REMARK                            x       y       z     vdW  Elec       q    Type
REMARK                         _______ _______ _______ _____ _____    ______ ____
ROOT
ATOM      1  C   UNL     1      45.967   4.790  12.991  0.00  0.00    +0.000 A 
ATOM      2  C   UNL     1      46.426   5.999  12.464  0.00  0.00    +0.000 A 
ATOM      3  C   UNL     1      47.376   6.746  13.160  0.00  0.00    +0.000 A 
ATOM      4  C   UNL     1      47.870   6.259  14.370  0.00  0.00    +0.000 A 
ATOM      5  N   UNL     1      47.452   5.080  14.896  0.00  0.00    +0.000 NA
ATOM      6  C   UNL     1      46.524   4.381  14.199  0.00  0.00    +0.000 A 
ENDROOT
BRANCH   1   7
ATOM      7  C   UNL     1      44.831   4.019  12.366  0.00  0.00    +0.000 C 
BRANCH   7   8
ATOM      8  N   UNL     1      45.287   2.918  11.516  0.00  0.00    +0.000 NA
ATOM      9  H   UNL     1      45.035   2.040  11.975  0.00  0.00    +0.000 HD
BRANCH   8  11
ATOM     10  C   UNL     1      43.888   4.282  10.051  0.00  0.00    +0.000 C 
ATOM     11  C   UNL     1      44.591   2.929  10.198  0.00  0.00    +0.000 C 
BRANCH  11  12
ATOM     12  C   UNL     1      45.490   2.724   8.974  0.00  0.00    +0.000 A 
ATOM     13  N   UNL     1      45.924   1.473   8.710  0.00  0.00    +0.000 NA
ATOM     14  C   UNL     1      46.664   1.316   7.595  0.00  0.00    +0.000 A 
ATOM     15  C   UNL     1      46.990   2.346   6.747  0.00  0.00    +0.000 A 
ATOM     16  C   UNL     1      46.514   3.584   7.109  0.00  0.00    +0.000 A 
ATOM     17  N   UNL     1      45.764   3.802   8.205  0.00  0.00    +0.000 NA
ENDBRANCH  11  12
ENDBRANCH   8  11
ENDBRANCH   7   8
ENDBRANCH   1   7
BRANCH   4  18
ATOM     18  C   UNL     1      48.845   7.081  15.183  0.00  0.00    +0.000 C 
BRANCH  18  19
ATOM     19  N   UNL     1      49.892   6.251  15.746  0.00  0.00    +0.000 N 
ATOM     20  C   UNL     1      49.865   5.832  17.049  0.00  0.00    +0.000 C 
ATOM     21  O   UNL     1      48.924   6.082  17.799  0.00  0.00    +0.000 OA
ATOM     22  H   UNL     1      50.772   6.260  15.240  0.00  0.00    +0.000 HD
BRANCH  20  23
ATOM     23  C   UNL     1      50.985   4.991  17.489  0.00  0.00    +0.000 A 
ATOM     24  C   UNL     1      52.131   5.584  18.001  0.00  0.00    +0.000 A 
ATOM     25  S   UNL     1      53.316   4.463  18.504  0.00  0.00    +0.000 S 
ATOM     26  C   UNL     1      52.354   3.147  18.010  0.00  0.00    +0.000 A 
ATOM     27  N   UNL     1      52.801   1.868  18.139  0.00  0.00    +0.000 NA
ATOM     28  C   UNL     1      51.985   0.972  17.695  0.00  0.00    +0.000 A 
ATOM     29  N   UNL     1      50.754   1.238  17.148  0.00  0.00    +0.000 N 
ATOM     30  C   UNL     1      50.245   2.510  17.031  0.00  0.00    +0.000 A 
ATOM     31  O   UNL     1      49.121   2.712  16.591  0.00  0.00    +0.000 OA
ATOM     32  C   UNL     1      51.138   3.557  17.494  0.00  0.00    +0.000 A 
ATOM     33  H   UNL     1      50.154   0.489  16.837  0.00  0.00    +0.000 HD
ENDBRANCH  20  23
ENDBRANCH  18  19
ENDBRANCH   4  18
TORSDOF 7
ENDMDL
MODEL 3
REMARK VINA RESULT:    -7.780      1.262      2.058
REMARK INTER + INTRA:         -11.855
REMARK INTER:                 -11.002
REMARK INTRA:                  -0.853
REMARK UNBOUND:                -0.891
REMARK  Name = 
REMARK  8 active torsions:
REMARK  status: ('A' for Active; 'I' for Inactive)
REMARK    1  A    between atoms: C_1  and  C_2
REMARK    2  A    between atoms: C_2  and  N_3
REMARK    3  A    between atoms: C_2  and  C_25
REMARK    4  A    between atoms: N_3  and  C_4
REMARK    5  A    between atoms: C_4  and  C_5
REMARK    6  A    between atoms: C_8  and  C_9
REMARK    7  A    between atoms: C_9  and  N_10
REMARK    8  A    between atoms: C_11  and  C_13
REMARK                            x       y       z     vdW  Elec       q    Type
REMARK                         _______ _______ _______ _____ _____    ______ ____
ROOT
ATOM      1  C   UNL     1      44.618   5.347  11.242  0.00  0.00    +0.000 A 
ATOM      2  C   UNL     1      44.670   5.017  12.598  0.00  0.00    +0.000 A 
ATOM      3  C   UNL     1      45.736   5.461  13.382  0.00  0.00    +0.000 A 
ATOM      4  C   UNL     1      46.728   6.248  12.797  0.00  0.00    +0.000 A 
ATOM      5  N   UNL     1      46.692   6.595  11.486  0.00  0.00    +0.000 NA
ATOM      6  C   UNL     1      45.647   6.144  10.750  0.00  0.00    +0.000 A 
ENDROOT
BRANCH   1   7
ATOM      7  C   UNL     1      43.579   4.769  10.313  0.00  0.00    +0.000 C 
BRANCH   7   8
ATOM      8  N   UNL     1      44.140   4.319   9.038  0.00  0.00    +0.000 NA
ATOM      9  H   UNL     1      44.716   5.076   8.661  0.00  0.00    +0.000 HD
BRANCH   8  11
ATOM     10  C   UNL     1      44.166   1.925   9.517  0.00  0.00    +0.000 C 
ATOM     11  C   UNL     1      45.042   3.147   9.227  0.00  0.00    +0.000 C 
BRANCH  11  12
ATOM     12  C   UNL     1      45.950   2.813   8.039  0.00  0.00    +0.000 A 
ATOM     13  N   UNL     1      46.557   1.607   8.026  0.00  0.00    +0.000 NA
ATOM     14  C   UNL     1      47.302   1.320   6.940  0.00  0.00    +0.000 A 
ATOM     15  C   UNL     1      47.469   2.182   5.883  0.00  0.00    +0.000 A 
ATOM     16  C   UNL     1      46.825   3.392   5.998  0.00  0.00    +0.000 A 
ATOM     17  N   UNL     1      46.060   3.731   7.052  0.00  0.00    +0.000 NA
ENDBRANCH  11  12
ENDBRANCH   8  11
ENDBRANCH   7   8
ENDBRANCH   1   7
BRANCH   4  18
ATOM     18  C   UNL     1      47.932   6.681  13.602  0.00  0.00    +0.000 C 
BRANCH  18  19
ATOM     19  N   UNL     1      47.848   6.212  14.971  0.00  0.00    +0.000 N 
ATOM     20  C   UNL     1      48.933   6.212  15.806  0.00  0.00    +0.000 C 
ATOM     21  O   UNL     1      50.023   6.666  15.466  0.00  0.00    +0.000 OA
ATOM     22  H   UNL     1      47.057   5.609  15.175  0.00  0.00    +0.000 HD
BRANCH  20  23
ATOM     23  C   UNL     1      48.708   5.715  17.169  0.00  0.00    +0.000 A 
ATOM     24  C   UNL     1      48.877   4.366  17.447  0.00  0.00    +0.000 A 
ATOM     25  S   UNL     1      48.619   3.966  19.086  0.00  0.00    +0.000 S 
ATOM     26  C   UNL     1      48.225   5.578  19.470  0.00  0.00    +0.000 A 
ATOM     27  N   UNL     1      47.870   5.927  20.738  0.00  0.00    +0.000 NA
ATOM     28  C   UNL     1      47.566   7.174  20.880  0.00  0.00    +0.000 A 
ATOM     29  N   UNL     1      47.600   8.106  19.874  0.00  0.00    +0.000 N 
ATOM     30  C   UNL     1      47.988   7.809  18.589  0.00  0.00    +0.000 A 
ATOM     31  O   UNL     1      48.063   8.673  17.725  0.00  0.00    +0.000 OA
ATOM     32  C   UNL     1      48.315   6.412  18.370  0.00  0.00    +0.000 A 
ATOM     33  H   UNL     1      47.369   9.071  20.055  0.00  0.00    +0.000 HD
ENDBRANCH  20  23
ENDBRANCH  18  19
ENDBRANCH   4  18
TORSDOF 7
ENDMDL
MODEL 4
REMARK VINA RESULT:    -7.498      4.784      9.612
REMARK INTER + INTRA:         -11.457
REMARK INTER:                 -10.400
REMARK INTRA:                  -1.057
REMARK UNBOUND:                -0.891
REMARK  Name = 
REMARK  8 active torsions:
REMARK  status: ('A' for Active; 'I' for Inactive)
REMARK    1  A    between atoms: C_1  and  C_2
REMARK    2  A    between atoms: C_2  and  N_3
REMARK    3  A    between atoms: C_2  and  C_25
REMARK    4  A    between atoms: N_3  and  C_4
REMARK    5  A    between atoms: C_4  and  C_5
REMARK    6  A    between atoms: C_8  and  C_9
REMARK    7  A    between atoms: C_9  and  N_10
REMARK    8  A    between atoms: C_11  and  C_13
REMARK                            x       y       z     vdW  Elec       q    Type
REMARK                         _______ _______ _______ _____ _____    ______ ____
ROOT
ATOM      1  C   UNL     1      50.711   2.500  17.412  0.00  0.00    +0.000 A 
ATOM      2  C   UNL     1      51.465   3.661  17.592  0.00  0.00    +0.000 A 
ATOM      3  C   UNL     1      50.877   4.911  17.392  0.00  0.00    +0.000 A 
ATOM      4  C   UNL     1      49.532   4.979  17.033  0.00  0.00    +0.000 A 
ATOM      5  N   UNL     1      48.773   3.867  16.867  0.00  0.00    +0.000 NA
ATOM      6  C   UNL     1      49.374   2.668  17.063  0.00  0.00    +0.000 A 
ENDROOT
BRANCH   1   7
ATOM      7  C   UNL     1      51.328   1.124  17.460  0.00  0.00    +0.000 C 
BRANCH   7   8
ATOM      8  N   UNL     1      52.503   1.054  18.330  0.00  0.00    +0.000 NA
ATOM      9  H   UNL     1      52.308   0.374  19.069  0.00  0.00    +0.000 HD
BRANCH   8  11
ATOM     10  C   UNL     1      54.801   1.608  17.721  0.00  0.00    +0.000 C 
ATOM     11  C   UNL     1      53.696   0.555  17.590  0.00  0.00    +0.000 C 
BRANCH  11  12
ATOM     12  C   UNL     1      54.257  -0.788  18.069  0.00  0.00    +0.000 A 
ATOM     13  N   UNL     1      53.928  -1.206  19.309  0.00  0.00    +0.000 NA
ATOM     14  C   UNL     1      54.389  -2.417  19.678  0.00  0.00    +0.000 A 
ATOM     15  C   UNL     1      55.164  -3.214  18.870  0.00  0.00    +0.000 A 
ATOM     16  C   UNL     1      55.458  -2.694  17.632  0.00  0.00    +0.000 A 
ATOM     17  N   UNL     1      55.019  -1.496  17.204  0.00  0.00    +0.000 NA
ENDBRANCH  11  12
ENDBRANCH   8  11
ENDBRANCH   7   8
ENDBRANCH   1   7
BRANCH   4  18
ATOM     18  C   UNL     1      48.887   6.315  16.738  0.00  0.00    +0.000 C 
BRANCH  18  19
ATOM     19  N   UNL     1      47.895   6.201  15.687  0.00  0.00    +0.000 N 
ATOM     20  C   UNL     1      48.197   6.439  14.374  0.00  0.00    +0.000 C 
ATOM     21  O   UNL     1      49.338   6.703  14.001  0.00  0.00    +0.000 OA
ATOM     22  H   UNL     1      46.929   6.246  15.997  0.00  0.00    +0.000 HD
BRANCH  20  23
ATOM     23  C   UNL     1      47.100   6.281  13.411  0.00  0.00    +0.000 A 
ATOM     24  C   UNL     1      46.577   7.398  12.774  0.00  0.00    +0.000 A 
ATOM     25  S   UNL     1      45.340   7.033  11.657  0.00  0.00    +0.000 S 
ATOM     26  C   UNL     1      45.429   5.373  12.023  0.00  0.00    +0.000 A 
ATOM     27  N   UNL     1      44.598   4.479  11.419  0.00  0.00    +0.000 NA
ATOM     28  C   UNL     1      44.752   3.259  11.815  0.00  0.00    +0.000 A 
ATOM     29  N   UNL     1      45.671   2.850  12.748  0.00  0.00    +0.000 N 
ATOM     30  C   UNL     1      46.555   3.709  13.356  0.00  0.00    +0.000 A 
ATOM     31  O   UNL     1      47.402   3.307  14.142  0.00  0.00    +0.000 OA
ATOM     32  C   UNL     1      46.405   5.099  12.964  0.00  0.00    +0.000 A 
ATOM     33  H   UNL     1      45.754   1.877  12.999  0.00  0.00    +0.000 HD
ENDBRANCH  20  23
ENDBRANCH  18  19
ENDBRANCH   4  18
TORSDOF 7
ENDMDL
MODEL 5
REMARK VINA RESULT:    -7.369      3.133      8.967
REMARK INTER + INTRA:         -11.276
REMARK INTER:                  -9.859
REMARK INTRA:                  -1.417
REMARK UNBOUND:                -0.891
REMARK  Name = 
REMARK  8 active torsions:
REMARK  status: ('A' for Active; 'I' for Inactive)
REMARK    1  A    between atoms: C_1  and  C_2
REMARK    2  A    between atoms: C_2  and  N_3
REMARK    3  A    between atoms: C_2  and  C_25
REMARK    4  A    between atoms: N_3  and  C_4
REMARK    5  A    between atoms: C_4  and  C_5
REMARK    6  A    between atoms: C_8  and  C_9
REMARK    7  A    between atoms: C_9  and  N_10
REMARK    8  A    between atoms: C_11  and  C_13
REMARK                            x       y       z     vdW  Elec       q    Type
REMARK                         _______ _______ _______ _____ _____    ______ ____
ROOT
ATOM      1  C   UNL     1      48.722   8.102  16.105  0.00  0.00    +0.000 A 
ATOM      2  C   UNL     1      48.969   6.924  15.398  0.00  0.00    +0.000 A 
ATOM      3  C   UNL     1      48.596   6.826  14.057  0.00  0.00    +0.000 A 
ATOM      4  C   UNL     1      47.998   7.921  13.436  0.00  0.00    +0.000 A 
ATOM      5  N   UNL     1      47.761   9.083  14.097  0.00  0.00    +0.000 NA
ATOM      6  C   UNL     1      48.129   9.145  15.400  0.00  0.00    +0.000 A 
ENDROOT
BRANCH   1   7
ATOM      7  C   UNL     1      48.957   8.213  17.591  0.00  0.00    +0.000 C 
BRANCH   7   8
ATOM      8  N   UNL     1      47.883   7.613  18.386  0.00  0.00    +0.000 NA
ATOM      9  H   UNL     1      47.153   7.297  17.743  0.00  0.00    +0.000 HD
BRANCH   8  11
ATOM     10  C   UNL     1      47.474   6.229  20.355  0.00  0.00    +0.000 C 
ATOM     11  C   UNL     1      48.362   6.408  19.120  0.00  0.00    +0.000 C 
BRANCH  11  12
ATOM     12  C   UNL     1      48.342   5.098  18.324  0.00  0.00    +0.000 A 
ATOM     13  N   UNL     1      47.191   4.746  17.714  0.00  0.00    +0.000 NA
ATOM     14  C   UNL     1      47.223   3.619  16.975  0.00  0.00    +0.000 A 
ATOM     15  C   UNL     1      48.343   2.836  16.830  0.00  0.00    +0.000 A 
ATOM     16  C   UNL     1      49.460   3.270  17.504  0.00  0.00    +0.000 A 
ATOM     17  N   UNL     1      49.492   4.390  18.248  0.00  0.00    +0.000 NA
ENDBRANCH  11  12
ENDBRANCH   8  11
ENDBRANCH   7   8
ENDBRANCH   1   7
BRANCH   4  18
ATOM     18  C   UNL     1      47.516   7.820  12.006  0.00  0.00    +0.000 C 
BRANCH  18  19
ATOM     19  N   UNL     1      46.812   6.575  11.773  0.00  0.00    +0.000 N 
ATOM     20  C   UNL     1      45.445   6.508  11.744  0.00  0.00    +0.000 C 
ATOM     21  O   UNL     1      44.738   7.506  11.851  0.00  0.00    +0.000 OA
ATOM     22  H   UNL     1      47.353   5.732  11.945  0.00  0.00    +0.000 HD
BRANCH  20  23
ATOM     23  C   UNL     1      44.861   5.185  11.492  0.00  0.00    +0.000 A 
ATOM     24  C   UNL     1      44.119   4.560  12.485  0.00  0.00    +0.000 A 
ATOM     25  S   UNL     1      43.477   3.051  12.013  0.00  0.00    +0.000 S 
ATOM     26  C   UNL     1      44.210   3.161  10.480  0.00  0.00    +0.000 A 
ATOM     27  N   UNL     1      44.077   2.158   9.568  0.00  0.00    +0.000 NA
ATOM     28  C   UNL     1      44.711   2.358   8.462  0.00  0.00    +0.000 A 
ATOM     29  N   UNL     1      45.454   3.477   8.177  0.00  0.00    +0.000 N 
ATOM     30  C   UNL     1      45.586   4.530   9.050  0.00  0.00    +0.000 A 
ATOM     31  O   UNL     1      46.208   5.540   8.747  0.00  0.00    +0.000 OA
ATOM     32  C   UNL     1      44.912   4.342  10.322  0.00  0.00    +0.000 A 
ATOM     33  H   UNL     1      45.910   3.581   7.284  0.00  0.00    +0.000 HD
ENDBRANCH  20  23
ENDBRANCH  18  19
ENDBRANCH   4  18
TORSDOF 7
ENDMDL
MODEL 6
REMARK VINA RESULT:    -7.293      3.088      4.382
REMARK INTER + INTRA:         -11.169
REMARK INTER:                  -9.978
REMARK INTRA:                  -1.191
REMARK UNBOUND:                -0.891
REMARK  Name = 
REMARK  8 active torsions:
REMARK  status: ('A' for Active; 'I' for Inactive)
REMARK    1  A    between atoms: C_1  and  C_2
REMARK    2  A    between atoms: C_2  and  N_3
REMARK    3  A    between atoms: C_2  and  C_25
REMARK    4  A    between atoms: N_3  and  C_4
REMARK    5  A    between atoms: C_4  and  C_5
REMARK    6  A    between atoms: C_8  and  C_9
REMARK    7  A    between atoms: C_9  and  N_10
REMARK    8  A    between atoms: C_11  and  C_13
REMARK                            x       y       z     vdW  Elec       q    Type
REMARK                         _______ _______ _______ _____ _____    ______ ____
ROOT
ATOM      1  C   UNL     1      47.068   5.179  14.012  0.00  0.00    +0.000 A 
ATOM      2  C   UNL     1      47.869   6.321  13.963  0.00  0.00    +0.000 A 
ATOM      3  C   UNL     1      48.603   6.706  15.086  0.00  0.00    +0.000 A 
ATOM      4  C   UNL     1      48.537   5.927  16.240  0.00  0.00    +0.000 A 
ATOM      5  N   UNL     1      47.779   4.804  16.308  0.00  0.00    +0.000 NA
ATOM      6  C   UNL     1      47.073   4.459  15.203  0.00  0.00    +0.000 A 
ENDROOT
BRANCH   1   7
ATOM      7  C   UNL     1      46.135   4.802  12.889  0.00  0.00    +0.000 C 
BRANCH   7   8
ATOM      8  N   UNL     1      45.264   3.674  13.223  0.00  0.00    +0.000 NA
ATOM      9  H   UNL     1      44.936   3.803  14.184  0.00  0.00    +0.000 HD
BRANCH   8  11
ATOM     10  C   UNL     1      43.300   4.965  12.564  0.00  0.00    +0.000 C 
ATOM     11  C   UNL     1      44.054   3.648  12.355  0.00  0.00    +0.000 C 
BRANCH  11  12
ATOM     12  C   UNL     1      44.319   3.484  10.854  0.00  0.00    +0.000 A 
ATOM     13  N   UNL     1      44.025   4.522  10.043  0.00  0.00    +0.000 NA
ATOM     14  C   UNL     1      44.323   4.368   8.738  0.00  0.00    +0.000 A 
ATOM     15  C   UNL     1      44.891   3.230   8.216  0.00  0.00    +0.000 A 
ATOM     16  C   UNL     1      45.138   2.224   9.120  0.00  0.00    +0.000 A 
ATOM     17  N   UNL     1      44.870   2.322  10.435  0.00  0.00    +0.000 NA
ENDBRANCH  11  12
ENDBRANCH   8  11
ENDBRANCH   7   8
ENDBRANCH   1   7
BRANCH   4  18
ATOM     18  C   UNL     1      49.262   6.358  17.495  0.00  0.00    +0.000 C 
BRANCH  18  19
ATOM     19  N   UNL     1      50.257   5.382  17.892  0.00  0.00    +0.000 N 
ATOM     20  C   UNL     1      51.539   5.414  17.411  0.00  0.00    +0.000 C 
ATOM     21  O   UNL     1      51.937   6.307  16.666  0.00  0.00    +0.000 OA
ATOM     22  H   UNL     1      49.888   4.518  18.279  0.00  0.00    +0.000 HD
BRANCH  20  23
ATOM     23  C   UNL     1      52.447   4.369  17.900  0.00  0.00    +0.000 A 
ATOM     24  C   UNL     1      53.634   4.726  18.524  0.00  0.00    +0.000 A 
ATOM     25  S   UNL     1      54.549   3.393  19.069  0.00  0.00    +0.000 S 
ATOM     26  C   UNL     1      53.410   2.291  18.447  0.00  0.00    +0.000 A 
ATOM     27  N   UNL     1      53.606   0.948  18.555  0.00  0.00    +0.000 NA
ATOM     28  C   UNL     1      52.681   0.231  18.011  0.00  0.00    +0.000 A 
ATOM     29  N   UNL     1      51.569   0.734  17.382  0.00  0.00    +0.000 N 
ATOM     30  C   UNL     1      51.310   2.080  17.281  0.00  0.00    +0.000 A 
ATOM     31  O   UNL     1      50.283   2.498  16.764  0.00  0.00    +0.000 OA
ATOM     32  C   UNL     1      52.336   2.932  17.855  0.00  0.00    +0.000 A 
ATOM     33  H   UNL     1      50.871   0.117  16.994  0.00  0.00    +0.000 HD
ENDBRANCH  20  23
ENDBRANCH  18  19
ENDBRANCH   4  18
TORSDOF 7
ENDMDL
MODEL 7
REMARK VINA RESULT:    -7.136      4.678      9.809
REMARK INTER + INTRA:         -10.947
REMARK INTER:                 -10.174
REMARK INTRA:                  -0.773
REMARK UNBOUND:                -0.891
REMARK  Name = 
REMARK  8 active torsions:
REMARK  status: ('A' for Active; 'I' for Inactive)
REMARK    1  A    between atoms: C_1  and  C_2
REMARK    2  A    between atoms: C_2  and  N_3
REMARK    3  A    between atoms: C_2  and  C_25
REMARK    4  A    between atoms: N_3  and  C_4
REMARK    5  A    between atoms: C_4  and  C_5
REMARK    6  A    between atoms: C_8  and  C_9
REMARK    7  A    between atoms: C_9  and  N_10
REMARK    8  A    between atoms: C_11  and  C_13
REMARK                            x       y       z     vdW  Elec       q    Type
REMARK                         _______ _______ _______ _____ _____    ______ ____
ROOT
ATOM      1  C   UNL     1      51.288   3.450  17.880  0.00  0.00    +0.000 A 
ATOM      2  C   UNL     1      50.699   2.290  17.374  0.00  0.00    +0.000 A 
ATOM      3  C   UNL     1      49.341   2.281  17.053  0.00  0.00    +0.000 A 
ATOM      4  C   UNL     1      48.595   3.445  17.228  0.00  0.00    +0.000 A 
ATOM      5  N   UNL     1      49.146   4.589  17.704  0.00  0.00    +0.000 NA
ATOM      6  C   UNL     1      50.466   4.565  18.011  0.00  0.00    +0.000 A 
ENDROOT
BRANCH   1   7
ATOM      7  C   UNL     1      52.708   3.475  18.390  0.00  0.00    +0.000 C 
BRANCH   7   8
ATOM      8  N   UNL     1      53.189   2.157  18.807  0.00  0.00    +0.000 NA
ATOM      9  H   UNL     1      52.384   1.528  18.857  0.00  0.00    +0.000 HD
BRANCH   8  11
ATOM     10  C   UNL     1      55.486   2.255  17.986  0.00  0.00    +0.000 C 
ATOM     11  C   UNL     1      54.124   1.579  17.800  0.00  0.00    +0.000 C 
BRANCH  11  12
ATOM     12  C   UNL     1      54.329   0.063  17.881  0.00  0.00    +0.000 A 
ATOM     13  N   UNL     1      54.714  -0.584  16.761  0.00  0.00    +0.000 NA
ATOM     14  C   UNL     1      54.942  -1.907  16.879  0.00  0.00    +0.000 A 
ATOM     15  C   UNL     1      54.795  -2.603  18.055  0.00  0.00    +0.000 A 
ATOM     16  C   UNL     1      54.383  -1.858  19.135  0.00  0.00    +0.000 A 
ATOM     17  N   UNL     1      54.149  -0.534  19.081  0.00  0.00    +0.000 NA
ENDBRANCH  11  12
ENDBRANCH   8  11
ENDBRANCH   7   8
ENDBRANCH   1   7
BRANCH   4  18
ATOM     18  C   UNL     1      47.106   3.445  16.960  0.00  0.00    +0.000 C 
BRANCH  18  19
ATOM     19  N   UNL     1      46.754   4.414  15.941  0.00  0.00    +0.000 N 
ATOM     20  C   UNL     1      46.921   4.157  14.606  0.00  0.00    +0.000 C 
ATOM     21  O   UNL     1      47.319   3.071  14.192  0.00  0.00    +0.000 OA
ATOM     22  H   UNL     1      46.681   5.374  16.262  0.00  0.00    +0.000 HD
BRANCH  20  23
ATOM     23  C   UNL     1      46.518   5.223  13.680  0.00  0.00    +0.000 A 
ATOM     24  C   UNL     1      47.388   6.272  13.417  0.00  0.00    +0.000 A 
ATOM     25  S   UNL     1      46.781   7.398  12.288  0.00  0.00    +0.000 S 
ATOM     26  C   UNL     1      45.314   6.545  12.148  0.00  0.00    +0.000 A 
ATOM     27  N   UNL     1      44.316   6.999  11.340  0.00  0.00    +0.000 NA
ATOM     28  C   UNL     1      43.249   6.273  11.355  0.00  0.00    +0.000 A 
ATOM     29  N   UNL     1      43.093   5.126  12.093  0.00  0.00    +0.000 N 
ATOM     30  C   UNL     1      44.084   4.610  12.894  0.00  0.00    +0.000 A 
ATOM     31  O   UNL     1      43.937   3.555  13.496  0.00  0.00    +0.000 OA
ATOM     32  C   UNL     1      45.298   5.405  12.932  0.00  0.00    +0.000 A 
ATOM     33  H   UNL     1      42.239   4.593  12.045  0.00  0.00    +0.000 HD
ENDBRANCH  20  23
ENDBRANCH  18  19
ENDBRANCH   4  18
TORSDOF 7
ENDMDL
MODEL 8
REMARK VINA RESULT:    -6.641      3.674      8.325
REMARK INTER + INTRA:         -10.250
REMARK INTER:                  -8.320
REMARK INTRA:                  -1.930
REMARK UNBOUND:                -0.891
REMARK  Name = 
REMARK  8 active torsions:
REMARK  status: ('A' for Active; 'I' for Inactive)
REMARK    1  A    between atoms: C_1  and  C_2
REMARK    2  A    between atoms: C_2  and  N_3
REMARK    3  A    between atoms: C_2  and  C_25
REMARK    4  A    between atoms: N_3  and  C_4
REMARK    5  A    between atoms: C_4  and  C_5
REMARK    6  A    between atoms: C_8  and  C_9
REMARK    7  A    between atoms: C_9  and  N_10
REMARK    8  A    between atoms: C_11  and  C_13
REMARK                            x       y       z     vdW  Elec       q    Type
REMARK                         _______ _______ _______ _____ _____    ______ ____
ROOT
ATOM      1  C   UNL     1      51.165   7.235  17.051  0.00  0.00    +0.000 A 
ATOM      2  C   UNL     1      51.147   7.214  15.655  0.00  0.00    +0.000 A 
ATOM      3  C   UNL     1      50.170   7.928  14.960  0.00  0.00    +0.000 A 
ATOM      4  C   UNL     1      49.234   8.671  15.677  0.00  0.00    +0.000 A 
ATOM      5  N   UNL     1      49.238   8.721  17.032  0.00  0.00    +0.000 NA
ATOM      6  C   UNL     1      50.196   8.013  17.679  0.00  0.00    +0.000 A 
ENDROOT
BRANCH   1   7
ATOM      7  C   UNL     1      52.093   6.362  17.857  0.00  0.00    +0.000 C 
BRANCH   7   8
ATOM      8  N   UNL     1      52.084   4.964  17.424  0.00  0.00    +0.000 NA
ATOM      9  H   UNL     1      53.033   4.595  17.528  0.00  0.00    +0.000 HD
BRANCH   8  11
ATOM     10  C   UNL     1      51.182   4.772  19.685  0.00  0.00    +0.000 C 
ATOM     11  C   UNL     1      51.202   4.134  18.292  0.00  0.00    +0.000 C 
BRANCH  11  12
ATOM     12  C   UNL     1      49.754   3.985  17.815  0.00  0.00    +0.000 A 
ATOM     13  N   UNL     1      49.482   3.022  16.909  0.00  0.00    +0.000 NA
ATOM     14  C   UNL     1      48.190   2.879  16.553  0.00  0.00    +0.000 A 
ATOM     15  C   UNL     1      47.172   3.654  17.055  0.00  0.00    +0.000 A 
ATOM     16  C   UNL     1      47.553   4.618  17.959  0.00  0.00    +0.000 A 
ATOM     17  N   UNL     1      48.824   4.803  18.359  0.00  0.00    +0.000 NA
ENDBRANCH  11  12
ENDBRANCH   8  11
ENDBRANCH   7   8
ENDBRANCH   1   7
BRANCH   4  18
ATOM     18  C   UNL     1      48.119   9.395  14.955  0.00  0.00    +0.000 C 
BRANCH  18  19
ATOM     19  N   UNL     1      47.180   8.462  14.365  0.00  0.00    +0.000 N 
ATOM     20  C   UNL     1      47.042   8.329  13.010  0.00  0.00    +0.000 C 
ATOM     21  O   UNL     1      47.749   8.945  12.215  0.00  0.00    +0.000 OA
ATOM     22  H   UNL     1      46.431   8.155  14.979  0.00  0.00    +0.000 HD
BRANCH  20  23
ATOM     23  C   UNL     1      46.059   7.342  12.546  0.00  0.00    +0.000 A 
ATOM     24  C   UNL     1      44.960   7.760  11.808  0.00  0.00    +0.000 A 
ATOM     25  S   UNL     1      43.941   6.484  11.313  0.00  0.00    +0.000 S 
ATOM     26  C   UNL     1      44.911   5.333  12.110  0.00  0.00    +0.000 A 
ATOM     27  N   UNL     1      44.577   4.013  12.103  0.00  0.00    +0.000 NA
ATOM     28  C   UNL     1      45.381   3.258  12.774  0.00  0.00    +0.000 A 
ATOM     29  N   UNL     1      46.497   3.700  13.438  0.00  0.00    +0.000 N 
ATOM     30  C   UNL     1      46.895   5.016  13.442  0.00  0.00    +0.000 A 
ATOM     31  O   UNL     1      47.927   5.372  13.996  0.00  0.00    +0.000 OA
ATOM     32  C   UNL     1      46.008   5.912  12.722  0.00  0.00    +0.000 A 
ATOM     33  H   UNL     1      47.097   3.053  13.928  0.00  0.00    +0.000 HD
ENDBRANCH  20  23
ENDBRANCH  18  19
ENDBRANCH   4  18
TORSDOF 7
ENDMDL
MODEL 9
REMARK VINA RESULT:    -6.607      3.845      9.330
REMARK INTER + INTRA:         -10.202
REMARK INTER:                  -8.937
REMARK INTRA:                  -1.264
REMARK UNBOUND:                -0.891
REMARK  Name = 
REMARK  8 active torsions:
REMARK  status: ('A' for Active; 'I' for Inactive)
REMARK    1  A    between atoms: C_1  and  C_2
REMARK    2  A    between atoms: C_2  and  N_3
REMARK    3  A    between atoms: C_2  and  C_25
REMARK    4  A    between atoms: N_3  and  C_4
REMARK    5  A    between atoms: C_4  and  C_5
REMARK    6  A    between atoms: C_8  and  C_9
REMARK    7  A    between atoms: C_9  and  N_10
REMARK    8  A    between atoms: C_11  and  C_13
REMARK                            x       y       z     vdW  Elec       q    Type
REMARK                         _______ _______ _______ _____ _____    ______ ____
ROOT
ATOM      1  C   UNL     1      50.630   5.133  18.863  0.00  0.00    +0.000 A 
ATOM      2  C   UNL     1      49.460   4.795  19.545  0.00  0.00    +0.000 A 
ATOM      3  C   UNL     1      48.394   4.216  18.857  0.00  0.00    +0.000 A 
ATOM      4  C   UNL     1      48.523   3.965  17.491  0.00  0.00    +0.000 A 
ATOM      5  N   UNL     1      49.655   4.269  16.808  0.00  0.00    +0.000 NA
ATOM      6  C   UNL     1      50.671   4.836  17.503  0.00  0.00    +0.000 A 
ENDROOT
BRANCH   1   7
ATOM      7  C   UNL     1      51.751   5.901  19.517  0.00  0.00    +0.000 C 
BRANCH   7   8
ATOM      8  N   UNL     1      51.932   7.239  18.953  0.00  0.00    +0.000 NA
ATOM      9  H   UNL     1      51.941   7.154  17.934  0.00  0.00    +0.000 HD
BRANCH   8  11
ATOM     10  C   UNL     1      51.363   9.393  19.953  0.00  0.00    +0.000 C 
ATOM     11  C   UNL     1      50.790   8.132  19.300  0.00  0.00    +0.000 C 
BRANCH  11  12
ATOM     12  C   UNL     1      49.906   8.563  18.124  0.00  0.00    +0.000 A 
ATOM     13  N   UNL     1      50.357   8.325  16.874  0.00  0.00    +0.000 NA
ATOM     14  C   UNL     1      49.532   8.663  15.863  0.00  0.00    +0.000 A 
ATOM     15  C   UNL     1      48.293   9.229  16.049  0.00  0.00    +0.000 A 
ATOM     16  C   UNL     1      47.932   9.446  17.357  0.00  0.00    +0.000 A 
ATOM     17  N   UNL     1      48.708   9.122  18.408  0.00  0.00    +0.000 NA
ENDBRANCH  11  12
ENDBRANCH   8  11
ENDBRANCH   7   8
ENDBRANCH   1   7
BRANCH   4  18
ATOM     18  C   UNL     1      47.359   3.407  16.704  0.00  0.00    +0.000 C 
BRANCH  18  19
ATOM     19  N   UNL     1      46.844   4.382  15.763  0.00  0.00    +0.000 N 
ATOM     20  C   UNL     1      46.879   4.175  14.410  0.00  0.00    +0.000 C 
ATOM     21  O   UNL     1      47.290   3.127  13.917  0.00  0.00    +0.000 OA
ATOM     22  H   UNL     1      46.751   5.327  16.124  0.00  0.00    +0.000 HD
BRANCH  20  23
ATOM     23  C   UNL     1      46.317   5.241  13.571  0.00  0.00    +0.000 A 
ATOM     24  C   UNL     1      47.017   6.428  13.406  0.00  0.00    +0.000 A 
ATOM     25  S   UNL     1      46.245   7.540  12.367  0.00  0.00    +0.000 S 
ATOM     26  C   UNL     1      44.924   6.489  12.140  0.00  0.00    +0.000 A 
ATOM     27  N   UNL     1      43.869   6.852  11.360  0.00  0.00    +0.000 NA
ATOM     28  C   UNL     1      42.924   5.974  11.303  0.00  0.00    +0.000 A 
ATOM     29  N   UNL     1      42.945   4.760  11.941  0.00  0.00    +0.000 N 
ATOM     30  C   UNL     1      44.004   4.334  12.708  0.00  0.00    +0.000 A 
ATOM     31  O   UNL     1      44.020   3.222  13.219  0.00  0.00    +0.000 OA
ATOM     32  C   UNL     1      45.083   5.298  12.826  0.00  0.00    +0.000 A 
ATOM     33  H   UNL     1      42.182   4.108  11.839  0.00  0.00    +0.000 HD
ENDBRANCH  20  23
ENDBRANCH  18  19
ENDBRANCH   4  18
TORSDOF 7
ENDMDL
