MODEL 1
REMARK VINA RESULT:    -7.355      0.000      0.000
REMARK INTER + INTRA:          -9.906
REMARK INTER:                  -9.289
REMARK INTRA:                  -0.616
REMARK UNBOUND:                -0.616
REMARK  Name = 
REMARK  5 active torsions:
REMARK  status: ('A' for Active; 'I' for Inactive)
REMARK    1  A    between atoms: N_1  and  C_2
REMARK    2  A    between atoms: C_2  and  C_3
REMARK    3  A    between atoms: C_6  and  O_7
REMARK    4  A    between atoms: O_7  and  C_8
REMARK    5  A    between atoms: C_8  and  C_9
REMARK                            x       y       z     vdW  Elec       q    Type
REMARK                         _______ _______ _______ _____ _____    ______ ____
ROOT
ATOM      1  C   UNL     1      46.908   2.362   7.250  0.00  0.00    +0.000 A 
ATOM      2  C   UNL     1      46.474   3.693   7.343  0.00  0.00    +0.000 A 
ATOM      3  C   UNL     1      45.436   4.052   8.215  0.00  0.00    +0.000 A 
ATOM      4  C   UNL     1      44.816   3.082   9.000  0.00  0.00    +0.000 A 
ATOM      5  C   UNL     1      45.270   1.760   8.933  0.00  0.00    +0.000 A 
ATOM      6  C   UNL     1      46.303   1.402   8.067  0.00  0.00    +0.000 A 
ENDROOT
BRANCH   1   7
ATOM      7  C   UNL     1      47.968   1.965   6.253  0.00  0.00    +0.000 C 
BRANCH   7   8
ATOM      8  N   UNL     1      48.085   2.922   5.160  0.00  0.00    +0.000 NA
ATOM      9  H   UNL     1      48.187   2.413   4.285  0.00  0.00    +0.000 HD
ATOM     10  H   UNL     1      48.945   3.455   5.284  0.00  0.00    +0.000 HD
ENDBRANCH   7   8
ENDBRANCH   1   7
BRANCH   4  11
ATOM     11  O   UNL     1      43.775   3.283   9.863  0.00  0.00    +0.000 OA
BRANCH  11  12
ATOM     12  C   UNL     1      43.603   4.601  10.393  0.00  0.00    +0.000 C 
BRANCH  12  13
ATOM     13  C   UNL     1      43.329   4.484  11.904  0.00  0.00    +0.000 C 
ATOM     14  C   UNL     1      43.998   5.605  12.723  0.00  0.00    +0.000 C 
ATOM     15  C   UNL     1      45.501   5.390  12.894  0.00  0.00    +0.000 C 
ATOM     16  C   UNL     1      45.839   3.965  13.327  0.00  0.00    +0.000 C 
ATOM     17  N   UNL     1      45.216   2.964  12.458  0.00  0.00    +0.000 NA
ATOM     18  C   UNL     1      43.760   3.116  12.446  0.00  0.00    +0.000 C 
ATOM     19  H   UNL     1      45.452   2.033  12.805  0.00  0.00    +0.000 HD
ENDBRANCH  12  13
ENDBRANCH  11  12
ENDBRANCH   4  11
TORSDOF 5
ENDMDL
MODEL 2
REMARK VINA RESULT:    -7.349      0.196      1.219
REMARK INTER + INTRA:          -9.898
REMARK INTER:                  -9.292
REMARK INTRA:                  -0.606
REMARK UNBOUND:                -0.616
REMARK  Name = 
REMARK  5 active torsions:
REMARK  status: ('A' for Active; 'I' for Inactive)
REMARK    1  A    between atoms: N_1  and  C_2
REMARK    2  A    between atoms: C_2  and  C_3
REMARK    3  A    between atoms: C_6  and  O_7
REMARK    4  A    between atoms: O_7  and  C_8
REMARK    5  A    between atoms: C_8  and  C_9
REMARK                            x       y       z     vdW  Elec       q    Type
REMARK                         _______ _______ _______ _____ _____    ______ ____
ROOT
ATOM      1  C   UNL     1      46.867   2.393   7.302  0.00  0.00    +0.000 A 
ATOM      2  C   UNL     1      46.285   1.357   8.048  0.00  0.00    +0.000 A 
ATOM      3  C   UNL     1      45.217   1.611   8.920  0.00  0.00    +0.000 A 
ATOM      4  C   UNL     1      44.722   2.905   9.060  0.00  0.00    +0.000 A 
ATOM      5  C   UNL     1      45.278   3.934   8.293  0.00  0.00    +0.000 A 
ATOM      6  C   UNL     1      46.341   3.683   7.425  0.00  0.00    +0.000 A 
ENDROOT
BRANCH   1   7
ATOM      7  C   UNL     1      48.069   2.132   6.428  0.00  0.00    +0.000 C 
BRANCH   7   8
ATOM      8  N   UNL     1      48.015   2.883   5.180  0.00  0.00    +0.000 NA
ATOM      9  H   UNL     1      48.965   3.068   4.865  0.00  0.00    +0.000 HD
ATOM     10  H   UNL     1      47.592   3.791   5.363  0.00  0.00    +0.000 HD
ENDBRANCH   7   8
ENDBRANCH   1   7
BRANCH   4  11
ATOM     11  O   UNL     1      43.712   3.300   9.894  0.00  0.00    +0.000 OA
BRANCH  11  12
ATOM     12  C   UNL     1      43.727   4.655  10.352  0.00  0.00    +0.000 C 
BRANCH  12  13
ATOM     13  C   UNL     1      43.497   4.656  11.875  0.00  0.00    +0.000 C 
ATOM     14  C   UNL     1      44.333   5.722  12.607  0.00  0.00    +0.000 C 
ATOM     15  C   UNL     1      45.801   5.324  12.746  0.00  0.00    +0.000 C 
ATOM     16  C   UNL     1      45.969   3.892  13.251  0.00  0.00    +0.000 C 
ATOM     17  N   UNL     1      45.193   2.935  12.459  0.00  0.00    +0.000 NA
ATOM     18  C   UNL     1      43.769   3.273  12.481  0.00  0.00    +0.000 C 
ATOM     19  H   UNL     1      45.321   2.002  12.853  0.00  0.00    +0.000 HD
ENDBRANCH  12  13
ENDBRANCH  11  12
ENDBRANCH   4  11
TORSDOF 5
ENDMDL
MODEL 3
REMARK VINA RESULT:    -6.279      2.280      3.010
REMARK INTER + INTRA:          -8.547
REMARK INTER:                  -8.300
REMARK INTRA:                  -0.248
REMARK UNBOUND:                -0.616
REMARK  Name = 
REMARK  5 active torsions:
REMARK  status: ('A' for Active; 'I' for Inactive)
REMARK    1  A    between atoms: N_1  and  C_2
REMARK    2  A    between atoms: C_2  and  C_3
REMARK    3  A    between atoms: C_6  and  O_7
REMARK    4  A    between atoms: O_7  and  C_8
REMARK    5  A    between atoms: C_8  and  C_9
REMARK                            x       y       z     vdW  Elec       q    Type
REMARK                         _______ _______ _______ _____ _____    ______ ____
ROOT
ATOM      1  C   UNL     1      46.148   2.080   7.949  0.00  0.00    +0.000 A 
ATOM      2  C   UNL     1      45.259   1.608   8.926  0.00  0.00    +0.000 A 
ATOM      3  C   UNL     1      44.475   2.498   9.674  0.00  0.00    +0.000 A 
ATOM      4  C   UNL     1      44.574   3.870   9.457  0.00  0.00    +0.000 A 
ATOM      5  C   UNL     1      45.435   4.341   8.459  0.00  0.00    +0.000 A 
ATOM      6  C   UNL     1      46.216   3.457   7.714  0.00  0.00    +0.000 A 
ENDROOT
BRANCH   1   7
ATOM      7  C   UNL     1      47.050   1.128   7.203  0.00  0.00    +0.000 C 
BRANCH   7   8
ATOM      8  N   UNL     1      46.920  -0.243   7.680  0.00  0.00    +0.000 NA
ATOM      9  H   UNL     1      47.718  -0.463   8.273  0.00  0.00    +0.000 HD
ATOM     10  H   UNL     1      46.974  -0.873   6.880  0.00  0.00    +0.000 HD
ENDBRANCH   7   8
ENDBRANCH   1   7
BRANCH   4  11
ATOM     11  O   UNL     1      43.898   4.848  10.132  0.00  0.00    +0.000 OA
BRANCH  11  12
ATOM     12  C   UNL     1      44.509   5.377  11.313  0.00  0.00    +0.000 C 
BRANCH  12  13
ATOM     13  C   UNL     1      45.420   6.549  10.905  0.00  0.00    +0.000 C 
ATOM     14  C   UNL     1      46.845   6.429  11.479  0.00  0.00    +0.000 C 
ATOM     15  C   UNL     1      46.912   6.786  12.963  0.00  0.00    +0.000 C 
ATOM     16  C   UNL     1      46.180   8.088  13.282  0.00  0.00    +0.000 C 
ATOM     17  N   UNL     1      44.813   8.092  12.757  0.00  0.00    +0.000 NA
ATOM     18  C   UNL     1      44.809   7.898  11.306  0.00  0.00    +0.000 C 
ATOM     19  H   UNL     1      44.379   8.991  12.975  0.00  0.00    +0.000 HD
ENDBRANCH  12  13
ENDBRANCH  11  12
ENDBRANCH   4  11
TORSDOF 5
ENDMDL
MODEL 4
REMARK VINA RESULT:    -5.552      1.838      5.887
REMARK INTER + INTRA:          -7.629
REMARK INTER:                  -7.098
REMARK INTRA:                  -0.531
REMARK UNBOUND:                -0.616
REMARK  Name = 
REMARK  5 active torsions:
REMARK  status: ('A' for Active; 'I' for Inactive)
REMARK    1  A    between atoms: N_1  and  C_2
REMARK    2  A    between atoms: C_2  and  C_3
REMARK    3  A    between atoms: C_6  and  O_7
REMARK    4  A    between atoms: O_7  and  C_8
REMARK    5  A    between atoms: C_8  and  C_9
REMARK                            x       y       z     vdW  Elec       q    Type
REMARK                         _______ _______ _______ _____ _____    ______ ____
ROOT
ATOM      1  C   UNL     1      46.271   4.694  13.650  0.00  0.00    +0.000 A 
ATOM      2  C   UNL     1      46.132   5.934  13.008  0.00  0.00    +0.000 A 
ATOM      3  C   UNL     1      45.638   6.014  11.698  0.00  0.00    +0.000 A 
ATOM      4  C   UNL     1      45.280   4.854  11.014  0.00  0.00    +0.000 A 
ATOM      5  C   UNL     1      45.385   3.620  11.664  0.00  0.00    +0.000 A 
ATOM      6  C   UNL     1      45.877   3.539  12.967  0.00  0.00    +0.000 A 
ENDROOT
BRANCH   1   7
ATOM      7  C   UNL     1      46.880   4.603  15.027  0.00  0.00    +0.000 C 
BRANCH   7   8
ATOM      8  N   UNL     1      47.980   5.542  15.207  0.00  0.00    +0.000 NA
ATOM      9  H   UNL     1      48.861   5.045  15.090  0.00  0.00    +0.000 HD
ATOM     10  H   UNL     1      47.967   5.879  16.169  0.00  0.00    +0.000 HD
ENDBRANCH   7   8
ENDBRANCH   1   7
BRANCH   4  11
ATOM     11  O   UNL     1      44.818   4.782   9.729  0.00  0.00    +0.000 OA
BRANCH  11  12
ATOM     12  C   UNL     1      45.789   4.700   8.682  0.00  0.00    +0.000 C 
BRANCH  12  13
ATOM     13  C   UNL     1      45.262   3.735   7.605  0.00  0.00    +0.000 C 
ATOM     14  C   UNL     1      44.695   2.430   8.195  0.00  0.00    +0.000 C 
ATOM     15  C   UNL     1      45.790   1.463   8.643  0.00  0.00    +0.000 C 
ATOM     16  C   UNL     1      46.880   1.291   7.587  0.00  0.00    +0.000 C 
ATOM     17  N   UNL     1      47.409   2.577   7.128  0.00  0.00    +0.000 NA
ATOM     18  C   UNL     1      46.344   3.410   6.567  0.00  0.00    +0.000 C 
ATOM     19  H   UNL     1      48.113   2.406   6.408  0.00  0.00    +0.000 HD
ENDBRANCH  12  13
ENDBRANCH  11  12
ENDBRANCH   4  11
TORSDOF 5
ENDMDL
MODEL 5
REMARK VINA RESULT:    -5.242      3.674      5.889
REMARK INTER + INTRA:          -7.237
REMARK INTER:                  -6.503
REMARK INTRA:                  -0.734
REMARK UNBOUND:                -0.616
REMARK  Name = 
REMARK  5 active torsions:
REMARK  status: ('A' for Active; 'I' for Inactive)
REMARK    1  A    between atoms: N_1  and  C_2
REMARK    2  A    between atoms: C_2  and  C_3
REMARK    3  A    between atoms: C_6  and  O_7
REMARK    4  A    between atoms: O_7  and  C_8
REMARK    5  A    between atoms: C_8  and  C_9
REMARK                            x       y       z     vdW  Elec       q    Type
REMARK                         _______ _______ _______ _____ _____    ______ ____
ROOT
ATOM      1  C   UNL     1      48.079   8.698  12.044  0.00  0.00    +0.000 A 
ATOM      2  C   UNL     1      46.997   9.377  12.624  0.00  0.00    +0.000 A 
ATOM      3  C   UNL     1      45.782   8.720  12.866  0.00  0.00    +0.000 A 
ATOM      4  C   UNL     1      45.633   7.378  12.526  0.00  0.00    +0.000 A 
ATOM      5  C   UNL     1      46.722   6.689  11.979  0.00  0.00    +0.000 A 
ATOM      6  C   UNL     1      47.931   7.341  11.738  0.00  0.00    +0.000 A 
ENDROOT
BRANCH   1   7
ATOM      7  C   UNL     1      49.357   9.426  11.709  0.00  0.00    +0.000 C 
BRANCH   7   8
ATOM      8  N   UNL     1      49.107  10.730  11.107  0.00  0.00    +0.000 NA
ATOM      9  H   UNL     1      49.629  11.436  11.622  0.00  0.00    +0.000 HD
ATOM     10  H   UNL     1      48.121  10.959  11.224  0.00  0.00    +0.000 HD
ENDBRANCH   7   8
ENDBRANCH   1   7
BRANCH   4  11
ATOM     11  O   UNL     1      44.501   6.626  12.674  0.00  0.00    +0.000 OA
BRANCH  11  12
ATOM     12  C   UNL     1      44.651   5.302  13.195  0.00  0.00    +0.000 C 
BRANCH  12  13
ATOM     13  C   UNL     1      43.525   4.423  12.619  0.00  0.00    +0.000 C 
ATOM     14  C   UNL     1      44.043   3.101  12.022  0.00  0.00    +0.000 C 
ATOM     15  C   UNL     1      44.704   3.291  10.658  0.00  0.00    +0.000 C 
ATOM     16  C   UNL     1      43.864   4.154   9.720  0.00  0.00    +0.000 C 
ATOM     17  N   UNL     1      43.469   5.420  10.342  0.00  0.00    +0.000 NA
ATOM     18  C   UNL     1      42.705   5.183  11.568  0.00  0.00    +0.000 C 
ATOM     19  H   UNL     1      42.891   5.945   9.685  0.00  0.00    +0.000 HD
ENDBRANCH  12  13
ENDBRANCH  11  12
ENDBRANCH   4  11
TORSDOF 5
ENDMDL
MODEL 6
REMARK VINA RESULT:    -5.178      3.342      4.867
REMARK INTER + INTRA:          -7.156
REMARK INTER:                  -6.434
REMARK INTRA:                  -0.722
REMARK UNBOUND:                -0.616
REMARK  Name = 
REMARK  5 active torsions:
REMARK  status: ('A' for Active; 'I' for Inactive)
REMARK    1  A    between atoms: N_1  and  C_2
REMARK    2  A    between atoms: C_2  and  C_3
REMARK    3  A    between atoms: C_6  and  O_7
REMARK    4  A    between atoms: O_7  and  C_8
REMARK    5  A    between atoms: C_8  and  C_9
REMARK                            x       y       z     vdW  Elec       q    Type
REMARK                         _______ _______ _______ _____ _____    ______ ____
ROOT
ATOM      1  C   UNL     1      44.954   3.720  10.043  0.00  0.00    +0.000 A 
ATOM      2  C   UNL     1      44.834   3.245  11.357  0.00  0.00    +0.000 A 
ATOM      3  C   UNL     1      45.172   4.057  12.449  0.00  0.00    +0.000 A 
ATOM      4  C   UNL     1      45.639   5.352  12.239  0.00  0.00    +0.000 A 
ATOM      5  C   UNL     1      45.728   5.840  10.931  0.00  0.00    +0.000 A 
ATOM      6  C   UNL     1      45.392   5.034   9.843  0.00  0.00    +0.000 A 
ENDROOT
BRANCH   1   7
ATOM      7  C   UNL     1      44.668   2.819   8.867  0.00  0.00    +0.000 C 
BRANCH   7   8
ATOM      8  N   UNL     1      45.214   1.480   9.053  0.00  0.00    +0.000 NA
ATOM      9  H   UNL     1      44.619   0.812   8.568  0.00  0.00    +0.000 HD
ATOM     10  H   UNL     1      45.164   1.243  10.043  0.00  0.00    +0.000 HD
ENDBRANCH   7   8
ENDBRANCH   1   7
BRANCH   4  11
ATOM     11  O   UNL     1      46.035   6.236  13.204  0.00  0.00    +0.000 OA
BRANCH  11  12
ATOM     12  C   UNL     1      46.151   7.613  12.831  0.00  0.00    +0.000 C 
BRANCH  12  13
ATOM     13  C   UNL     1      47.356   8.218  13.575  0.00  0.00    +0.000 C 
ATOM     14  C   UNL     1      48.117   9.261  12.735  0.00  0.00    +0.000 C 
ATOM     15  C   UNL     1      48.996   8.621  11.661  0.00  0.00    +0.000 C 
ATOM     16  C   UNL     1      49.840   7.472  12.209  0.00  0.00    +0.000 C 
ATOM     17  N   UNL     1      49.029   6.494  12.938  0.00  0.00    +0.000 NA
ATOM     18  C   UNL     1      48.323   7.127  14.052  0.00  0.00    +0.000 C 
ATOM     19  H   UNL     1      49.643   5.764  13.302  0.00  0.00    +0.000 HD
ENDBRANCH  12  13
ENDBRANCH  11  12
ENDBRANCH   4  11
TORSDOF 5
ENDMDL
MODEL 7
REMARK VINA RESULT:    -5.099      4.394      6.546
REMARK INTER + INTRA:          -7.057
REMARK INTER:                  -6.491
REMARK INTRA:                  -0.566
REMARK UNBOUND:                -0.616
REMARK  Name = 
REMARK  5 active torsions:
REMARK  status: ('A' for Active; 'I' for Inactive)
REMARK    1  A    between atoms: N_1  and  C_2
REMARK    2  A    between atoms: C_2  and  C_3
REMARK    3  A    between atoms: C_6  and  O_7
REMARK    4  A    between atoms: O_7  and  C_8
REMARK    5  A    between atoms: C_8  and  C_9
REMARK                            x       y       z     vdW  Elec       q    Type
REMARK                         _______ _______ _______ _____ _____    ______ ____
ROOT
ATOM      1  C   UNL     1      45.485   5.733  12.008  0.00  0.00    +0.000 A 
ATOM      2  C   UNL     1      46.403   6.556  12.677  0.00  0.00    +0.000 A 
ATOM      3  C   UNL     1      47.218   6.044  13.697  0.00  0.00    +0.000 A 
ATOM      4  C   UNL     1      47.120   4.704  14.063  0.00  0.00    +0.000 A 
ATOM      5  C   UNL     1      46.229   3.873  13.375  0.00  0.00    +0.000 A 
ATOM      6  C   UNL     1      45.418   4.381  12.360  0.00  0.00    +0.000 A 
ENDROOT
BRANCH   1   7
ATOM      7  C   UNL     1      44.552   6.303  10.968  0.00  0.00    +0.000 C 
BRANCH   7   8
ATOM      8  N   UNL     1      43.493   5.370  10.606  0.00  0.00    +0.000 NA
ATOM      9  H   UNL     1      43.861   4.422  10.645  0.00  0.00    +0.000 HD
ATOM     10  H   UNL     1      43.231   5.536   9.635  0.00  0.00    +0.000 HD
ENDBRANCH   7   8
ENDBRANCH   1   7
BRANCH   4  11
ATOM     11  O   UNL     1      47.824   4.083  15.057  0.00  0.00    +0.000 OA
BRANCH  11  12
ATOM     12  C   UNL     1      48.084   4.831  16.249  0.00  0.00    +0.000 C 
BRANCH  12  13
ATOM     13  C   UNL     1      48.188   3.846  17.428  0.00  0.00    +0.000 C 
ATOM     14  C   UNL     1      49.458   4.055  18.274  0.00  0.00    +0.000 C 
ATOM     15  C   UNL     1      50.712   3.505  17.596  0.00  0.00    +0.000 C 
ATOM     16  C   UNL     1      50.506   2.093  17.053  0.00  0.00    +0.000 C 
ATOM     17  N   UNL     1      49.314   1.997  16.207  0.00  0.00    +0.000 NA
ATOM     18  C   UNL     1      48.115   2.391  16.948  0.00  0.00    +0.000 C 
ATOM     19  H   UNL     1      49.210   1.032  15.892  0.00  0.00    +0.000 HD
ENDBRANCH  12  13
ENDBRANCH  11  12
ENDBRANCH   4  11
TORSDOF 5
ENDMDL
MODEL 8
REMARK VINA RESULT:    -5.053      1.779      5.937
REMARK INTER + INTRA:          -6.998
REMARK INTER:                  -6.626
REMARK INTRA:                  -0.373
REMARK UNBOUND:                -0.616
REMARK  Name = 
REMARK  5 active torsions:
REMARK  status: ('A' for Active; 'I' for Inactive)
REMARK    1  A    between atoms: N_1  and  C_2
REMARK    2  A    between atoms: C_2  and  C_3
REMARK    3  A    between atoms: C_6  and  O_7
REMARK    4  A    between atoms: O_7  and  C_8
REMARK    5  A    between atoms: C_8  and  C_9
REMARK                            x       y       z     vdW  Elec       q    Type
REMARK                         _______ _______ _______ _____ _____    ______ ____
ROOT
ATOM      1  C   UNL     1      44.842   5.410  12.005  0.00  0.00    +0.000 A 
ATOM      2  C   UNL     1      45.217   4.141  12.472  0.00  0.00    +0.000 A 
ATOM      3  C   UNL     1      45.099   3.009  11.653  0.00  0.00    +0.000 A 
ATOM      4  C   UNL     1      44.599   3.133  10.359  0.00  0.00    +0.000 A 
ATOM      5  C   UNL     1      44.256   4.401   9.879  0.00  0.00    +0.000 A 
ATOM      6  C   UNL     1      44.374   5.528  10.692  0.00  0.00    +0.000 A 
ENDROOT
BRANCH   1   7
ATOM      7  C   UNL     1      44.893   6.613  12.914  0.00  0.00    +0.000 C 
BRANCH   7   8
ATOM      8  N   UNL     1      44.742   7.864  12.182  0.00  0.00    +0.000 NA
ATOM      9  H   UNL     1      44.025   8.426  12.635  0.00  0.00    +0.000 HD
ATOM     10  H   UNL     1      44.396   7.655  11.247  0.00  0.00    +0.000 HD
ENDBRANCH   7   8
ENDBRANCH   1   7
BRANCH   4  11
ATOM     11  O   UNL     1      44.399   2.114   9.468  0.00  0.00    +0.000 OA
BRANCH  11  12
ATOM     12  C   UNL     1      44.839   2.319   8.122  0.00  0.00    +0.000 C 
BRANCH  12  13
ATOM     13  C   UNL     1      46.361   2.551   8.138  0.00  0.00    +0.000 C 
ATOM     14  C   UNL     1      46.794   3.754   7.280  0.00  0.00    +0.000 C 
ATOM     15  C   UNL     1      46.774   3.446   5.784  0.00  0.00    +0.000 C 
ATOM     16  C   UNL     1      47.458   2.120   5.454  0.00  0.00    +0.000 C 
ATOM     17  N   UNL     1      46.942   1.018   6.269  0.00  0.00    +0.000 NA
ATOM     18  C   UNL     1      47.122   1.295   7.695  0.00  0.00    +0.000 C 
ATOM     19  H   UNL     1      47.448   0.165   6.028  0.00  0.00    +0.000 HD
ENDBRANCH  12  13
ENDBRANCH  11  12
ENDBRANCH   4  11
TORSDOF 5
ENDMDL
MODEL 9
REMARK VINA RESULT:    -4.898      3.830      5.557
REMARK INTER + INTRA:          -6.803
REMARK INTER:                  -6.477
REMARK INTRA:                  -0.326
REMARK UNBOUND:                -0.616
REMARK  Name = 
REMARK  5 active torsions:
REMARK  status: ('A' for Active; 'I' for Inactive)
REMARK    1  A    between atoms: N_1  and  C_2
REMARK    2  A    between atoms: C_2  and  C_3
REMARK    3  A    between atoms: C_6  and  O_7
REMARK    4  A    between atoms: O_7  and  C_8
REMARK    5  A    between atoms: C_8  and  C_9
REMARK                            x       y       z     vdW  Elec       q    Type
REMARK                         _______ _______ _______ _____ _____    ______ ____
ROOT
ATOM      1  C   UNL     1      45.182   4.624  10.743  0.00  0.00    +0.000 A 
ATOM      2  C   UNL     1      45.007   3.424  11.448  0.00  0.00    +0.000 A 
ATOM      3  C   UNL     1      45.384   3.319  12.795  0.00  0.00    +0.000 A 
ATOM      4  C   UNL     1      45.944   4.413  13.451  0.00  0.00    +0.000 A 
ATOM      5  C   UNL     1      46.088   5.621  12.760  0.00  0.00    +0.000 A 
ATOM      6  C   UNL     1      45.714   5.726  11.420  0.00  0.00    +0.000 A 
ENDROOT
BRANCH   1   7
ATOM      7  C   UNL     1      44.853   4.710   9.274  0.00  0.00    +0.000 C 
BRANCH   7   8
ATOM      8  N   UNL     1      45.982   5.184   8.482  0.00  0.00    +0.000 NA
ATOM      9  H   UNL     1      46.251   6.108   8.813  0.00  0.00    +0.000 HD
ATOM     10  H   UNL     1      45.676   5.302   7.517  0.00  0.00    +0.000 HD
ENDBRANCH   7   8
ENDBRANCH   1   7
BRANCH   4  11
ATOM     11  O   UNL     1      46.385   4.442  14.745  0.00  0.00    +0.000 OA
BRANCH  11  12
ATOM     12  C   UNL     1      47.556   3.682  15.061  0.00  0.00    +0.000 C 
BRANCH  12  13
ATOM     13  C   UNL     1      47.519   3.335  16.560  0.00  0.00    +0.000 C 
ATOM     14  C   UNL     1      47.253   4.561  17.454  0.00  0.00    +0.000 C 
ATOM     15  C   UNL     1      48.483   5.454  17.606  0.00  0.00    +0.000 C 
ATOM     16  C   UNL     1      49.742   4.658  17.938  0.00  0.00    +0.000 C 
ATOM     17  N   UNL     1      49.955   3.551  17.002  0.00  0.00    +0.000 NA
ATOM     18  C   UNL     1      48.812   2.638  17.004  0.00  0.00    +0.000 C 
ATOM     19  H   UNL     1      50.793   3.039  17.283  0.00  0.00    +0.000 HD
ENDBRANCH  12  13
ENDBRANCH  11  12
ENDBRANCH   4  11
TORSDOF 5
ENDMDL
