MODEL 1
REMARK VINA RESULT:    -8.163      0.000      0.000
REMARK INTER + INTRA:         -11.753
REMARK INTER:                 -11.027
REMARK INTRA:                  -0.726
REMARK UNBOUND:                -0.726
REMARK  Name = 
REMARK  7 active torsions:
REMARK  status: ('A' for Active; 'I' for Inactive)
REMARK    1  A    between atoms: C_1  and  N_2
REMARK    2  A    between atoms: N_2  and  C_3
REMARK    3  A    between atoms: C_3  and  C_4
REMARK    4  A    between atoms: C_7  and  C_8
REMARK    5  A    between atoms: C_8  and  N_9
REMARK    6  A    between atoms: C_10  and  C_12
REMARK    7  A    between atoms: C_19  and  C_21
REMARK                            x       y       z     vdW  Elec       q    Type
REMARK                         _______ _______ _______ _____ _____    ______ ____
ROOT
ATOM      1  C   UNL     1      47.075   6.269  12.187  0.00  0.00    +0.000 C 
ENDROOT
BRANCH   1   2
ATOM      2  C   UNL     1      47.302   5.608  13.521  0.00  0.00    +0.000 A 
ATOM      3  C   UNL     1      48.030   6.268  14.523  0.00  0.00    +0.000 A 
ATOM      4  C   UNL     1      48.189   5.687  15.780  0.00  0.00    +0.000 A 
ATOM      5  C   UNL     1      47.634   4.432  16.054  0.00  0.00    +0.000 A 
ATOM      6  C   UNL     1      46.913   3.771  15.050  0.00  0.00    +0.000 A 
ATOM      7  C   UNL     1      46.756   4.349  13.790  0.00  0.00    +0.000 A 
BRANCH   5   8
ATOM      8  C   UNL     1      47.772   3.818  17.419  0.00  0.00    +0.000 C 
BRANCH   8   9
ATOM      9  N   UNL     1      49.133   3.445  17.694  0.00  0.00    +0.000 N 
ATOM     10  C   UNL     1      49.727   2.387  17.031  0.00  0.00    +0.000 C 
ATOM     11  O   UNL     1      49.103   1.726  16.200  0.00  0.00    +0.000 OA
ATOM     12  H   UNL     1      49.694   3.955  18.367  0.00  0.00    +0.000 HD
BRANCH  10  13
ATOM     13  C   UNL     1      51.123   2.163  17.404  0.00  0.00    +0.000 A 
ATOM     14  N   UNL     1      51.714   0.982  17.335  0.00  0.00    +0.000 NA
ATOM     15  C   UNL     1      53.022   1.107  17.764  0.00  0.00    +0.000 A 
ATOM     16  C   UNL     1      53.410   2.372  18.150  0.00  0.00    +0.000 A 
ATOM     17  S   UNL     1      52.098   3.459  17.968  0.00  0.00    +0.000 S 
ENDBRANCH  10  13
ENDBRANCH   8   9
ENDBRANCH   5   8
ENDBRANCH   1   2
BRANCH   1  19
ATOM     18  C   UNL     1      46.063   8.596  12.153  0.00  0.00    +0.000 C 
ATOM     19  N   UNL     1      45.916   7.150  12.029  0.00  0.00    +0.000 N 
ATOM     20  C   UNL     1      44.668   6.704  11.554  0.00  0.00    +0.000 C 
ATOM     21  O   UNL     1      43.768   7.501  11.293  0.00  0.00    +0.000 OA
BRANCH  20  22
ATOM     22  C   UNL     1      44.417   5.262  11.407  0.00  0.00    +0.000 A 
ATOM     23  C   UNL     1      43.641   4.505  12.271  0.00  0.00    +0.000 A 
ATOM     24  S   UNL     1      43.481   2.873  11.799  0.00  0.00    +0.000 S 
ATOM     25  C   UNL     1      44.311   3.160  10.343  0.00  0.00    +0.000 A 
ATOM     26  N   UNL     1      44.428   2.185   9.403  0.00  0.00    +0.000 NA
ATOM     27  C   UNL     1      45.015   2.567   8.318  0.00  0.00    +0.000 A 
ATOM     28  N   UNL     1      45.532   3.820   8.107  0.00  0.00    +0.000 N 
ATOM     29  C   UNL     1      45.560   4.791   9.084  0.00  0.00    +0.000 A 
ATOM     30  O   UNL     1      46.241   5.803   8.949  0.00  0.00    +0.000 OA
ATOM     31  C   UNL     1      44.796   4.452  10.272  0.00  0.00    +0.000 A 
ATOM     32  H   UNL     1      46.041   4.032   7.262  0.00  0.00    +0.000 HD
ENDBRANCH  20  22
ENDBRANCH   1  19
TORSDOF 6
ENDMDL
MODEL 2
REMARK VINA RESULT:    -7.446      2.598      8.404
REMARK INTER + INTRA:         -10.784
REMARK INTER:                  -9.687
REMARK INTRA:                  -1.097
REMARK UNBOUND:                -0.726
REMARK  Name = 
REMARK  7 active torsions:
REMARK  status: ('A' for Active; 'I' for Inactive)
REMARK    1  A    between atoms: C_1  and  N_2
REMARK    2  A    between atoms: N_2  and  C_3
REMARK    3  A    between atoms: C_3  and  C_4
REMARK    4  A    between atoms: C_7  and  C_8
REMARK    5  A    between atoms: C_8  and  N_9
REMARK    6  A    between atoms: C_10  and  C_12
REMARK    7  A    between atoms: C_19  and  C_21
REMARK                            x       y       z     vdW  Elec       q    Type
REMARK                         _______ _______ _______ _____ _____    ______ ____
ROOT
ATOM      1  C   UNL     1      49.236   6.978  15.388  0.00  0.00    +0.000 C 
ENDROOT
BRANCH   1   2
ATOM      2  C   UNL     1      48.135   6.886  14.364  0.00  0.00    +0.000 A 
ATOM      3  C   UNL     1      47.737   8.027  13.649  0.00  0.00    +0.000 A 
ATOM      4  C   UNL     1      46.762   7.934  12.658  0.00  0.00    +0.000 A 
ATOM      5  C   UNL     1      46.162   6.704  12.370  0.00  0.00    +0.000 A 
ATOM      6  C   UNL     1      46.555   5.567  13.088  0.00  0.00    +0.000 A 
ATOM      7  C   UNL     1      47.528   5.659  14.085  0.00  0.00    +0.000 A 
BRANCH   5   8
ATOM      8  C   UNL     1      45.137   6.593  11.275  0.00  0.00    +0.000 C 
BRANCH   8   9
ATOM      9  N   UNL     1      45.599   5.751  10.204  0.00  0.00    +0.000 N 
ATOM     10  C   UNL     1      44.929   4.588   9.874  0.00  0.00    +0.000 C 
ATOM     11  O   UNL     1      43.928   4.232  10.499  0.00  0.00    +0.000 OA
ATOM     12  H   UNL     1      46.417   5.997   9.657  0.00  0.00    +0.000 HD
BRANCH  10  13
ATOM     13  C   UNL     1      45.512   3.870   8.743  0.00  0.00    +0.000 A 
ATOM     14  N   UNL     1      46.077   4.474   7.711  0.00  0.00    +0.000 NA
ATOM     15  C   UNL     1      46.519   3.519   6.815  0.00  0.00    +0.000 A 
ATOM     16  C   UNL     1      46.287   2.208   7.172  0.00  0.00    +0.000 A 
ATOM     17  S   UNL     1      45.494   2.154   8.689  0.00  0.00    +0.000 S 
ENDBRANCH  10  13
ENDBRANCH   8   9
ENDBRANCH   5   8
ENDBRANCH   1   2
BRANCH   1  19
ATOM     18  C   UNL     1      48.923   9.032  16.847  0.00  0.00    +0.000 C 
ATOM     19  N   UNL     1      48.936   7.581  16.688  0.00  0.00    +0.000 N 
ATOM     20  C   UNL     1      48.448   6.846  17.785  0.00  0.00    +0.000 C 
ATOM     21  O   UNL     1      48.065   7.413  18.808  0.00  0.00    +0.000 OA
BRANCH  20  22
ATOM     22  C   UNL     1      48.431   5.376  17.728  0.00  0.00    +0.000 A 
ATOM     23  C   UNL     1      47.298   4.609  17.507  0.00  0.00    +0.000 A 
ATOM     24  S   UNL     1      47.608   2.932  17.428  0.00  0.00    +0.000 S 
ATOM     25  C   UNL     1      49.286   3.187  17.528  0.00  0.00    +0.000 A 
ATOM     26  N   UNL     1      50.158   2.151  17.401  0.00  0.00    +0.000 NA
ATOM     27  C   UNL     1      51.400   2.503  17.421  0.00  0.00    +0.000 A 
ATOM     28  N   UNL     1      51.848   3.787  17.600  0.00  0.00    +0.000 N 
ATOM     29  C   UNL     1      51.004   4.842  17.872  0.00  0.00    +0.000 A 
ATOM     30  O   UNL     1      51.444   5.917  18.267  0.00  0.00    +0.000 OA
ATOM     31  C   UNL     1      49.595   4.519  17.729  0.00  0.00    +0.000 A 
ATOM     32  H   UNL     1      52.835   3.983  17.674  0.00  0.00    +0.000 HD
ENDBRANCH  20  22
ENDBRANCH   1  19
TORSDOF 6
ENDMDL
MODEL 3
REMARK VINA RESULT:    -7.288      1.707      2.442
REMARK INTER + INTRA:         -10.571
REMARK INTER:                  -9.562
REMARK INTRA:                  -1.009
REMARK UNBOUND:                -0.726
REMARK  Name = 
REMARK  7 active torsions:
REMARK  status: ('A' for Active; 'I' for Inactive)
REMARK    1  A    between atoms: C_1  and  N_2
REMARK    2  A    between atoms: N_2  and  C_3
REMARK    3  A    between atoms: C_3  and  C_4
REMARK    4  A    between atoms: C_7  and  C_8
REMARK    5  A    between atoms: C_8  and  N_9
REMARK    6  A    between atoms: C_10  and  C_12
REMARK    7  A    between atoms: C_19  and  C_21
REMARK                            x       y       z     vdW  Elec       q    Type
REMARK                         _______ _______ _______ _____ _____    ______ ____
ROOT
ATOM      1  C   UNL     1      47.300   6.236  12.716  0.00  0.00    +0.000 C 
ENDROOT
BRANCH   1   2
ATOM      2  C   UNL     1      47.589   5.737  14.108  0.00  0.00    +0.000 A 
ATOM      3  C   UNL     1      47.030   4.530  14.557  0.00  0.00    +0.000 A 
ATOM      4  C   UNL     1      47.344   4.034  15.820  0.00  0.00    +0.000 A 
ATOM      5  C   UNL     1      48.213   4.738  16.660  0.00  0.00    +0.000 A 
ATOM      6  C   UNL     1      48.766   5.945  16.213  0.00  0.00    +0.000 A 
ATOM      7  C   UNL     1      48.449   6.447  14.950  0.00  0.00    +0.000 A 
BRANCH   5   8
ATOM      8  C   UNL     1      48.584   4.187  18.009  0.00  0.00    +0.000 C 
BRANCH   8   9
ATOM      9  N   UNL     1      49.683   3.264  17.917  0.00  0.00    +0.000 N 
ATOM     10  C   UNL     1      50.984   3.685  18.122  0.00  0.00    +0.000 C 
ATOM     11  O   UNL     1      51.239   4.864  18.371  0.00  0.00    +0.000 OA
ATOM     12  H   UNL     1      49.530   2.281  17.716  0.00  0.00    +0.000 HD
BRANCH  10  13
ATOM     13  C   UNL     1      51.974   2.615  18.024  0.00  0.00    +0.000 A 
ATOM     14  N   UNL     1      51.694   1.403  17.574  0.00  0.00    +0.000 NA
ATOM     15  C   UNL     1      52.839   0.629  17.617  0.00  0.00    +0.000 A 
ATOM     16  C   UNL     1      53.970   1.256  18.095  0.00  0.00    +0.000 A 
ATOM     17  S   UNL     1      53.602   2.879  18.502  0.00  0.00    +0.000 S 
ENDBRANCH  10  13
ENDBRANCH   8   9
ENDBRANCH   5   8
ENDBRANCH   1   2
BRANCH   1  19
ATOM     18  C   UNL     1      46.467   8.576  13.238  0.00  0.00    +0.000 C 
ATOM     19  N   UNL     1      46.311   7.302  12.545  0.00  0.00    +0.000 N 
ATOM     20  C   UNL     1      45.292   7.259  11.574  0.00  0.00    +0.000 C 
ATOM     21  O   UNL     1      44.578   8.238  11.362  0.00  0.00    +0.000 OA
BRANCH  20  22
ATOM     22  C   UNL     1      45.047   6.014  10.829  0.00  0.00    +0.000 A 
ATOM     23  C   UNL     1      45.573   5.727   9.580  0.00  0.00    +0.000 A 
ATOM     24  S   UNL     1      45.164   4.174   9.002  0.00  0.00    +0.000 S 
ATOM     25  C   UNL     1      44.402   3.774  10.468  0.00  0.00    +0.000 A 
ATOM     26  N   UNL     1      43.923   2.521  10.686  0.00  0.00    +0.000 NA
ATOM     27  C   UNL     1      43.440   2.340  11.870  0.00  0.00    +0.000 A 
ATOM     28  N   UNL     1      43.354   3.309  12.837  0.00  0.00    +0.000 N 
ATOM     29  C   UNL     1      43.696   4.625  12.610  0.00  0.00    +0.000 A 
ATOM     30  O   UNL     1      43.381   5.505  13.404  0.00  0.00    +0.000 OA
ATOM     31  C   UNL     1      44.366   4.847  11.340  0.00  0.00    +0.000 A 
ATOM     32  H   UNL     1      42.901   3.119  13.718  0.00  0.00    +0.000 HD
ENDBRANCH  20  22
ENDBRANCH   1  19
TORSDOF 6
ENDMDL
MODEL 4
REMARK VINA RESULT:    -7.012      2.734      3.774
REMARK INTER + INTRA:         -10.198
REMARK INTER:                  -9.137
REMARK INTRA:                  -1.061
REMARK UNBOUND:                -0.726
REMARK  Name = 
REMARK  7 active torsions:
REMARK  status: ('A' for Active; 'I' for Inactive)
REMARK    1  A    between atoms: C_1  and  N_2
REMARK    2  A    between atoms: N_2  and  C_3
REMARK    3  A    between atoms: C_3  and  C_4
REMARK    4  A    between atoms: C_7  and  C_8
REMARK    5  A    between atoms: C_8  and  N_9
REMARK    6  A    between atoms: C_10  and  C_12
REMARK    7  A    between atoms: C_19  and  C_21
REMARK                            x       y       z     vdW  Elec       q    Type
REMARK                         _______ _______ _______ _____ _____    ______ ____
ROOT
ATOM      1  C   UNL     1      46.618   6.304  11.856  0.00  0.00    +0.000 C 
ENDROOT
BRANCH   1   2
ATOM      2  C   UNL     1      47.092   5.986  13.251  0.00  0.00    +0.000 A 
ATOM      3  C   UNL     1      46.651   4.822  13.900  0.00  0.00    +0.000 A 
ATOM      4  C   UNL     1      47.135   4.493  15.164  0.00  0.00    +0.000 A 
ATOM      5  C   UNL     1      48.058   5.325  15.807  0.00  0.00    +0.000 A 
ATOM      6  C   UNL     1      48.492   6.490  15.160  0.00  0.00    +0.000 A 
ATOM      7  C   UNL     1      48.005   6.824  13.896  0.00  0.00    +0.000 A 
BRANCH   5   8
ATOM      8  C   UNL     1      48.610   4.954  17.155  0.00  0.00    +0.000 C 
BRANCH   8   9
ATOM      9  N   UNL     1      48.838   6.118  17.969  0.00  0.00    +0.000 N 
ATOM     10  C   UNL     1      47.911   6.516  18.915  0.00  0.00    +0.000 C 
ATOM     11  O   UNL     1      46.859   5.896  19.075  0.00  0.00    +0.000 OA
ATOM     12  H   UNL     1      49.687   6.665  17.880  0.00  0.00    +0.000 HD
BRANCH  10  13
ATOM     13  C   UNL     1      48.314   7.697  19.677  0.00  0.00    +0.000 A 
ATOM     14  N   UNL     1      47.566   8.243  20.621  0.00  0.00    +0.000 NA
ATOM     15  C   UNL     1      48.224   9.343  21.139  0.00  0.00    +0.000 A 
ATOM     16  C   UNL     1      49.458   9.618  20.588  0.00  0.00    +0.000 A 
ATOM     17  S   UNL     1      49.823   8.459  19.380  0.00  0.00    +0.000 S 
ENDBRANCH  10  13
ENDBRANCH   8   9
ENDBRANCH   5   8
ENDBRANCH   1   2
BRANCH   1  19
ATOM     18  C   UNL     1      45.327   8.486  11.738  0.00  0.00    +0.000 C 
ATOM     19  N   UNL     1      45.356   7.027  11.692  0.00  0.00    +0.000 N 
ATOM     20  C   UNL     1      44.160   6.409  11.281  0.00  0.00    +0.000 C 
ATOM     21  O   UNL     1      43.163   7.076  11.009  0.00  0.00    +0.000 OA
BRANCH  20  22
ATOM     22  C   UNL     1      44.085   4.941  11.214  0.00  0.00    +0.000 A 
ATOM     23  C   UNL     1      43.379   4.147  12.104  0.00  0.00    +0.000 A 
ATOM     24  S   UNL     1      43.425   2.483  11.726  0.00  0.00    +0.000 S 
ATOM     25  C   UNL     1      44.257   2.784  10.275  0.00  0.00    +0.000 A 
ATOM     26  N   UNL     1      44.515   1.779   9.397  0.00  0.00    +0.000 NA
ATOM     27  C   UNL     1      45.085   2.166   8.304  0.00  0.00    +0.000 A 
ATOM     28  N   UNL     1      45.457   3.457   8.031  0.00  0.00    +0.000 N 
ATOM     29  C   UNL     1      45.342   4.479   8.949  0.00  0.00    +0.000 A 
ATOM     30  O   UNL     1      45.903   5.556   8.769  0.00  0.00    +0.000 OA
ATOM     31  C   UNL     1      44.589   4.119  10.138  0.00  0.00    +0.000 A 
ATOM     32  H   UNL     1      45.961   3.681   7.186  0.00  0.00    +0.000 HD
ENDBRANCH  20  22
ENDBRANCH   1  19
TORSDOF 6
ENDMDL
MODEL 5
REMARK VINA RESULT:    -6.774      4.705      8.131
REMARK INTER + INTRA:          -9.877
REMARK INTER:                  -9.103
REMARK INTRA:                  -0.773
REMARK UNBOUND:                -0.726
REMARK  Name = 
REMARK  7 active torsions:
REMARK  status: ('A' for Active; 'I' for Inactive)
REMARK    1  A    between atoms: C_1  and  N_2
REMARK    2  A    between atoms: N_2  and  C_3
REMARK    3  A    between atoms: C_3  and  C_4
REMARK    4  A    between atoms: C_7  and  C_8
REMARK    5  A    between atoms: C_8  and  N_9
REMARK    6  A    between atoms: C_10  and  C_12
REMARK    7  A    between atoms: C_19  and  C_21
REMARK                            x       y       z     vdW  Elec       q    Type
REMARK                         _______ _______ _______ _____ _____    ______ ____
ROOT
ATOM      1  C   UNL     1      46.665   8.299  13.258  0.00  0.00    +0.000 C 
ENDROOT
BRANCH   1   2
ATOM      2  C   UNL     1      45.969   7.038  12.819  0.00  0.00    +0.000 A 
ATOM      3  C   UNL     1      44.882   7.101  11.932  0.00  0.00    +0.000 A 
ATOM      4  C   UNL     1      44.275   5.934  11.475  0.00  0.00    +0.000 A 
ATOM      5  C   UNL     1      44.735   4.683  11.902  0.00  0.00    +0.000 A 
ATOM      6  C   UNL     1      45.816   4.621  12.792  0.00  0.00    +0.000 A 
ATOM      7  C   UNL     1      46.422   5.790  13.255  0.00  0.00    +0.000 A 
BRANCH   5   8
ATOM      8  C   UNL     1      44.106   3.420  11.382  0.00  0.00    +0.000 C 
BRANCH   8   9
ATOM      9  N   UNL     1      44.960   2.760  10.432  0.00  0.00    +0.000 N 
ATOM     10  C   UNL     1      44.943   3.112   9.095  0.00  0.00    +0.000 C 
ATOM     11  O   UNL     1      44.185   3.989   8.679  0.00  0.00    +0.000 OA
ATOM     12  H   UNL     1      45.605   2.032  10.721  0.00  0.00    +0.000 HD
BRANCH  10  13
ATOM     13  C   UNL     1      45.895   2.366   8.275  0.00  0.00    +0.000 A 
ATOM     14  N   UNL     1      46.060   1.057   8.361  0.00  0.00    +0.000 NA
ATOM     15  C   UNL     1      47.034   0.664   7.462  0.00  0.00    +0.000 A 
ATOM     16  C   UNL     1      47.595   1.672   6.706  0.00  0.00    +0.000 A 
ATOM     17  S   UNL     1      46.879   3.172   7.121  0.00  0.00    +0.000 S 
ENDBRANCH  10  13
ENDBRANCH   8   9
ENDBRANCH   5   8
ENDBRANCH   1   2
BRANCH   1  19
ATOM     18  C   UNL     1      45.465  10.218  12.108  0.00  0.00    +0.000 C 
ATOM     19  N   UNL     1      46.680   9.445  12.347  0.00  0.00    +0.000 N 
ATOM     20  C   UNL     1      47.863   9.997  11.821  0.00  0.00    +0.000 C 
ATOM     21  O   UNL     1      47.843  11.049  11.184  0.00  0.00    +0.000 OA
BRANCH  20  22
ATOM     22  C   UNL     1      49.140   9.287  11.997  0.00  0.00    +0.000 A 
ATOM     23  C   UNL     1      49.693   8.420  11.069  0.00  0.00    +0.000 A 
ATOM     24  S   UNL     1      51.216   7.801  11.529  0.00  0.00    +0.000 S 
ATOM     25  C   UNL     1      51.257   8.793  12.910  0.00  0.00    +0.000 A 
ATOM     26  N   UNL     1      52.361   8.839  13.702  0.00  0.00    +0.000 NA
ATOM     27  C   UNL     1      52.279   9.691  14.670  0.00  0.00    +0.000 A 
ATOM     28  N   UNL     1      51.181  10.466  14.940  0.00  0.00    +0.000 N 
ATOM     29  C   UNL     1      49.994  10.348  14.249  0.00  0.00    +0.000 A 
ATOM     30  O   UNL     1      48.965  10.871  14.666  0.00  0.00    +0.000 OA
ATOM     31  C   UNL     1      50.081   9.500  13.072  0.00  0.00    +0.000 A 
ATOM     32  H   UNL     1      51.157  11.062  15.754  0.00  0.00    +0.000 HD
ENDBRANCH  20  22
ENDBRANCH   1  19
TORSDOF 6
ENDMDL
MODEL 6
REMARK VINA RESULT:    -6.297      2.149      2.569
REMARK INTER + INTRA:          -9.232
REMARK INTER:                  -8.351
REMARK INTRA:                  -0.881
REMARK UNBOUND:                -0.726
REMARK  Name = 
REMARK  7 active torsions:
REMARK  status: ('A' for Active; 'I' for Inactive)
REMARK    1  A    between atoms: C_1  and  N_2
REMARK    2  A    between atoms: N_2  and  C_3
REMARK    3  A    between atoms: C_3  and  C_4
REMARK    4  A    between atoms: C_7  and  C_8
REMARK    5  A    between atoms: C_8  and  N_9
REMARK    6  A    between atoms: C_10  and  C_12
REMARK    7  A    between atoms: C_19  and  C_21
REMARK                            x       y       z     vdW  Elec       q    Type
REMARK                         _______ _______ _______ _____ _____    ______ ____
ROOT
ATOM      1  C   UNL     1      47.015   6.232  12.141  0.00  0.00    +0.000 C 
ENDROOT
BRANCH   1   2
ATOM      2  C   UNL     1      48.090   6.601  13.130  0.00  0.00    +0.000 A 
ATOM      3  C   UNL     1      49.227   7.309  12.708  0.00  0.00    +0.000 A 
ATOM      4  C   UNL     1      50.193   7.707  13.630  0.00  0.00    +0.000 A 
ATOM      5  C   UNL     1      50.046   7.397  14.986  0.00  0.00    +0.000 A 
ATOM      6  C   UNL     1      48.914   6.686  15.405  0.00  0.00    +0.000 A 
ATOM      7  C   UNL     1      47.948   6.281  14.483  0.00  0.00    +0.000 A 
BRANCH   5   8
ATOM      8  C   UNL     1      51.068   7.857  15.989  0.00  0.00    +0.000 C 
BRANCH   8   9
ATOM      9  N   UNL     1      52.062   6.846  16.230  0.00  0.00    +0.000 N 
ATOM     10  C   UNL     1      52.008   6.051  17.360  0.00  0.00    +0.000 C 
ATOM     11  O   UNL     1      51.118   6.198  18.198  0.00  0.00    +0.000 OA
ATOM     12  H   UNL     1      52.816   6.682  15.572  0.00  0.00    +0.000 HD
BRANCH  10  13
ATOM     13  C   UNL     1      53.074   5.054  17.432  0.00  0.00    +0.000 A 
ATOM     14  N   UNL     1      52.894   3.830  17.900  0.00  0.00    +0.000 NA
ATOM     15  C   UNL     1      54.092   3.143  17.841  0.00  0.00    +0.000 A 
ATOM     16  C   UNL     1      55.163   3.847  17.332  0.00  0.00    +0.000 A 
ATOM     17  S   UNL     1      54.662   5.427  16.900  0.00  0.00    +0.000 S 
ENDBRANCH  10  13
ENDBRANCH   8   9
ENDBRANCH   5   8
ENDBRANCH   1   2
BRANCH   1  19
ATOM     18  C   UNL     1      46.025   8.568  12.075  0.00  0.00    +0.000 C 
ATOM     19  N   UNL     1      45.861   7.120  11.996  0.00  0.00    +0.000 N 
ATOM     20  C   UNL     1      44.594   6.675  11.573  0.00  0.00    +0.000 C 
ATOM     21  O   UNL     1      43.694   7.473  11.318  0.00  0.00    +0.000 OA
BRANCH  20  22
ATOM     22  C   UNL     1      44.325   5.231  11.472  0.00  0.00    +0.000 A 
ATOM     23  C   UNL     1      43.587   4.502  12.392  0.00  0.00    +0.000 A 
ATOM     24  S   UNL     1      43.391   2.860  11.968  0.00  0.00    +0.000 S 
ATOM     25  C   UNL     1      44.149   3.106  10.466  0.00  0.00    +0.000 A 
ATOM     26  N   UNL     1      44.212   2.108   9.544  0.00  0.00    +0.000 NA
ATOM     27  C   UNL     1      44.747   2.459   8.423  0.00  0.00    +0.000 A 
ATOM     28  N   UNL     1      45.263   3.702   8.157  0.00  0.00    +0.000 N 
ATOM     29  C   UNL     1      45.347   4.696   9.107  0.00  0.00    +0.000 A 
ATOM     30  O   UNL     1      46.027   5.699   8.914  0.00  0.00    +0.000 OA
ATOM     31  C   UNL     1      44.640   4.392  10.340  0.00  0.00    +0.000 A 
ATOM     32  H   UNL     1      45.730   3.890   7.282  0.00  0.00    +0.000 HD
ENDBRANCH  20  22
ENDBRANCH   1  19
TORSDOF 6
ENDMDL
MODEL 7
REMARK VINA RESULT:    -6.271      3.412      4.330
REMARK INTER + INTRA:          -9.197
REMARK INTER:                  -8.453
REMARK INTRA:                  -0.744
REMARK UNBOUND:                -0.726
REMARK  Name = 
REMARK  7 active torsions:
REMARK  status: ('A' for Active; 'I' for Inactive)
REMARK    1  A    between atoms: C_1  and  N_2
REMARK    2  A    between atoms: N_2  and  C_3
REMARK    3  A    between atoms: C_3  and  C_4
REMARK    4  A    between atoms: C_7  and  C_8
REMARK    5  A    between atoms: C_8  and  N_9
REMARK    6  A    between atoms: C_10  and  C_12
REMARK    7  A    between atoms: C_19  and  C_21
REMARK                            x       y       z     vdW  Elec       q    Type
REMARK                         _______ _______ _______ _____ _____    ______ ____
ROOT
ATOM      1  C   UNL     1      47.210   5.898  12.857  0.00  0.00    +0.000 C 
ENDROOT
BRANCH   1   2
ATOM      2  C   UNL     1      47.658   5.639  14.272  0.00  0.00    +0.000 A 
ATOM      3  C   UNL     1      48.634   6.455  14.865  0.00  0.00    +0.000 A 
ATOM      4  C   UNL     1      49.006   6.258  16.193  0.00  0.00    +0.000 A 
ATOM      5  C   UNL     1      48.418   5.238  16.949  0.00  0.00    +0.000 A 
ATOM      6  C   UNL     1      47.447   4.420  16.353  0.00  0.00    +0.000 A 
ATOM      7  C   UNL     1      47.077   4.612  15.021  0.00  0.00    +0.000 A 
BRANCH   5   8
ATOM      8  C   UNL     1      48.789   5.046  18.393  0.00  0.00    +0.000 C 
BRANCH   8   9
ATOM      9  N   UNL     1      49.302   6.260  18.970  0.00  0.00    +0.000 N 
ATOM     10  C   UNL     1      48.489   7.089  19.721  0.00  0.00    +0.000 C 
ATOM     11  O   UNL     1      47.301   6.821  19.901  0.00  0.00    +0.000 OA
ATOM     12  H   UNL     1      50.273   6.529  18.854  0.00  0.00    +0.000 HD
BRANCH  10  13
ATOM     13  C   UNL     1      49.177   8.261  20.260  0.00  0.00    +0.000 A 
ATOM     14  N   UNL     1      50.430   8.237  20.684  0.00  0.00    +0.000 NA
ATOM     15  C   UNL     1      50.776   9.496  21.138  0.00  0.00    +0.000 A 
ATOM     16  C   UNL     1      49.790  10.457  21.055  0.00  0.00    +0.000 A 
ATOM     17  S   UNL     1      48.374   9.773  20.376  0.00  0.00    +0.000 S 
ENDBRANCH  10  13
ENDBRANCH   8   9
ENDBRANCH   5   8
ENDBRANCH   1   2
BRANCH   1  19
ATOM     18  C   UNL     1      46.566   8.314  13.293  0.00  0.00    +0.000 C 
ATOM     19  N   UNL     1      46.348   7.052  12.594  0.00  0.00    +0.000 N 
ATOM     20  C   UNL     1      45.419   7.096  11.537  0.00  0.00    +0.000 C 
ATOM     21  O   UNL     1      44.825   8.136  11.258  0.00  0.00    +0.000 OA
BRANCH  20  22
ATOM     22  C   UNL     1      45.120   5.871  10.778  0.00  0.00    +0.000 A 
ATOM     23  C   UNL     1      45.624   5.581   9.520  0.00  0.00    +0.000 A 
ATOM     24  S   UNL     1      45.150   4.052   8.926  0.00  0.00    +0.000 S 
ATOM     25  C   UNL     1      44.386   3.663  10.395  0.00  0.00    +0.000 A 
ATOM     26  N   UNL     1      43.862   2.425  10.601  0.00  0.00    +0.000 NA
ATOM     27  C   UNL     1      43.382   2.248  11.787  0.00  0.00    +0.000 A 
ATOM     28  N   UNL     1      43.342   3.206  12.767  0.00  0.00    +0.000 N 
ATOM     29  C   UNL     1      43.733   4.511  12.554  0.00  0.00    +0.000 A 
ATOM     30  O   UNL     1      43.458   5.392  13.362  0.00  0.00    +0.000 OA
ATOM     31  C   UNL     1      44.399   4.724  11.280  0.00  0.00    +0.000 A 
ATOM     32  H   UNL     1      42.890   3.022  13.650  0.00  0.00    +0.000 HD
ENDBRANCH  20  22
ENDBRANCH   1  19
TORSDOF 6
ENDMDL
MODEL 8
REMARK VINA RESULT:    -6.239      5.927      8.110
REMARK INTER + INTRA:          -9.153
REMARK INTER:                  -8.734
REMARK INTRA:                  -0.419
REMARK UNBOUND:                -0.726
REMARK  Name = 
REMARK  7 active torsions:
REMARK  status: ('A' for Active; 'I' for Inactive)
REMARK    1  A    between atoms: C_1  and  N_2
REMARK    2  A    between atoms: N_2  and  C_3
REMARK    3  A    between atoms: C_3  and  C_4
REMARK    4  A    between atoms: C_7  and  C_8
REMARK    5  A    between atoms: C_8  and  N_9
REMARK    6  A    between atoms: C_10  and  C_12
REMARK    7  A    between atoms: C_19  and  C_21
REMARK                            x       y       z     vdW  Elec       q    Type
REMARK                         _______ _______ _______ _____ _____    ______ ____
ROOT
ATOM      1  C   UNL     1      51.416   9.420  10.985  0.00  0.00    +0.000 C 
ENDROOT
BRANCH   1   2
ATOM      2  C   UNL     1      50.574   8.541  11.873  0.00  0.00    +0.000 A 
ATOM      3  C   UNL     1      50.915   8.365  13.223  0.00  0.00    +0.000 A 
ATOM      4  C   UNL     1      50.105   7.603  14.063  0.00  0.00    +0.000 A 
ATOM      5  C   UNL     1      48.947   6.995  13.567  0.00  0.00    +0.000 A 
ATOM      6  C   UNL     1      48.611   7.165  12.217  0.00  0.00    +0.000 A 
ATOM      7  C   UNL     1      49.424   7.924  11.373  0.00  0.00    +0.000 A 
BRANCH   5   8
ATOM      8  C   UNL     1      48.051   6.202  14.478  0.00  0.00    +0.000 C 
BRANCH   8   9
ATOM      9  N   UNL     1      46.831   5.824  13.817  0.00  0.00    +0.000 N 
ATOM     10  C   UNL     1      46.451   4.497  13.732  0.00  0.00    +0.000 C 
ATOM     11  O   UNL     1      47.155   3.603  14.204  0.00  0.00    +0.000 OA
ATOM     12  H   UNL     1      46.214   6.519  13.413  0.00  0.00    +0.000 HD
BRANCH  10  13
ATOM     13  C   UNL     1      45.170   4.291  13.059  0.00  0.00    +0.000 A 
ATOM     14  N   UNL     1      44.703   3.097  12.734  0.00  0.00    +0.000 NA
ATOM     15  C   UNL     1      43.480   3.246  12.107  0.00  0.00    +0.000 A 
ATOM     16  C   UNL     1      43.033   4.542  11.964  0.00  0.00    +0.000 A 
ATOM     17  S   UNL     1      44.173   5.624  12.643  0.00  0.00    +0.000 S 
ENDBRANCH  10  13
ENDBRANCH   8   9
ENDBRANCH   5   8
ENDBRANCH   1   2
BRANCH   1  19
ATOM     18  C   UNL     1      53.399   9.896  12.496  0.00  0.00    +0.000 C 
ATOM     19  N   UNL     1      52.862   9.464  11.210  0.00  0.00    +0.000 N 
ATOM     20  C   UNL     1      53.798   8.913  10.314  0.00  0.00    +0.000 C 
ATOM     21  O   UNL     1      54.989   8.836  10.612  0.00  0.00    +0.000 OA
BRANCH  20  22
ATOM     22  C   UNL     1      53.357   8.460   8.986  0.00  0.00    +0.000 A 
ATOM     23  C   UNL     1      53.026   9.302   7.936  0.00  0.00    +0.000 A 
ATOM     24  S   UNL     1      52.615   8.479   6.498  0.00  0.00    +0.000 S 
ATOM     25  C   UNL     1      53.019   6.976   7.184  0.00  0.00    +0.000 A 
ATOM     26  N   UNL     1      53.003   5.841   6.436  0.00  0.00    +0.000 NA
ATOM     27  C   UNL     1      53.405   4.788   7.067  0.00  0.00    +0.000 A 
ATOM     28  N   UNL     1      53.779   4.762   8.386  0.00  0.00    +0.000 N 
ATOM     29  C   UNL     1      53.676   5.858   9.216  0.00  0.00    +0.000 A 
ATOM     30  O   UNL     1      53.782   5.742  10.433  0.00  0.00    +0.000 OA
ATOM     31  C   UNL     1      53.354   7.092   8.520  0.00  0.00    +0.000 A 
ATOM     32  H   UNL     1      54.017   3.891   8.837  0.00  0.00    +0.000 HD
ENDBRANCH  20  22
ENDBRANCH   1  19
TORSDOF 6
ENDMDL
MODEL 9
REMARK VINA RESULT:    -5.356      9.830     12.598
REMARK INTER + INTRA:          -7.961
REMARK INTER:                  -6.798
REMARK INTRA:                  -1.163
REMARK UNBOUND:                -0.726
REMARK  Name = 
REMARK  7 active torsions:
REMARK  status: ('A' for Active; 'I' for Inactive)
REMARK    1  A    between atoms: C_1  and  N_2
REMARK    2  A    between atoms: N_2  and  C_3
REMARK    3  A    between atoms: C_3  and  C_4
REMARK    4  A    between atoms: C_7  and  C_8
REMARK    5  A    between atoms: C_8  and  N_9
REMARK    6  A    between atoms: C_10  and  C_12
REMARK    7  A    between atoms: C_19  and  C_21
REMARK                            x       y       z     vdW  Elec       q    Type
REMARK                         _______ _______ _______ _____ _____    ______ ____
ROOT
ATOM      1  C   UNL     1      40.037  -1.601  19.305  0.00  0.00    +0.000 C 
ENDROOT
BRANCH   1   2
ATOM      2  C   UNL     1      40.420  -2.177  17.966  0.00  0.00    +0.000 A 
ATOM      3  C   UNL     1      41.189  -3.348  17.894  0.00  0.00    +0.000 A 
ATOM      4  C   UNL     1      41.492  -3.919  16.659  0.00  0.00    +0.000 A 
ATOM      5  C   UNL     1      41.042  -3.324  15.476  0.00  0.00    +0.000 A 
ATOM      6  C   UNL     1      40.279  -2.151  15.549  0.00  0.00    +0.000 A 
ATOM      7  C   UNL     1      39.979  -1.575  16.784  0.00  0.00    +0.000 A 
BRANCH   5   8
ATOM      8  C   UNL     1      41.336  -3.957  14.144  0.00  0.00    +0.000 C 
BRANCH   8   9
ATOM      9  N   UNL     1      40.366  -3.573  13.153  0.00  0.00    +0.000 N 
ATOM     10  C   UNL     1      40.672  -2.633  12.186  0.00  0.00    +0.000 C 
ATOM     11  O   UNL     1      41.776  -2.088  12.156  0.00  0.00    +0.000 OA
ATOM     12  H   UNL     1      39.442  -3.991  13.131  0.00  0.00    +0.000 HD
BRANCH  10  13
ATOM     13  C   UNL     1      39.587  -2.384  11.239  0.00  0.00    +0.000 A 
ATOM     14  N   UNL     1      38.832  -1.298  11.267  0.00  0.00    +0.000 NA
ATOM     15  C   UNL     1      37.899  -1.372  10.250  0.00  0.00    +0.000 A 
ATOM     16  C   UNL     1      37.954  -2.504   9.465  0.00  0.00    +0.000 A 
ATOM     17  S   UNL     1      39.223  -3.520  10.005  0.00  0.00    +0.000 S 
ENDBRANCH  10  13
ENDBRANCH   8   9
ENDBRANCH   5   8
ENDBRANCH   1   2
BRANCH   1  19
ATOM     18  C   UNL     1      38.121  -3.132  19.957  0.00  0.00    +0.000 C 
ATOM     19  N   UNL     1      38.667  -1.790  19.783  0.00  0.00    +0.000 N 
ATOM     20  C   UNL     1      37.877  -0.743  20.295  0.00  0.00    +0.000 C 
ATOM     21  O   UNL     1      36.791  -0.969  20.826  0.00  0.00    +0.000 OA
BRANCH  20  22
ATOM     22  C   UNL     1      38.335   0.649  20.157  0.00  0.00    +0.000 A 
ATOM     23  C   UNL     1      39.116   1.317  21.087  0.00  0.00    +0.000 A 
ATOM     24  S   UNL     1      39.542   2.901  20.615  0.00  0.00    +0.000 S 
ATOM     25  C   UNL     1      38.830   2.691  19.086  0.00  0.00    +0.000 A 
ATOM     26  N   UNL     1      38.940   3.649  18.127  0.00  0.00    +0.000 NA
ATOM     27  C   UNL     1      38.417   3.322  16.993  0.00  0.00    +0.000 A 
ATOM     28  N   UNL     1      37.759   2.144  16.744  0.00  0.00    +0.000 N 
ATOM     29  C   UNL     1      37.502   1.210  17.724  0.00  0.00    +0.000 A 
ATOM     30  O   UNL     1      36.708   0.295  17.532  0.00  0.00    +0.000 OA
ATOM     31  C   UNL     1      38.184   1.473  18.980  0.00  0.00    +0.000 A 
ATOM     32  H   UNL     1      37.313   1.981  15.854  0.00  0.00    +0.000 HD
ENDBRANCH  20  22
ENDBRANCH   1  19
TORSDOF 6
ENDMDL
