MODEL 1
REMARK VINA RESULT:    -8.874      0.000      0.000
REMARK INTER + INTRA:         -13.604
REMARK INTER:                 -12.506
REMARK INTRA:                  -1.098
REMARK UNBOUND:                -1.098
REMARK  Name = 
REMARK  7 active torsions:
REMARK  status: ('A' for Active; 'I' for Inactive)
REMARK    1  A    between atoms: C_2  and  C_4
REMARK    2  A    between atoms: C_7  and  N_8
REMARK    3  A    between atoms: N_8  and  C_9
REMARK    4  A    between atoms: C_9  and  C_10
REMARK    5  A    between atoms: C_10  and  C_13
REMARK    6  A    between atoms: C_17  and  O_18
REMARK    7  A    between atoms: O_18  and  C_19
REMARK                            x       y       z     vdW  Elec       q    Type
REMARK                         _______ _______ _______ _____ _____    ______ ____
ROOT
ATOM      1  C   UNL     1      43.978   4.809  12.476  0.00  0.00    +0.000 C 
ATOM      2  F   UNL     1      43.093   5.443  13.298  0.00  0.00    +0.000 F 
ATOM      3  F   UNL     1      43.827   3.476  12.736  0.00  0.00    +0.000 F 
ENDROOT
BRANCH   1   4
ATOM      4  C   UNL     1      45.404   5.284  12.687  0.00  0.00    +0.000 A 
ATOM      5  C   UNL     1      45.989   6.214  11.818  0.00  0.00    +0.000 A 
ATOM      6  C   UNL     1      47.255   6.737  12.093  0.00  0.00    +0.000 A 
ATOM      7  C   UNL     1      47.953   6.335  13.235  0.00  0.00    +0.000 A 
ATOM      8  C   UNL     1      47.390   5.395  14.094  0.00  0.00    +0.000 A 
ATOM      9  C   UNL     1      46.123   4.876  13.822  0.00  0.00    +0.000 A 
BRANCH   8  10
ATOM     10  O   UNL     1      47.956   4.952  15.262  0.00  0.00    +0.000 OA
BRANCH  10  11
ATOM     11  C   UNL     1      47.155   4.190  16.191  0.00  0.00    +0.000 C 
ATOM     12  C   UNL     1      47.119   4.649  17.666  0.00  0.00    +0.000 C 
ATOM     13  N   UNL     1      47.331   3.251  18.099  0.00  0.00    +0.000 NA
ATOM     14  C   UNL     1      47.852   2.931  16.755  0.00  0.00    +0.000 C 
ATOM     15  H   UNL     1      46.469   2.756  18.331  0.00  0.00    +0.000 HD
ENDBRANCH  10  11
ENDBRANCH   8  10
ENDBRANCH   1   4
BRANCH   1  16
ATOM     16  C   UNL     1      43.587   5.066  10.998  0.00  0.00    +0.000 C 
BRANCH  16  17
ATOM     17  N   UNL     1      43.502   3.854  10.166  0.00  0.00    +0.000 N 
ATOM     18  H   UNL     1      43.051   3.060  10.619  0.00  0.00    +0.000 HD
BRANCH  17  22
ATOM     19  C   UNL     1      46.604   2.657   7.564  0.00  0.00    +0.000 A 
ATOM     20  C   UNL     1      46.262   4.007   7.652  0.00  0.00    +0.000 A 
ATOM     21  C   UNL     1      45.249   4.417   8.524  0.00  0.00    +0.000 A 
ATOM     22  C   UNL     1      44.572   3.502   9.343  0.00  0.00    +0.000 A 
ATOM     23  C   UNL     1      44.907   2.147   9.218  0.00  0.00    +0.000 A 
ATOM     24  C   UNL     1      45.908   1.723   8.335  0.00  0.00    +0.000 A 
BRANCH  19  26
ATOM     25  N   UNL     1      47.912   2.955   5.532  0.00  0.00    +0.000 N 
ATOM     26  C   UNL     1      47.663   2.183   6.635  0.00  0.00    +0.000 C 
ATOM     27  O   UNL     1      48.314   1.174   6.861  0.00  0.00    +0.000 OA
ATOM     28  H   UNL     1      48.708   2.682   4.970  0.00  0.00    +0.000 HD
ATOM     29  H   UNL     1      47.585   3.906   5.453  0.00  0.00    +0.000 HD
ENDBRANCH  19  26
ENDBRANCH  17  22
ENDBRANCH  16  17
ENDBRANCH   1  16
TORSDOF 7
ENDMDL
MODEL 2
REMARK VINA RESULT:    -8.252      2.566      4.040
REMARK INTER + INTRA:         -12.727
REMARK INTER:                 -11.941
REMARK INTRA:                  -0.786
REMARK UNBOUND:                -1.098
REMARK  Name = 
REMARK  7 active torsions:
REMARK  status: ('A' for Active; 'I' for Inactive)
REMARK    1  A    between atoms: C_2  and  C_4
REMARK    2  A    between atoms: C_7  and  N_8
REMARK    3  A    between atoms: N_8  and  C_9
REMARK    4  A    between atoms: C_9  and  C_10
REMARK    5  A    between atoms: C_10  and  C_13
REMARK    6  A    between atoms: C_17  and  O_18
REMARK    7  A    between atoms: O_18  and  C_19
REMARK                            x       y       z     vdW  Elec       q    Type
REMARK                         _______ _______ _______ _____ _____    ______ ____
ROOT
ATOM      1  C   UNL     1      43.331   4.733  12.766  0.00  0.00    +0.000 C 
ATOM      2  F   UNL     1      42.325   5.635  12.578  0.00  0.00    +0.000 F 
ATOM      3  F   UNL     1      42.992   4.039  13.895  0.00  0.00    +0.000 F 
ENDROOT
BRANCH   1   4
ATOM      4  C   UNL     1      44.690   5.399  12.881  0.00  0.00    +0.000 A 
ATOM      5  C   UNL     1      45.808   4.680  13.323  0.00  0.00    +0.000 A 
ATOM      6  C   UNL     1      47.075   5.268  13.307  0.00  0.00    +0.000 A 
ATOM      7  C   UNL     1      47.240   6.580  12.853  0.00  0.00    +0.000 A 
ATOM      8  C   UNL     1      46.132   7.310  12.432  0.00  0.00    +0.000 A 
ATOM      9  C   UNL     1      44.866   6.722  12.444  0.00  0.00    +0.000 A 
BRANCH   8  10
ATOM     10  O   UNL     1      46.170   8.586  11.931  0.00  0.00    +0.000 OA
BRANCH  10  11
ATOM     11  C   UNL     1      45.001   9.426  12.047  0.00  0.00    +0.000 C 
ATOM     12  C   UNL     1      44.106   9.603  10.799  0.00  0.00    +0.000 C 
ATOM     13  N   UNL     1      44.068  11.061  11.042  0.00  0.00    +0.000 NA
ATOM     14  C   UNL     1      45.279  10.937  11.877  0.00  0.00    +0.000 C 
ATOM     15  H   UNL     1      43.245  11.372  11.559  0.00  0.00    +0.000 HD
ENDBRANCH  10  11
ENDBRANCH   8  10
ENDBRANCH   1   4
BRANCH   1  16
ATOM     16  C   UNL     1      43.366   3.741  11.575  0.00  0.00    +0.000 C 
BRANCH  16  17
ATOM     17  N   UNL     1      43.687   4.355  10.275  0.00  0.00    +0.000 N 
ATOM     18  H   UNL     1      42.881   4.709   9.763  0.00  0.00    +0.000 HD
BRANCH  17  22
ATOM     19  C   UNL     1      46.492   2.503   7.719  0.00  0.00    +0.000 A 
ATOM     20  C   UNL     1      46.367   3.893   7.713  0.00  0.00    +0.000 A 
ATOM     21  C   UNL     1      45.455   4.518   8.568  0.00  0.00    +0.000 A 
ATOM     22  C   UNL     1      44.667   3.782   9.463  0.00  0.00    +0.000 A 
ATOM     23  C   UNL     1      44.783   2.385   9.433  0.00  0.00    +0.000 A 
ATOM     24  C   UNL     1      45.681   1.747   8.568  0.00  0.00    +0.000 A 
BRANCH  19  26
ATOM     25  N   UNL     1      48.541   2.507   6.403  0.00  0.00    +0.000 N 
ATOM     26  C   UNL     1      47.439   1.805   6.810  0.00  0.00    +0.000 C 
ATOM     27  O   UNL     1      47.267   0.643   6.471  0.00  0.00    +0.000 OA
ATOM     28  H   UNL     1      49.230   1.984   5.878  0.00  0.00    +0.000 HD
ATOM     29  H   UNL     1      48.842   3.353   6.861  0.00  0.00    +0.000 HD
ENDBRANCH  19  26
ENDBRANCH  17  22
ENDBRANCH  16  17
ENDBRANCH   1  16
TORSDOF 7
ENDMDL
MODEL 3
REMARK VINA RESULT:    -7.964      1.719      1.903
REMARK INTER + INTRA:         -12.322
REMARK INTER:                 -11.275
REMARK INTRA:                  -1.047
REMARK UNBOUND:                -1.098
REMARK  Name = 
REMARK  7 active torsions:
REMARK  status: ('A' for Active; 'I' for Inactive)
REMARK    1  A    between atoms: C_2  and  C_4
REMARK    2  A    between atoms: C_7  and  N_8
REMARK    3  A    between atoms: N_8  and  C_9
REMARK    4  A    between atoms: C_9  and  C_10
REMARK    5  A    between atoms: C_10  and  C_13
REMARK    6  A    between atoms: C_17  and  O_18
REMARK    7  A    between atoms: O_18  and  C_19
REMARK                            x       y       z     vdW  Elec       q    Type
REMARK                         _______ _______ _______ _____ _____    ______ ____
ROOT
ATOM      1  C   UNL     1      44.633   4.734  12.430  0.00  0.00    +0.000 C 
ATOM      2  F   UNL     1      43.815   5.031  13.481  0.00  0.00    +0.000 F 
ATOM      3  F   UNL     1      44.763   3.373  12.443  0.00  0.00    +0.000 F 
ENDROOT
BRANCH   1   4
ATOM      4  C   UNL     1      45.971   5.445  12.522  0.00  0.00    +0.000 A 
ATOM      5  C   UNL     1      46.402   6.301  11.500  0.00  0.00    +0.000 A 
ATOM      6  C   UNL     1      47.575   7.044  11.652  0.00  0.00    +0.000 A 
ATOM      7  C   UNL     1      48.333   6.939  12.821  0.00  0.00    +0.000 A 
ATOM      8  C   UNL     1      47.925   6.075  13.834  0.00  0.00    +0.000 A 
ATOM      9  C   UNL     1      46.750   5.335  13.685  0.00  0.00    +0.000 A 
BRANCH   8  10
ATOM     10  O   UNL     1      48.559   5.915  15.039  0.00  0.00    +0.000 OA
BRANCH  10  11
ATOM     11  C   UNL     1      49.441   6.954  15.516  0.00  0.00    +0.000 C 
ATOM     12  C   UNL     1      50.582   6.554  16.479  0.00  0.00    +0.000 C 
ATOM     13  N   UNL     1      50.236   7.695  17.352  0.00  0.00    +0.000 NA
ATOM     14  C   UNL     1      48.899   7.748  16.727  0.00  0.00    +0.000 C 
ATOM     15  H   UNL     1      50.798   8.530  17.184  0.00  0.00    +0.000 HD
ENDBRANCH  10  11
ENDBRANCH   8  10
ENDBRANCH   1   4
BRANCH   1  16
ATOM     16  C   UNL     1      43.944   5.147  11.105  0.00  0.00    +0.000 C 
BRANCH  16  17
ATOM     17  N   UNL     1      43.714   4.039  10.162  0.00  0.00    +0.000 N 
ATOM     18  H   UNL     1      43.154   3.275  10.535  0.00  0.00    +0.000 HD
BRANCH  17  22
ATOM     19  C   UNL     1      46.682   2.662   7.492  0.00  0.00    +0.000 A 
ATOM     20  C   UNL     1      46.420   4.030   7.584  0.00  0.00    +0.000 A 
ATOM     21  C   UNL     1      45.452   4.499   8.478  0.00  0.00    +0.000 A 
ATOM     22  C   UNL     1      44.744   3.626   9.315  0.00  0.00    +0.000 A 
ATOM     23  C   UNL     1      44.998   2.254   9.186  0.00  0.00    +0.000 A 
ATOM     24  C   UNL     1      45.952   1.771   8.282  0.00  0.00    +0.000 A 
BRANCH  19  26
ATOM     25  N   UNL     1      48.028   2.925   5.480  0.00  0.00    +0.000 N 
ATOM     26  C   UNL     1      47.691   2.128   6.540  0.00  0.00    +0.000 C 
ATOM     27  O   UNL     1      48.228   1.043   6.713  0.00  0.00    +0.000 OA
ATOM     28  H   UNL     1      48.794   2.598   4.906  0.00  0.00    +0.000 HD
ATOM     29  H   UNL     1      47.806   3.908   5.452  0.00  0.00    +0.000 HD
ENDBRANCH  19  26
ENDBRANCH  17  22
ENDBRANCH  16  17
ENDBRANCH   1  16
TORSDOF 7
ENDMDL
MODEL 4
REMARK VINA RESULT:    -7.364      2.880      3.439
REMARK INTER + INTRA:         -11.476
REMARK INTER:                 -11.087
REMARK INTRA:                  -0.389
REMARK UNBOUND:                -1.098
REMARK  Name = 
REMARK  7 active torsions:
REMARK  status: ('A' for Active; 'I' for Inactive)
REMARK    1  A    between atoms: C_2  and  C_4
REMARK    2  A    between atoms: C_7  and  N_8
REMARK    3  A    between atoms: N_8  and  C_9
REMARK    4  A    between atoms: C_9  and  C_10
REMARK    5  A    between atoms: C_10  and  C_13
REMARK    6  A    between atoms: C_17  and  O_18
REMARK    7  A    between atoms: O_18  and  C_19
REMARK                            x       y       z     vdW  Elec       q    Type
REMARK                         _______ _______ _______ _____ _____    ______ ____
ROOT
ATOM      1  C   UNL     1      44.825   5.157  12.209  0.00  0.00    +0.000 C 
ATOM      2  F   UNL     1      44.445   4.758  13.457  0.00  0.00    +0.000 F 
ATOM      3  F   UNL     1      45.789   4.269  11.820  0.00  0.00    +0.000 F 
ENDROOT
BRANCH   1   4
ATOM      4  C   UNL     1      45.315   6.593  12.186  0.00  0.00    +0.000 A 
ATOM      5  C   UNL     1      44.547   7.606  11.595  0.00  0.00    +0.000 A 
ATOM      6  C   UNL     1      44.950   8.940  11.690  0.00  0.00    +0.000 A 
ATOM      7  C   UNL     1      46.123   9.279  12.370  0.00  0.00    +0.000 A 
ATOM      8  C   UNL     1      46.904   8.278  12.941  0.00  0.00    +0.000 A 
ATOM      9  C   UNL     1      46.500   6.945  12.851  0.00  0.00    +0.000 A 
BRANCH   8  10
ATOM     10  O   UNL     1      48.050   8.486  13.665  0.00  0.00    +0.000 OA
BRANCH  10  11
ATOM     11  C   UNL     1      49.221   7.689  13.379  0.00  0.00    +0.000 C 
ATOM     12  C   UNL     1      50.601   8.255  13.782  0.00  0.00    +0.000 C 
ATOM     13  N   UNL     1      51.133   7.884  12.453  0.00  0.00    +0.000 NA
ATOM     14  C   UNL     1      49.752   7.827  11.934  0.00  0.00    +0.000 C 
ATOM     15  H   UNL     1      51.612   6.983  12.437  0.00  0.00    +0.000 HD
ENDBRANCH  10  11
ENDBRANCH   8  10
ENDBRANCH   1   4
BRANCH   1  16
ATOM     16  C   UNL     1      43.624   5.030  11.237  0.00  0.00    +0.000 C 
BRANCH  16  17
ATOM     17  N   UNL     1      43.975   5.132   9.810  0.00  0.00    +0.000 N 
ATOM     18  H   UNL     1      43.259   5.562   9.227  0.00  0.00    +0.000 HD
BRANCH  17  22
ATOM     19  C   UNL     1      46.230   2.047   8.014  0.00  0.00    +0.000 A 
ATOM     20  C   UNL     1      45.211   1.723   8.910  0.00  0.00    +0.000 A 
ATOM     21  C   UNL     1      44.445   2.735   9.497  0.00  0.00    +0.000 A 
ATOM     22  C   UNL     1      44.658   4.085   9.189  0.00  0.00    +0.000 A 
ATOM     23  C   UNL     1      45.706   4.394   8.311  0.00  0.00    +0.000 A 
ATOM     24  C   UNL     1      46.490   3.390   7.730  0.00  0.00    +0.000 A 
BRANCH  19  26
ATOM     25  N   UNL     1      46.741  -0.305   7.644  0.00  0.00    +0.000 N 
ATOM     26  C   UNL     1      47.074   0.998   7.385  0.00  0.00    +0.000 C 
ATOM     27  O   UNL     1      48.000   1.278   6.638  0.00  0.00    +0.000 OA
ATOM     28  H   UNL     1      47.253  -1.005   7.123  0.00  0.00    +0.000 HD
ATOM     29  H   UNL     1      45.849  -0.567   8.032  0.00  0.00    +0.000 HD
ENDBRANCH  19  26
ENDBRANCH  17  22
ENDBRANCH  16  17
ENDBRANCH   1  16
TORSDOF 7
ENDMDL
MODEL 5
REMARK VINA RESULT:    -7.170      2.276      8.166
REMARK INTER + INTRA:         -11.203
REMARK INTER:                 -10.633
REMARK INTRA:                  -0.570
REMARK UNBOUND:                -1.098
REMARK  Name = 
REMARK  7 active torsions:
REMARK  status: ('A' for Active; 'I' for Inactive)
REMARK    1  A    between atoms: C_2  and  C_4
REMARK    2  A    between atoms: C_7  and  N_8
REMARK    3  A    between atoms: N_8  and  C_9
REMARK    4  A    between atoms: C_9  and  C_10
REMARK    5  A    between atoms: C_10  and  C_13
REMARK    6  A    between atoms: C_17  and  O_18
REMARK    7  A    between atoms: O_18  and  C_19
REMARK                            x       y       z     vdW  Elec       q    Type
REMARK                         _______ _______ _______ _____ _____    ______ ____
ROOT
ATOM      1  C   UNL     1      45.571   6.068  11.429  0.00  0.00    +0.000 C 
ATOM      2  F   UNL     1      44.538   6.960  11.412  0.00  0.00    +0.000 F 
ATOM      3  F   UNL     1      46.664   6.770  11.006  0.00  0.00    +0.000 F 
ENDROOT
BRANCH   1   4
ATOM      4  C   UNL     1      45.294   4.849  10.569  0.00  0.00    +0.000 A 
ATOM      5  C   UNL     1      44.474   3.812  11.033  0.00  0.00    +0.000 A 
ATOM      6  C   UNL     1      44.127   2.756  10.188  0.00  0.00    +0.000 A 
ATOM      7  C   UNL     1      44.598   2.719   8.872  0.00  0.00    +0.000 A 
ATOM      8  C   UNL     1      45.432   3.733   8.408  0.00  0.00    +0.000 A 
ATOM      9  C   UNL     1      45.775   4.792   9.251  0.00  0.00    +0.000 A 
BRANCH   8  10
ATOM     10  O   UNL     1      45.924   3.829   7.132  0.00  0.00    +0.000 OA
BRANCH  10  11
ATOM     11  C   UNL     1      46.421   2.642   6.475  0.00  0.00    +0.000 C 
ATOM     12  C   UNL     1      47.628   1.913   7.108  0.00  0.00    +0.000 C 
ATOM     13  N   UNL     1      48.263   1.823   5.777  0.00  0.00    +0.000 NA
ATOM     14  C   UNL     1      47.392   2.918   5.304  0.00  0.00    +0.000 C 
ATOM     15  H   UNL     1      48.098   0.936   5.300  0.00  0.00    +0.000 HD
ENDBRANCH  10  11
ENDBRANCH   8  10
ENDBRANCH   1   4
BRANCH   1  16
ATOM     16  C   UNL     1      45.825   5.598  12.884  0.00  0.00    +0.000 C 
BRANCH  16  17
ATOM     17  N   UNL     1      46.990   6.221  13.535  0.00  0.00    +0.000 N 
ATOM     18  H   UNL     1      47.719   6.530  12.894  0.00  0.00    +0.000 HD
BRANCH  17  22
ATOM     19  C   UNL     1      48.534   4.456  17.047  0.00  0.00    +0.000 A 
ATOM     20  C   UNL     1      48.983   5.717  16.656  0.00  0.00    +0.000 A 
ATOM     21  C   UNL     1      48.466   6.319  15.505  0.00  0.00    +0.000 A 
ATOM     22  C   UNL     1      47.476   5.695  14.734  0.00  0.00    +0.000 A 
ATOM     23  C   UNL     1      47.059   4.415  15.124  0.00  0.00    +0.000 A 
ATOM     24  C   UNL     1      47.584   3.795  16.265  0.00  0.00    +0.000 A 
BRANCH  19  26
ATOM     25  N   UNL     1      50.156   2.958  18.073  0.00  0.00    +0.000 N 
ATOM     26  C   UNL     1      49.075   3.778  18.254  0.00  0.00    +0.000 C 
ATOM     27  O   UNL     1      48.607   3.973  19.366  0.00  0.00    +0.000 OA
ATOM     28  H   UNL     1      50.582   2.593  18.916  0.00  0.00    +0.000 HD
ATOM     29  H   UNL     1      50.717   2.979  17.236  0.00  0.00    +0.000 HD
ENDBRANCH  19  26
ENDBRANCH  17  22
ENDBRANCH  16  17
ENDBRANCH   1  16
TORSDOF 7
ENDMDL
MODEL 6
REMARK VINA RESULT:    -6.953      3.260      4.564
REMARK INTER + INTRA:         -10.897
REMARK INTER:                  -9.687
REMARK INTRA:                  -1.210
REMARK UNBOUND:                -1.098
REMARK  Name = 
REMARK  7 active torsions:
REMARK  status: ('A' for Active; 'I' for Inactive)
REMARK    1  A    between atoms: C_2  and  C_4
REMARK    2  A    between atoms: C_7  and  N_8
REMARK    3  A    between atoms: N_8  and  C_9
REMARK    4  A    between atoms: C_9  and  C_10
REMARK    5  A    between atoms: C_10  and  C_13
REMARK    6  A    between atoms: C_17  and  O_18
REMARK    7  A    between atoms: O_18  and  C_19
REMARK                            x       y       z     vdW  Elec       q    Type
REMARK                         _______ _______ _______ _____ _____    ______ ____
ROOT
ATOM      1  C   UNL     1      47.909   8.180  12.228  0.00  0.00    +0.000 C 
ATOM      2  F   UNL     1      48.007   7.004  11.542  0.00  0.00    +0.000 F 
ATOM      3  F   UNL     1      48.690   9.068  11.542  0.00  0.00    +0.000 F 
ENDROOT
BRANCH   1   4
ATOM      4  C   UNL     1      48.330   8.037  13.679  0.00  0.00    +0.000 A 
ATOM      5  C   UNL     1      48.449   9.162  14.507  0.00  0.00    +0.000 A 
ATOM      6  C   UNL     1      48.716   9.008  15.870  0.00  0.00    +0.000 A 
ATOM      7  C   UNL     1      48.872   7.732  16.421  0.00  0.00    +0.000 A 
ATOM      8  C   UNL     1      48.777   6.610  15.602  0.00  0.00    +0.000 A 
ATOM      9  C   UNL     1      48.506   6.763  14.241  0.00  0.00    +0.000 A 
BRANCH   8  10
ATOM     10  O   UNL     1      48.871   5.310  16.030  0.00  0.00    +0.000 OA
BRANCH  10  11
ATOM     11  C   UNL     1      47.663   4.543  16.229  0.00  0.00    +0.000 C 
ATOM     12  C   UNL     1      47.037   4.527  17.642  0.00  0.00    +0.000 C 
ATOM     13  N   UNL     1      46.878   3.061  17.547  0.00  0.00    +0.000 NA
ATOM     14  C   UNL     1      47.895   3.036  16.477  0.00  0.00    +0.000 C 
ATOM     15  H   UNL     1      45.952   2.765  17.236  0.00  0.00    +0.000 HD
ENDBRANCH  10  11
ENDBRANCH   8  10
ENDBRANCH   1   4
BRANCH   1  16
ATOM     16  C   UNL     1      46.444   8.684  12.187  0.00  0.00    +0.000 C 
BRANCH  16  17
ATOM     17  N   UNL     1      45.512   7.932  13.044  0.00  0.00    +0.000 N 
ATOM     18  H   UNL     1      45.704   8.002  14.042  0.00  0.00    +0.000 HD
BRANCH  17  22
ATOM     19  C   UNL     1      44.266   4.151  11.637  0.00  0.00    +0.000 A 
ATOM     20  C   UNL     1      44.968   4.241  12.840  0.00  0.00    +0.000 A 
ATOM     21  C   UNL     1      45.370   5.489  13.324  0.00  0.00    +0.000 A 
ATOM     22  C   UNL     1      45.063   6.673  12.641  0.00  0.00    +0.000 A 
ATOM     23  C   UNL     1      44.385   6.561  11.420  0.00  0.00    +0.000 A 
ATOM     24  C   UNL     1      43.993   5.315  10.915  0.00  0.00    +0.000 A 
BRANCH  19  26
ATOM     25  N   UNL     1      44.534   2.367  10.002  0.00  0.00    +0.000 N 
ATOM     26  C   UNL     1      43.840   2.839  11.083  0.00  0.00    +0.000 C 
ATOM     27  O   UNL     1      42.938   2.188  11.591  0.00  0.00    +0.000 OA
ATOM     28  H   UNL     1      44.307   1.426   9.706  0.00  0.00    +0.000 HD
ATOM     29  H   UNL     1      45.428   2.742   9.728  0.00  0.00    +0.000 HD
ENDBRANCH  19  26
ENDBRANCH  17  22
ENDBRANCH  16  17
ENDBRANCH   1  16
TORSDOF 7
ENDMDL
MODEL 7
REMARK VINA RESULT:    -6.611      3.337      7.609
REMARK INTER + INTRA:         -10.415
REMARK INTER:                  -9.671
REMARK INTRA:                  -0.744
REMARK UNBOUND:                -1.098
REMARK  Name = 
REMARK  7 active torsions:
REMARK  status: ('A' for Active; 'I' for Inactive)
REMARK    1  A    between atoms: C_2  and  C_4
REMARK    2  A    between atoms: C_7  and  N_8
REMARK    3  A    between atoms: N_8  and  C_9
REMARK    4  A    between atoms: C_9  and  C_10
REMARK    5  A    between atoms: C_10  and  C_13
REMARK    6  A    between atoms: C_17  and  O_18
REMARK    7  A    between atoms: O_18  and  C_19
REMARK                            x       y       z     vdW  Elec       q    Type
REMARK                         _______ _______ _______ _____ _____    ______ ____
ROOT
ATOM      1  C   UNL     1      45.017   5.945  11.512  0.00  0.00    +0.000 C 
ATOM      2  F   UNL     1      43.817   6.201  12.110  0.00  0.00    +0.000 F 
ATOM      3  F   UNL     1      45.325   7.080  10.815  0.00  0.00    +0.000 F 
ENDROOT
BRANCH   1   4
ATOM      4  C   UNL     1      44.969   4.715  10.626  0.00  0.00    +0.000 A 
ATOM      5  C   UNL     1      44.243   3.579  11.010  0.00  0.00    +0.000 A 
ATOM      6  C   UNL     1      44.104   2.501  10.133  0.00  0.00    +0.000 A 
ATOM      7  C   UNL     1      44.691   2.541   8.865  0.00  0.00    +0.000 A 
ATOM      8  C   UNL     1      45.433   3.656   8.482  0.00  0.00    +0.000 A 
ATOM      9  C   UNL     1      45.568   4.735   9.356  0.00  0.00    +0.000 A 
BRANCH   8  10
ATOM     10  O   UNL     1      46.021   3.829   7.255  0.00  0.00    +0.000 OA
BRANCH  10  11
ATOM     11  C   UNL     1      46.496   2.674   6.530  0.00  0.00    +0.000 C 
ATOM     12  C   UNL     1      47.798   1.997   7.013  0.00  0.00    +0.000 C 
ATOM     13  N   UNL     1      48.284   1.949   5.618  0.00  0.00    +0.000 NA
ATOM     14  C   UNL     1      47.316   3.006   5.262  0.00  0.00    +0.000 C 
ATOM     15  H   UNL     1      48.107   1.060   5.149  0.00  0.00    +0.000 HD
ENDBRANCH  10  11
ENDBRANCH   8  10
ENDBRANCH   1   4
BRANCH   1  16
ATOM     16  C   UNL     1      46.101   5.730  12.598  0.00  0.00    +0.000 C 
BRANCH  16  17
ATOM     17  N   UNL     1      46.569   6.964  13.252  0.00  0.00    +0.000 N 
ATOM     18  H   UNL     1      45.894   7.727  13.249  0.00  0.00    +0.000 HD
BRANCH  17  22
ATOM     19  C   UNL     1      50.497   8.378  12.614  0.00  0.00    +0.000 A 
ATOM     20  C   UNL     1      49.995   8.303  13.914  0.00  0.00    +0.000 A 
ATOM     21  C   UNL     1      48.702   7.819  14.138  0.00  0.00    +0.000 A 
ATOM     22  C   UNL     1      47.892   7.377  13.084  0.00  0.00    +0.000 A 
ATOM     23  C   UNL     1      48.401   7.489  11.783  0.00  0.00    +0.000 A 
ATOM     24  C   UNL     1      49.688   7.989  11.544  0.00  0.00    +0.000 A 
BRANCH  19  26
ATOM     25  N   UNL     1      51.941  10.153  11.783  0.00  0.00    +0.000 N 
ATOM     26  C   UNL     1      51.859   8.904  12.337  0.00  0.00    +0.000 C 
ATOM     27  O   UNL     1      52.865   8.272  12.626  0.00  0.00    +0.000 OA
ATOM     28  H   UNL     1      52.872  10.543  11.705  0.00  0.00    +0.000 HD
ATOM     29  H   UNL     1      51.163  10.793  11.776  0.00  0.00    +0.000 HD
ENDBRANCH  19  26
ENDBRANCH  17  22
ENDBRANCH  16  17
ENDBRANCH   1  16
TORSDOF 7
ENDMDL
MODEL 8
REMARK VINA RESULT:    -6.473      3.417      7.690
REMARK INTER + INTRA:         -10.221
REMARK INTER:                  -9.400
REMARK INTRA:                  -0.821
REMARK UNBOUND:                -1.098
REMARK  Name = 
REMARK  7 active torsions:
REMARK  status: ('A' for Active; 'I' for Inactive)
REMARK    1  A    between atoms: C_2  and  C_4
REMARK    2  A    between atoms: C_7  and  N_8
REMARK    3  A    between atoms: N_8  and  C_9
REMARK    4  A    between atoms: C_9  and  C_10
REMARK    5  A    between atoms: C_10  and  C_13
REMARK    6  A    between atoms: C_17  and  O_18
REMARK    7  A    between atoms: O_18  and  C_19
REMARK                            x       y       z     vdW  Elec       q    Type
REMARK                         _______ _______ _______ _____ _____    ______ ____
ROOT
ATOM      1  C   UNL     1      47.686   6.469  14.027  0.00  0.00    +0.000 C 
ATOM      2  F   UNL     1      48.038   7.373  14.986  0.00  0.00    +0.000 F 
ATOM      3  F   UNL     1      48.825   6.240  13.307  0.00  0.00    +0.000 F 
ENDROOT
BRANCH   1   4
ATOM      4  C   UNL     1      46.541   6.961  13.162  0.00  0.00    +0.000 A 
ATOM      5  C   UNL     1      46.311   8.332  12.985  0.00  0.00    +0.000 A 
ATOM      6  C   UNL     1      45.333   8.772  12.090  0.00  0.00    +0.000 A 
ATOM      7  C   UNL     1      44.571   7.852  11.365  0.00  0.00    +0.000 A 
ATOM      8  C   UNL     1      44.777   6.487  11.550  0.00  0.00    +0.000 A 
ATOM      9  C   UNL     1      45.757   6.046  12.441  0.00  0.00    +0.000 A 
BRANCH   8  10
ATOM     10  O   UNL     1      44.123   5.490  10.872  0.00  0.00    +0.000 OA
BRANCH  10  11
ATOM     11  C   UNL     1      44.432   4.111  11.172  0.00  0.00    +0.000 C 
ATOM     12  C   UNL     1      44.187   3.056  10.070  0.00  0.00    +0.000 C 
ATOM     13  N   UNL     1      43.527   2.183  11.063  0.00  0.00    +0.000 NA
ATOM     14  C   UNL     1      43.319   3.357  11.933  0.00  0.00    +0.000 C 
ATOM     15  H   UNL     1      44.144   1.478  11.469  0.00  0.00    +0.000 HD
ENDBRANCH  10  11
ENDBRANCH   8  10
ENDBRANCH   1   4
BRANCH   1  16
ATOM     16  C   UNL     1      47.259   5.140  14.701  0.00  0.00    +0.000 C 
BRANCH  16  17
ATOM     17  N   UNL     1      47.504   5.081  16.152  0.00  0.00    +0.000 N 
ATOM     18  H   UNL     1      47.373   5.966  16.640  0.00  0.00    +0.000 HD
BRANCH  17  22
ATOM     19  C   UNL     1      50.710   2.658  17.449  0.00  0.00    +0.000 A 
ATOM     20  C   UNL     1      50.839   4.046  17.484  0.00  0.00    +0.000 A 
ATOM     21  C   UNL     1      49.777   4.859  17.074  0.00  0.00    +0.000 A 
ATOM     22  C   UNL     1      48.560   4.313  16.646  0.00  0.00    +0.000 A 
ATOM     23  C   UNL     1      48.459   2.916  16.588  0.00  0.00    +0.000 A 
ATOM     24  C   UNL     1      49.522   2.092  16.979  0.00  0.00    +0.000 A 
BRANCH  19  26
ATOM     25  N   UNL     1      51.538   0.430  17.978  0.00  0.00    +0.000 N 
ATOM     26  C   UNL     1      51.824   1.763  17.860  0.00  0.00    +0.000 C 
ATOM     27  O   UNL     1      52.955   2.188  18.045  0.00  0.00    +0.000 OA
ATOM     28  H   UNL     1      52.328  -0.179  18.148  0.00  0.00    +0.000 HD
ATOM     29  H   UNL     1      50.704   0.019  17.588  0.00  0.00    +0.000 HD
ENDBRANCH  19  26
ENDBRANCH  17  22
ENDBRANCH  16  17
ENDBRANCH   1  16
TORSDOF 7
ENDMDL
MODEL 9
REMARK VINA RESULT:    -6.470      2.357      7.409
REMARK INTER + INTRA:         -10.216
REMARK INTER:                  -9.439
REMARK INTRA:                  -0.777
REMARK UNBOUND:                -1.098
REMARK  Name = 
REMARK  7 active torsions:
REMARK  status: ('A' for Active; 'I' for Inactive)
REMARK    1  A    between atoms: C_2  and  C_4
REMARK    2  A    between atoms: C_7  and  N_8
REMARK    3  A    between atoms: N_8  and  C_9
REMARK    4  A    between atoms: C_9  and  C_10
REMARK    5  A    between atoms: C_10  and  C_13
REMARK    6  A    between atoms: C_17  and  O_18
REMARK    7  A    between atoms: O_18  and  C_19
REMARK                            x       y       z     vdW  Elec       q    Type
REMARK                         _______ _______ _______ _____ _____    ______ ____
ROOT
ATOM      1  C   UNL     1      45.688   7.302  12.075  0.00  0.00    +0.000 C 
ATOM      2  F   UNL     1      45.393   7.929  13.250  0.00  0.00    +0.000 F 
ATOM      3  F   UNL     1      45.530   8.253  11.106  0.00  0.00    +0.000 F 
ENDROOT
BRANCH   1   4
ATOM      4  C   UNL     1      44.818   6.081  11.838  0.00  0.00    +0.000 A 
ATOM      5  C   UNL     1      43.443   6.116  12.104  0.00  0.00    +0.000 A 
ATOM      6  C   UNL     1      42.633   5.029  11.766  0.00  0.00    +0.000 A 
ATOM      7  C   UNL     1      43.185   3.895  11.164  0.00  0.00    +0.000 A 
ATOM      8  C   UNL     1      44.555   3.842  10.916  0.00  0.00    +0.000 A 
ATOM      9  C   UNL     1      45.364   4.929  11.249  0.00  0.00    +0.000 A 
BRANCH   8  10
ATOM     10  O   UNL     1      45.206   2.806  10.297  0.00  0.00    +0.000 OA
BRANCH  10  11
ATOM     11  C   UNL     1      45.020   2.601   8.879  0.00  0.00    +0.000 C 
ATOM     12  C   UNL     1      46.192   1.998   8.073  0.00  0.00    +0.000 C 
ATOM     13  N   UNL     1      45.999   3.031   7.033  0.00  0.00    +0.000 NA
ATOM     14  C   UNL     1      45.266   3.857   8.013  0.00  0.00    +0.000 C 
ATOM     15  H   UNL     1      45.424   2.724   6.248  0.00  0.00    +0.000 HD
ENDBRANCH  10  11
ENDBRANCH   8  10
ENDBRANCH   1   4
BRANCH   1  16
ATOM     16  C   UNL     1      47.172   6.856  12.084  0.00  0.00    +0.000 C 
BRANCH  16  17
ATOM     17  N   UNL     1      47.889   7.137  13.340  0.00  0.00    +0.000 N 
ATOM     18  H   UNL     1      48.808   7.562  13.217  0.00  0.00    +0.000 HD
BRANCH  17  22
ATOM     19  C   UNL     1      47.781   4.226  16.396  0.00  0.00    +0.000 A 
ATOM     20  C   UNL     1      48.479   5.416  16.604  0.00  0.00    +0.000 A 
ATOM     21  C   UNL     1      48.507   6.395  15.606  0.00  0.00    +0.000 A 
ATOM     22  C   UNL     1      47.823   6.225  14.394  0.00  0.00    +0.000 A 
ATOM     23  C   UNL     1      47.153   5.011  14.191  0.00  0.00    +0.000 A 
ATOM     24  C   UNL     1      47.134   4.016  15.177  0.00  0.00    +0.000 A 
BRANCH  19  26
ATOM     25  N   UNL     1      48.913   2.900  18.096  0.00  0.00    +0.000 N 
ATOM     26  C   UNL     1      47.746   3.157  17.428  0.00  0.00    +0.000 C 
ATOM     27  O   UNL     1      46.715   2.559  17.701  0.00  0.00    +0.000 OA
ATOM     28  H   UNL     1      48.847   2.251  18.870  0.00  0.00    +0.000 HD
ATOM     29  H   UNL     1      49.694   3.537  18.083  0.00  0.00    +0.000 HD
ENDBRANCH  19  26
ENDBRANCH  17  22
ENDBRANCH  16  17
ENDBRANCH   1  16
TORSDOF 7
ENDMDL
