MODEL 1
REMARK VINA RESULT:    -8.444      0.000      0.000
REMARK INTER + INTRA:         -11.325
REMARK INTER:                 -10.419
REMARK INTRA:                  -0.906
REMARK UNBOUND:                -0.906
REMARK  Name = 
REMARK  4 active torsions:
REMARK  status: ('A' for Active; 'I' for Inactive)
REMARK    1  A    between atoms: C_2  and  C_4
REMARK    2  A    between atoms: C_7  and  C_8
REMARK    3  A    between atoms: C_8  and  N_9
REMARK    4  A    between atoms: C_14  and  C_15
REMARK                            x       y       z     vdW  Elec       q    Type
REMARK                         _______ _______ _______ _____ _____    ______ ____
ROOT
ATOM      1  N   UNL     1      43.872   4.405  11.643  0.00  0.00    +0.000 N 
ATOM      2  C   UNL     1      43.144   5.596  11.519  0.00  0.00    +0.000 A 
ATOM      3  C   UNL     1      44.080   6.605  11.455  0.00  0.00    +0.000 A 
ATOM      4  C   UNL     1      45.214   6.117  12.137  0.00  0.00    +0.000 A 
ATOM      5  C   UNL     1      46.360   6.719  12.671  0.00  0.00    +0.000 A 
ATOM      6  C   UNL     1      47.140   5.955  13.541  0.00  0.00    +0.000 A 
ATOM      7  C   UNL     1      46.850   4.598  13.667  0.00  0.00    +0.000 A 
ATOM      8  N   UNL     1      45.850   3.926  13.024  0.00  0.00    +0.000 NA
ATOM      9  C   UNL     1      45.035   4.743  12.323  0.00  0.00    +0.000 A 
ENDROOT
BRANCH   6  10
ATOM     10  C   UNL     1      48.193   6.601  14.392  0.00  0.00    +0.000 C 
ATOM     11  F   UNL     1      47.874   7.872  14.772  0.00  0.00    +0.000 F 
ATOM     12  F   UNL     1      48.411   5.919  15.550  0.00  0.00    +0.000 F 
ATOM     13  F   UNL     1      49.399   6.693  13.771  0.00  0.00    +0.000 F 
ENDBRANCH   6  10
BRANCH   1  14
ATOM     14  C   UNL     1      43.813   3.536  10.457  0.00  0.00    +0.000 C 
BRANCH  14  18
ATOM     15  C   UNL     1      46.632   2.722   7.424  0.00  0.00    +0.000 A 
ATOM     16  C   UNL     1      46.374   4.068   7.665  0.00  0.00    +0.000 A 
ATOM     17  C   UNL     1      45.504   4.412   8.707  0.00  0.00    +0.000 A 
ATOM     18  C   UNL     1      44.930   3.403   9.471  0.00  0.00    +0.000 A 
ATOM     19  C   UNL     1      45.286   2.081   9.158  0.00  0.00    +0.000 A 
ATOM     20  N   UNL     1      46.117   1.712   8.168  0.00  0.00    +0.000 NA
BRANCH  15  22
ATOM     21  N   UNL     1      47.292   3.025   5.114  0.00  0.00    +0.000 N 
ATOM     22  C   UNL     1      47.467   2.299   6.264  0.00  0.00    +0.000 C 
ATOM     23  O   UNL     1      48.270   1.391   6.315  0.00  0.00    +0.000 OA
ATOM     24  H   UNL     1      47.841   2.830   4.291  0.00  0.00    +0.000 HD
ATOM     25  H   UNL     1      46.629   3.802   5.112  0.00  0.00    +0.000 HD
ENDBRANCH  15  22
ENDBRANCH  14  18
ENDBRANCH   1  14
TORSDOF 4
ENDMDL
MODEL 2
REMARK VINA RESULT:    -8.062      4.124      6.852
REMARK INTER + INTRA:         -10.853
REMARK INTER:                 -10.465
REMARK INTRA:                  -0.387
REMARK UNBOUND:                -0.906
REMARK  Name = 
REMARK  4 active torsions:
REMARK  status: ('A' for Active; 'I' for Inactive)
REMARK    1  A    between atoms: C_2  and  C_4
REMARK    2  A    between atoms: C_7  and  C_8
REMARK    3  A    between atoms: C_8  and  N_9
REMARK    4  A    between atoms: C_14  and  C_15
REMARK                            x       y       z     vdW  Elec       q    Type
REMARK                         _______ _______ _______ _____ _____    ______ ____
ROOT
ATOM      1  N   UNL     1      44.155   5.136  10.082  0.00  0.00    +0.000 N 
ATOM      2  C   UNL     1      43.204   4.237  10.584  0.00  0.00    +0.000 A 
ATOM      3  C   UNL     1      43.847   3.021  10.675  0.00  0.00    +0.000 A 
ATOM      4  C   UNL     1      44.869   3.056   9.704  0.00  0.00    +0.000 A 
ATOM      5  C   UNL     1      45.666   2.078   9.097  0.00  0.00    +0.000 A 
ATOM      6  C   UNL     1      46.381   2.450   7.957  0.00  0.00    +0.000 A 
ATOM      7  C   UNL     1      46.417   3.800   7.613  0.00  0.00    +0.000 A 
ATOM      8  N   UNL     1      45.800   4.817   8.282  0.00  0.00    +0.000 NA
ATOM      9  C   UNL     1      45.000   4.382   9.278  0.00  0.00    +0.000 A 
ENDROOT
BRANCH   6  10
ATOM     10  C   UNL     1      47.004   1.412   7.072  0.00  0.00    +0.000 C 
ATOM     11  F   UNL     1      46.603   0.141   7.366  0.00  0.00    +0.000 F 
ATOM     12  F   UNL     1      46.694   1.597   5.759  0.00  0.00    +0.000 F 
ATOM     13  F   UNL     1      48.362   1.394   7.143  0.00  0.00    +0.000 F 
ENDBRANCH   6  10
BRANCH   1  14
ATOM     14  C   UNL     1      44.600   6.148  11.053  0.00  0.00    +0.000 C 
BRANCH  14  18
ATOM     15  C   UNL     1      46.791   4.708  14.361  0.00  0.00    +0.000 A 
ATOM     16  C   UNL     1      47.500   5.501  13.464  0.00  0.00    +0.000 A 
ATOM     17  C   UNL     1      46.818   6.071  12.382  0.00  0.00    +0.000 A 
ATOM     18  C   UNL     1      45.455   5.837  12.240  0.00  0.00    +0.000 A 
ATOM     19  C   UNL     1      44.836   5.048  13.224  0.00  0.00    +0.000 A 
ATOM     20  N   UNL     1      45.456   4.484  14.274  0.00  0.00    +0.000 NA
BRANCH  15  22
ATOM     21  N   UNL     1      47.607   4.696  16.640  0.00  0.00    +0.000 N 
ATOM     22  C   UNL     1      47.488   3.994  15.468  0.00  0.00    +0.000 C 
ATOM     23  O   UNL     1      47.910   2.861  15.371  0.00  0.00    +0.000 OA
ATOM     24  H   UNL     1      48.034   4.276  17.453  0.00  0.00    +0.000 HD
ATOM     25  H   UNL     1      47.216   5.637  16.699  0.00  0.00    +0.000 HD
ENDBRANCH  15  22
ENDBRANCH  14  18
ENDBRANCH   1  14
TORSDOF 4
ENDMDL
MODEL 3
REMARK VINA RESULT:    -7.969      4.239      6.969
REMARK INTER + INTRA:         -10.738
REMARK INTER:                  -9.899
REMARK INTRA:                  -0.838
REMARK UNBOUND:                -0.906
REMARK  Name = 
REMARK  4 active torsions:
REMARK  status: ('A' for Active; 'I' for Inactive)
REMARK    1  A    between atoms: C_2  and  C_4
REMARK    2  A    between atoms: C_7  and  C_8
REMARK    3  A    between atoms: C_8  and  N_9
REMARK    4  A    between atoms: C_14  and  C_15
REMARK                            x       y       z     vdW  Elec       q    Type
REMARK                         _______ _______ _______ _____ _____    ______ ____
ROOT
ATOM      1  N   UNL     1      43.970   5.023  10.398  0.00  0.00    +0.000 N 
ATOM      2  C   UNL     1      43.113   4.030  10.895  0.00  0.00    +0.000 A 
ATOM      3  C   UNL     1      43.851   2.866  10.904  0.00  0.00    +0.000 A 
ATOM      4  C   UNL     1      44.824   3.023   9.896  0.00  0.00    +0.000 A 
ATOM      5  C   UNL     1      45.668   2.138   9.214  0.00  0.00    +0.000 A 
ATOM      6  C   UNL     1      46.303   2.613   8.065  0.00  0.00    +0.000 A 
ATOM      7  C   UNL     1      46.219   3.975   7.782  0.00  0.00    +0.000 A 
ATOM      8  N   UNL     1      45.556   4.912   8.521  0.00  0.00    +0.000 NA
ATOM      9  C   UNL     1      44.835   4.372   9.527  0.00  0.00    +0.000 A 
ENDROOT
BRANCH   6  10
ATOM     10  C   UNL     1      46.964   1.666   7.109  0.00  0.00    +0.000 C 
ATOM     11  F   UNL     1      48.327   1.691   7.181  0.00  0.00    +0.000 F 
ATOM     12  F   UNL     1      46.611   0.371   7.336  0.00  0.00    +0.000 F 
ATOM     13  F   UNL     1      46.660   1.921   5.808  0.00  0.00    +0.000 F 
ENDBRANCH   6  10
BRANCH   1  14
ATOM     14  C   UNL     1      44.377   6.023  11.397  0.00  0.00    +0.000 C 
BRANCH  14  18
ATOM     15  C   UNL     1      47.622   6.148  14.092  0.00  0.00    +0.000 A 
ATOM     16  C   UNL     1      46.866   4.980  14.109  0.00  0.00    +0.000 A 
ATOM     17  C   UNL     1      45.819   4.841  13.190  0.00  0.00    +0.000 A 
ATOM     18  C   UNL     1      45.569   5.868  12.286  0.00  0.00    +0.000 A 
ATOM     19  C   UNL     1      46.416   6.987  12.339  0.00  0.00    +0.000 A 
ATOM     20  N   UNL     1      47.430   7.156  13.205  0.00  0.00    +0.000 NA
BRANCH  15  22
ATOM     21  N   UNL     1      48.324   6.111  16.409  0.00  0.00    +0.000 N 
ATOM     22  C   UNL     1      48.680   6.391  15.115  0.00  0.00    +0.000 C 
ATOM     23  O   UNL     1      49.793   6.787  14.843  0.00  0.00    +0.000 OA
ATOM     24  H   UNL     1      48.989   6.212  17.161  0.00  0.00    +0.000 HD
ATOM     25  H   UNL     1      47.388   5.751  16.601  0.00  0.00    +0.000 HD
ENDBRANCH  15  22
ENDBRANCH  14  18
ENDBRANCH   1  14
TORSDOF 4
ENDMDL
MODEL 4
REMARK VINA RESULT:    -7.602      1.630      2.048
REMARK INTER + INTRA:         -10.285
REMARK INTER:                  -9.760
REMARK INTRA:                  -0.525
REMARK UNBOUND:                -0.906
REMARK  Name = 
REMARK  4 active torsions:
REMARK  status: ('A' for Active; 'I' for Inactive)
REMARK    1  A    between atoms: C_2  and  C_4
REMARK    2  A    between atoms: C_7  and  C_8
REMARK    3  A    between atoms: C_8  and  N_9
REMARK    4  A    between atoms: C_14  and  C_15
REMARK                            x       y       z     vdW  Elec       q    Type
REMARK                         _______ _______ _______ _____ _____    ______ ____
ROOT
ATOM      1  N   UNL     1      44.311   4.101  11.673  0.00  0.00    +0.000 N 
ATOM      2  C   UNL     1      43.392   4.143  12.731  0.00  0.00    +0.000 A 
ATOM      3  C   UNL     1      43.170   5.480  12.983  0.00  0.00    +0.000 A 
ATOM      4  C   UNL     1      44.338   6.147  12.561  0.00  0.00    +0.000 A 
ATOM      5  C   UNL     1      44.866   7.423  12.795  0.00  0.00    +0.000 A 
ATOM      6  C   UNL     1      46.200   7.640  12.444  0.00  0.00    +0.000 A 
ATOM      7  C   UNL     1      46.857   6.653  11.712  0.00  0.00    +0.000 A 
ATOM      8  N   UNL     1      46.324   5.465  11.304  0.00  0.00    +0.000 NA
ATOM      9  C   UNL     1      45.090   5.244  11.803  0.00  0.00    +0.000 A 
ENDROOT
BRANCH   6  10
ATOM     10  C   UNL     1      46.932   8.853  12.935  0.00  0.00    +0.000 C 
ATOM     11  F   UNL     1      46.319  10.026  12.601  0.00  0.00    +0.000 F 
ATOM     12  F   UNL     1      47.047   8.876  14.291  0.00  0.00    +0.000 F 
ATOM     13  F   UNL     1      48.198   8.947  12.444  0.00  0.00    +0.000 F 
ENDBRANCH   6  10
BRANCH   1  14
ATOM     14  C   UNL     1      43.749   3.606  10.406  0.00  0.00    +0.000 C 
BRANCH  14  18
ATOM     15  C   UNL     1      46.468   2.588   7.343  0.00  0.00    +0.000 A 
ATOM     16  C   UNL     1      46.023   1.532   8.133  0.00  0.00    +0.000 A 
ATOM     17  C   UNL     1      45.065   1.786   9.122  0.00  0.00    +0.000 A 
ATOM     18  C   UNL     1      44.581   3.080   9.280  0.00  0.00    +0.000 A 
ATOM     19  C   UNL     1      45.077   4.061   8.405  0.00  0.00    +0.000 A 
ATOM     20  N   UNL     1      45.996   3.855   7.446  0.00  0.00    +0.000 NA
BRANCH  15  22
ATOM     21  N   UNL     1      47.391   3.039   5.151  0.00  0.00    +0.000 N 
ATOM     22  C   UNL     1      47.560   2.392   6.348  0.00  0.00    +0.000 C 
ATOM     23  O   UNL     1      48.552   1.729   6.567  0.00  0.00    +0.000 OA
ATOM     24  H   UNL     1      48.098   2.990   4.433  0.00  0.00    +0.000 HD
ATOM     25  H   UNL     1      46.559   3.613   5.009  0.00  0.00    +0.000 HD
ENDBRANCH  15  22
ENDBRANCH  14  18
ENDBRANCH   1  14
TORSDOF 4
ENDMDL
MODEL 5
REMARK VINA RESULT:    -6.565      5.088      7.795
REMARK INTER + INTRA:          -9.006
REMARK INTER:                  -8.471
REMARK INTRA:                  -0.535
REMARK UNBOUND:                -0.906
REMARK  Name = 
REMARK  4 active torsions:
REMARK  status: ('A' for Active; 'I' for Inactive)
REMARK    1  A    between atoms: C_2  and  C_4
REMARK    2  A    between atoms: C_7  and  C_8
REMARK    3  A    between atoms: C_8  and  N_9
REMARK    4  A    between atoms: C_14  and  C_15
REMARK                            x       y       z     vdW  Elec       q    Type
REMARK                         _______ _______ _______ _____ _____    ______ ____
ROOT
ATOM      1  N   UNL     1      47.667   4.982  14.499  0.00  0.00    +0.000 N 
ATOM      2  C   UNL     1      47.956   6.310  14.153  0.00  0.00    +0.000 A 
ATOM      3  C   UNL     1      46.782   6.833  13.655  0.00  0.00    +0.000 A 
ATOM      4  C   UNL     1      46.061   5.735  13.144  0.00  0.00    +0.000 A 
ATOM      5  C   UNL     1      44.971   5.608  12.275  0.00  0.00    +0.000 A 
ATOM      6  C   UNL     1      44.703   4.338  11.761  0.00  0.00    +0.000 A 
ATOM      7  C   UNL     1      45.400   3.253  12.291  0.00  0.00    +0.000 A 
ATOM      8  N   UNL     1      46.348   3.307  13.272  0.00  0.00    +0.000 NA
ATOM      9  C   UNL     1      46.675   4.570  13.616  0.00  0.00    +0.000 A 
ENDROOT
BRANCH   6  10
ATOM     10  C   UNL     1      43.770   4.162  10.601  0.00  0.00    +0.000 C 
ATOM     11  F   UNL     1      44.320   4.526   9.406  0.00  0.00    +0.000 F 
ATOM     12  F   UNL     1      43.378   2.867  10.443  0.00  0.00    +0.000 F 
ATOM     13  F   UNL     1      42.629   4.893  10.718  0.00  0.00    +0.000 F 
ENDBRANCH   6  10
BRANCH   1  14
ATOM     14  C   UNL     1      47.664   4.723  15.947  0.00  0.00    +0.000 C 
BRANCH  14  18
ATOM     15  C   UNL     1      50.795   2.285  17.387  0.00  0.00    +0.000 A 
ATOM     16  C   UNL     1      50.778   3.593  17.862  0.00  0.00    +0.000 A 
ATOM     17  C   UNL     1      49.727   4.436  17.482  0.00  0.00    +0.000 A 
ATOM     18  C   UNL     1      48.728   3.942  16.650  0.00  0.00    +0.000 A 
ATOM     19  C   UNL     1      48.830   2.597  16.257  0.00  0.00    +0.000 A 
ATOM     20  N   UNL     1      49.823   1.758  16.601  0.00  0.00    +0.000 NA
BRANCH  15  22
ATOM     21  N   UNL     1      51.612   0.147  18.176  0.00  0.00    +0.000 N 
ATOM     22  C   UNL     1      51.943   1.380  17.676  0.00  0.00    +0.000 C 
ATOM     23  O   UNL     1      53.099   1.682  17.469  0.00  0.00    +0.000 OA
ATOM     24  H   UNL     1      52.323  -0.541  18.368  0.00  0.00    +0.000 HD
ATOM     25  H   UNL     1      50.627  -0.086  18.312  0.00  0.00    +0.000 HD
ENDBRANCH  15  22
ENDBRANCH  14  18
ENDBRANCH   1  14
TORSDOF 4
ENDMDL
MODEL 6
REMARK VINA RESULT:    -6.083      5.339      8.450
REMARK INTER + INTRA:          -8.411
REMARK INTER:                  -7.927
REMARK INTRA:                  -0.484
REMARK UNBOUND:                -0.906
REMARK  Name = 
REMARK  4 active torsions:
REMARK  status: ('A' for Active; 'I' for Inactive)
REMARK    1  A    between atoms: C_2  and  C_4
REMARK    2  A    between atoms: C_7  and  C_8
REMARK    3  A    between atoms: C_8  and  N_9
REMARK    4  A    between atoms: C_14  and  C_15
REMARK                            x       y       z     vdW  Elec       q    Type
REMARK                         _______ _______ _______ _____ _____    ______ ____
ROOT
ATOM      1  N   UNL     1      48.149   6.259  13.512  0.00  0.00    +0.000 N 
ATOM      2  C   UNL     1      48.689   6.902  12.390  0.00  0.00    +0.000 A 
ATOM      3  C   UNL     1      47.613   7.397  11.685  0.00  0.00    +0.000 A 
ATOM      4  C   UNL     1      46.527   6.559  12.010  0.00  0.00    +0.000 A 
ATOM      5  C   UNL     1      45.268   6.335  11.439  0.00  0.00    +0.000 A 
ATOM      6  C   UNL     1      44.560   5.211  11.867  0.00  0.00    +0.000 A 
ATOM      7  C   UNL     1      45.049   4.501  12.962  0.00  0.00    +0.000 A 
ATOM      8  N   UNL     1      46.182   4.790  13.667  0.00  0.00    +0.000 NA
ATOM      9  C   UNL     1      46.904   5.787  13.114  0.00  0.00    +0.000 A 
ENDROOT
BRANCH   6  10
ATOM     10  C   UNL     1      43.365   4.722  11.103  0.00  0.00    +0.000 C 
ATOM     11  F   UNL     1      42.996   3.450  11.434  0.00  0.00    +0.000 F 
ATOM     12  F   UNL     1      42.262   5.490  11.321  0.00  0.00    +0.000 F 
ATOM     13  F   UNL     1      43.561   4.710   9.757  0.00  0.00    +0.000 F 
ENDBRANCH   6  10
BRANCH   1  14
ATOM     14  C   UNL     1      48.422   6.940  14.787  0.00  0.00    +0.000 C 
BRANCH  14  18
ATOM     15  C   UNL     1      48.702   5.395  18.705  0.00  0.00    +0.000 A 
ATOM     16  C   UNL     1      48.270   4.500  17.731  0.00  0.00    +0.000 A 
ATOM     17  C   UNL     1      48.223   4.925  16.397  0.00  0.00    +0.000 A 
ATOM     18  C   UNL     1      48.615   6.222  16.085  0.00  0.00    +0.000 A 
ATOM     19  C   UNL     1      49.063   7.028  17.144  0.00  0.00    +0.000 A 
ATOM     20  N   UNL     1      49.123   6.656  18.435  0.00  0.00    +0.000 NA
BRANCH  15  22
ATOM     21  N   UNL     1      48.524   3.691  20.415  0.00  0.00    +0.000 N 
ATOM     22  C   UNL     1      48.672   5.028  20.149  0.00  0.00    +0.000 C 
ATOM     23  O   UNL     1      48.791   5.835  21.046  0.00  0.00    +0.000 OA
ATOM     24  H   UNL     1      48.528   3.349  21.364  0.00  0.00    +0.000 HD
ATOM     25  H   UNL     1      48.455   3.033  19.637  0.00  0.00    +0.000 HD
ENDBRANCH  15  22
ENDBRANCH  14  18
ENDBRANCH   1  14
TORSDOF 4
ENDMDL
MODEL 7
REMARK VINA RESULT:    -5.923      4.979      7.908
REMARK INTER + INTRA:          -8.214
REMARK INTER:                  -7.674
REMARK INTRA:                  -0.540
REMARK UNBOUND:                -0.906
REMARK  Name = 
REMARK  4 active torsions:
REMARK  status: ('A' for Active; 'I' for Inactive)
REMARK    1  A    between atoms: C_2  and  C_4
REMARK    2  A    between atoms: C_7  and  C_8
REMARK    3  A    between atoms: C_8  and  N_9
REMARK    4  A    between atoms: C_14  and  C_15
REMARK                            x       y       z     vdW  Elec       q    Type
REMARK                         _______ _______ _______ _____ _____    ______ ____
ROOT
ATOM      1  N   UNL     1      48.038   6.466  13.445  0.00  0.00    +0.000 N 
ATOM      2  C   UNL     1      48.446   7.234  12.346  0.00  0.00    +0.000 A 
ATOM      3  C   UNL     1      47.288   7.675  11.743  0.00  0.00    +0.000 A 
ATOM      4  C   UNL     1      46.303   6.720  12.065  0.00  0.00    +0.000 A 
ATOM      5  C   UNL     1      45.035   6.422  11.551  0.00  0.00    +0.000 A 
ATOM      6  C   UNL     1      44.457   5.209  11.932  0.00  0.00    +0.000 A 
ATOM      7  C   UNL     1      45.075   4.472  12.940  0.00  0.00    +0.000 A 
ATOM      8  N   UNL     1      46.220   4.814  13.599  0.00  0.00    +0.000 NA
ATOM      9  C   UNL     1      46.816   5.910  13.083  0.00  0.00    +0.000 A 
ENDROOT
BRANCH   6  10
ATOM     10  C   UNL     1      43.264   4.667  11.203  0.00  0.00    +0.000 C 
ATOM     11  F   UNL     1      42.972   3.374  11.529  0.00  0.00    +0.000 F 
ATOM     12  F   UNL     1      42.130   5.374  11.467  0.00  0.00    +0.000 F 
ATOM     13  F   UNL     1      43.413   4.681   9.851  0.00  0.00    +0.000 F 
ENDBRANCH   6  10
BRANCH   1  14
ATOM     14  C   UNL     1      48.330   7.077  14.751  0.00  0.00    +0.000 C 
BRANCH  14  18
ATOM     15  C   UNL     1      50.588   4.723  17.428  0.00  0.00    +0.000 A 
ATOM     16  C   UNL     1      51.200   5.892  16.986  0.00  0.00    +0.000 A 
ATOM     17  C   UNL     1      50.480   6.757  16.153  0.00  0.00    +0.000 A 
ATOM     18  C   UNL     1      49.176   6.427  15.798  0.00  0.00    +0.000 A 
ATOM     19  C   UNL     1      48.650   5.238  16.329  0.00  0.00    +0.000 A 
ATOM     20  N   UNL     1      49.309   4.384  17.131  0.00  0.00    +0.000 NA
BRANCH  15  22
ATOM     21  N   UNL     1      51.620   4.083  19.523  0.00  0.00    +0.000 N 
ATOM     22  C   UNL     1      51.344   3.719  18.230  0.00  0.00    +0.000 C 
ATOM     23  O   UNL     1      51.684   2.638  17.798  0.00  0.00    +0.000 OA
ATOM     24  H   UNL     1      52.097   3.451  20.148  0.00  0.00    +0.000 HD
ATOM     25  H   UNL     1      51.295   4.989  19.865  0.00  0.00    +0.000 HD
ENDBRANCH  15  22
ENDBRANCH  14  18
ENDBRANCH   1  14
TORSDOF 4
ENDMDL
MODEL 8
REMARK VINA RESULT:    -5.727      5.920      8.700
REMARK INTER + INTRA:          -7.972
REMARK INTER:                  -7.650
REMARK INTRA:                  -0.322
REMARK UNBOUND:                -0.906
REMARK  Name = 
REMARK  4 active torsions:
REMARK  status: ('A' for Active; 'I' for Inactive)
REMARK    1  A    between atoms: C_2  and  C_4
REMARK    2  A    between atoms: C_7  and  C_8
REMARK    3  A    between atoms: C_8  and  N_9
REMARK    4  A    between atoms: C_14  and  C_15
REMARK                            x       y       z     vdW  Elec       q    Type
REMARK                         _______ _______ _______ _____ _____    ______ ____
ROOT
ATOM      1  N   UNL     1      49.025   5.439  17.673  0.00  0.00    +0.000 N 
ATOM      2  C   UNL     1      48.083   4.814  18.501  0.00  0.00    +0.000 A 
ATOM      3  C   UNL     1      47.424   3.904  17.702  0.00  0.00    +0.000 A 
ATOM      4  C   UNL     1      47.516   4.412  16.390  0.00  0.00    +0.000 A 
ATOM      5  C   UNL     1      46.839   4.142  15.195  0.00  0.00    +0.000 A 
ATOM      6  C   UNL     1      46.998   5.052  14.147  0.00  0.00    +0.000 A 
ATOM      7  C   UNL     1      47.963   6.049  14.282  0.00  0.00    +0.000 A 
ATOM      8  N   UNL     1      48.776   6.241  15.361  0.00  0.00    +0.000 NA
ATOM      9  C   UNL     1      48.470   5.435  16.399  0.00  0.00    +0.000 A 
ENDROOT
BRANCH   6  10
ATOM     10  C   UNL     1      46.085   5.018  12.959  0.00  0.00    +0.000 C 
ATOM     11  F   UNL     1      44.861   5.570  13.203  0.00  0.00    +0.000 F 
ATOM     12  F   UNL     1      46.590   5.706  11.898  0.00  0.00    +0.000 F 
ATOM     13  F   UNL     1      45.837   3.757  12.511  0.00  0.00    +0.000 F 
ENDBRANCH   6  10
BRANCH   1  14
ATOM     14  C   UNL     1      50.422   5.096  17.983  0.00  0.00    +0.000 C 
BRANCH  14  18
ATOM     15  C   UNL     1      52.451   1.411  17.645  0.00  0.00    +0.000 A 
ATOM     16  C   UNL     1      51.094   1.385  17.338  0.00  0.00    +0.000 A 
ATOM     17  C   UNL     1      50.374   2.586  17.359  0.00  0.00    +0.000 A 
ATOM     18  C   UNL     1      51.036   3.767  17.678  0.00  0.00    +0.000 A 
ATOM     19  C   UNL     1      52.413   3.679  17.938  0.00  0.00    +0.000 A 
ATOM     20  N   UNL     1      53.137   2.546  17.927  0.00  0.00    +0.000 NA
BRANCH  15  22
ATOM     21  N   UNL     1      53.845  -0.256  16.577  0.00  0.00    +0.000 N 
ATOM     22  C   UNL     1      53.239   0.149  17.738  0.00  0.00    +0.000 C 
ATOM     23  O   UNL     1      53.369  -0.483  18.765  0.00  0.00    +0.000 OA
ATOM     24  H   UNL     1      54.426  -1.080  16.557  0.00  0.00    +0.000 HD
ATOM     25  H   UNL     1      53.739   0.314  15.736  0.00  0.00    +0.000 HD
ENDBRANCH  15  22
ENDBRANCH  14  18
ENDBRANCH   1  14
TORSDOF 4
ENDMDL
MODEL 9
REMARK VINA RESULT:    -5.540      5.503      8.476
REMARK INTER + INTRA:          -7.741
REMARK INTER:                  -6.855
REMARK INTRA:                  -0.886
REMARK UNBOUND:                -0.906
REMARK  Name = 
REMARK  4 active torsions:
REMARK  status: ('A' for Active; 'I' for Inactive)
REMARK    1  A    between atoms: C_2  and  C_4
REMARK    2  A    between atoms: C_7  and  C_8
REMARK    3  A    between atoms: C_8  and  N_9
REMARK    4  A    between atoms: C_14  and  C_15
REMARK                            x       y       z     vdW  Elec       q    Type
REMARK                         _______ _______ _______ _____ _____    ______ ____
ROOT
ATOM      1  N   UNL     1      48.759   6.835  13.086  0.00  0.00    +0.000 N 
ATOM      2  C   UNL     1      48.573   7.831  12.117  0.00  0.00    +0.000 A 
ATOM      3  C   UNL     1      47.236   8.159  12.165  0.00  0.00    +0.000 A 
ATOM      4  C   UNL     1      46.578   7.009  12.647  0.00  0.00    +0.000 A 
ATOM      5  C   UNL     1      45.243   6.585  12.655  0.00  0.00    +0.000 A 
ATOM      6  C   UNL     1      44.997   5.245  12.963  0.00  0.00    +0.000 A 
ATOM      7  C   UNL     1      46.057   4.471  13.431  0.00  0.00    +0.000 A 
ATOM      8  N   UNL     1      47.343   4.893  13.612  0.00  0.00    +0.000 NA
ATOM      9  C   UNL     1      47.555   6.144  13.152  0.00  0.00    +0.000 A 
ENDROOT
BRANCH   6  10
ATOM     10  C   UNL     1      43.655   4.633  12.696  0.00  0.00    +0.000 C 
ATOM     11  F   UNL     1      43.294   4.677  11.380  0.00  0.00    +0.000 F 
ATOM     12  F   UNL     1      43.608   3.317  13.043  0.00  0.00    +0.000 F 
ATOM     13  F   UNL     1      42.646   5.242  13.375  0.00  0.00    +0.000 F 
ENDBRANCH   6  10
BRANCH   1  14
ATOM     14  C   UNL     1      49.546   7.266  14.251  0.00  0.00    +0.000 C 
BRANCH  14  18
ATOM     15  C   UNL     1      48.476   7.426  18.330  0.00  0.00    +0.000 A 
ATOM     16  C   UNL     1      48.162   8.553  17.578  0.00  0.00    +0.000 A 
ATOM     17  C   UNL     1      48.423   8.540  16.202  0.00  0.00    +0.000 A 
ATOM     18  C   UNL     1      48.980   7.403  15.629  0.00  0.00    +0.000 A 
ATOM     19  C   UNL     1      49.226   6.312  16.479  0.00  0.00    +0.000 A 
ATOM     20  N   UNL     1      48.989   6.287  17.801  0.00  0.00    +0.000 NA
BRANCH  15  22
ATOM     21  N   UNL     1      49.256   6.711  20.508  0.00  0.00    +0.000 N 
ATOM     22  C   UNL     1      48.315   7.425  19.812  0.00  0.00    +0.000 C 
ATOM     23  O   UNL     1      47.433   8.026  20.389  0.00  0.00    +0.000 OA
ATOM     24  H   UNL     1      49.244   6.686  21.516  0.00  0.00    +0.000 HD
ATOM     25  H   UNL     1      50.003   6.240  19.995  0.00  0.00    +0.000 HD
ENDBRANCH  15  22
ENDBRANCH  14  18
ENDBRANCH   1  14
TORSDOF 4
ENDMDL
