MODEL 1
REMARK VINA RESULT:    -8.692      0.000      0.000
REMARK INTER + INTRA:         -10.795
REMARK INTER:                 -10.216
REMARK INTRA:                  -0.579
REMARK UNBOUND:                -0.579
REMARK  Name = 
REMARK  3 active torsions:
REMARK  status: ('A' for Active; 'I' for Inactive)
REMARK    1  A    between atoms: C_2  and  C_4
REMARK    2  A    between atoms: N_8  and  C_9
REMARK    3  A    between atoms: C_9  and  C_10
REMARK                            x       y       z     vdW  Elec       q    Type
REMARK                         _______ _______ _______ _____ _____    ______ ____
ROOT
ATOM      1  C   UNL     1      46.545   2.683   7.508  0.00  0.00    +0.000 A 
ATOM      2  C   UNL     1      46.180   4.021   7.621  0.00  0.00    +0.000 A 
ATOM      3  C   UNL     1      45.321   4.412   8.653  0.00  0.00    +0.000 A 
ATOM      4  C   UNL     1      44.833   3.460   9.542  0.00  0.00    +0.000 A 
ATOM      5  N   UNL     1      43.891   3.745  10.531  0.00  0.00    +0.000 N 
ATOM      6  N   UNL     1      45.181   2.157   9.436  0.00  0.00    +0.000 NA
ATOM      7  C   UNL     1      46.019   1.795   8.432  0.00  0.00    +0.000 A 
ATOM      8  H   UNL     1      43.769   2.874  11.048  0.00  0.00    +0.000 HD
ENDROOT
BRANCH   1  10
ATOM      9  N   UNL     1      47.684   3.010   5.384  0.00  0.00    +0.000 N 
ATOM     10  C   UNL     1      47.420   2.172   6.432  0.00  0.00    +0.000 C 
ATOM     11  O   UNL     1      47.909   1.051   6.485  0.00  0.00    +0.000 OA
ATOM     12  H   UNL     1      48.351   2.678   4.700  0.00  0.00    +0.000 HD
ATOM     13  H   UNL     1      47.502   4.003   5.416  0.00  0.00    +0.000 HD
ENDBRANCH   1  10
BRANCH   5  14
ATOM     14  C   UNL     1      43.851   4.983  11.323  0.00  0.00    +0.000 C 
ATOM     15  C   UNL     1      42.562   5.187  12.113  0.00  0.00    +0.000 C 
ATOM     16  C   UNL     1      42.911   6.134  11.015  0.00  0.00    +0.000 C 
BRANCH  14  17
ATOM     17  C   UNL     1      45.177   5.314  12.006  0.00  0.00    +0.000 A 
ATOM     18  C   UNL     1      46.008   6.351  11.539  0.00  0.00    +0.000 A 
ATOM     19  C   UNL     1      47.207   6.673  12.180  0.00  0.00    +0.000 A 
ATOM     20  C   UNL     1      47.595   5.962  13.309  0.00  0.00    +0.000 A 
ATOM     21  F   UNL     1      48.744   6.289  13.915  0.00  0.00    +0.000 F 
ATOM     22  C   UNL     1      46.797   4.932  13.797  0.00  0.00    +0.000 A 
ATOM     23 CL   UNL     1      47.266   4.042  15.194  0.00  0.00    +0.000 Cl
ATOM     24  C   UNL     1      45.601   4.611  13.150  0.00  0.00    +0.000 A 
ENDBRANCH  14  17
ENDBRANCH   5  14
TORSDOF 3
ENDMDL
MODEL 2
REMARK VINA RESULT:    -6.940      4.211      6.396
REMARK INTER + INTRA:          -8.736
REMARK INTER:                  -8.328
REMARK INTRA:                  -0.407
REMARK UNBOUND:                -0.579
REMARK  Name = 
REMARK  3 active torsions:
REMARK  status: ('A' for Active; 'I' for Inactive)
REMARK    1  A    between atoms: C_2  and  C_4
REMARK    2  A    between atoms: N_8  and  C_9
REMARK    3  A    between atoms: C_9  and  C_10
REMARK                            x       y       z     vdW  Elec       q    Type
REMARK                         _______ _______ _______ _____ _____    ______ ____
ROOT
ATOM      1  C   UNL     1      48.147   6.625  13.488  0.00  0.00    +0.000 A 
ATOM      2  C   UNL     1      47.536   5.414  13.795  0.00  0.00    +0.000 A 
ATOM      3  C   UNL     1      46.487   4.952  12.995  0.00  0.00    +0.000 A 
ATOM      4  C   UNL     1      46.059   5.714  11.913  0.00  0.00    +0.000 A 
ATOM      5  N   UNL     1      44.954   5.382  11.128  0.00  0.00    +0.000 N 
ATOM      6  N   UNL     1      46.647   6.895  11.609  0.00  0.00    +0.000 NA
ATOM      7  C   UNL     1      47.667   7.325  12.393  0.00  0.00    +0.000 A 
ATOM      8  H   UNL     1      44.920   6.089  10.394  0.00  0.00    +0.000 HD
ENDROOT
BRANCH   1  10
ATOM      9  N   UNL     1      49.712   8.437  13.921  0.00  0.00    +0.000 N 
ATOM     10  C   UNL     1      49.241   7.207  14.294  0.00  0.00    +0.000 C 
ATOM     11  O   UNL     1      49.694   6.626  15.271  0.00  0.00    +0.000 OA
ATOM     12  H   UNL     1      50.400   8.859  14.531  0.00  0.00    +0.000 HD
ATOM     13  H   UNL     1      49.217   9.044  13.284  0.00  0.00    +0.000 HD
ENDBRANCH   1  10
BRANCH   5  14
ATOM     14  C   UNL     1      44.583   4.016  10.734  0.00  0.00    +0.000 C 
ATOM     15  C   UNL     1      43.112   3.673  10.946  0.00  0.00    +0.000 C 
ATOM     16  C   UNL     1      44.157   2.952  11.728  0.00  0.00    +0.000 C 
BRANCH  14  17
ATOM     17  C   UNL     1      45.254   3.550   9.442  0.00  0.00    +0.000 A 
ATOM     18  C   UNL     1      45.635   4.463   8.439  0.00  0.00    +0.000 A 
ATOM     19  C   UNL     1      46.275   4.041   7.270  0.00  0.00    +0.000 A 
ATOM     20  C   UNL     1      46.549   2.691   7.087  0.00  0.00    +0.000 A 
ATOM     21  F   UNL     1      47.169   2.305   5.963  0.00  0.00    +0.000 F 
ATOM     22  C   UNL     1      46.185   1.763   8.058  0.00  0.00    +0.000 A 
ATOM     23 CL   UNL     1      46.518   0.088   7.842  0.00  0.00    +0.000 Cl
ATOM     24  C   UNL     1      45.544   2.189   9.223  0.00  0.00    +0.000 A 
ENDBRANCH  14  17
ENDBRANCH   5  14
TORSDOF 3
ENDMDL
MODEL 3
REMARK VINA RESULT:    -6.255      4.464      6.709
REMARK INTER + INTRA:          -7.931
REMARK INTER:                  -8.278
REMARK INTRA:                   0.347
REMARK UNBOUND:                -0.579
REMARK  Name = 
REMARK  3 active torsions:
REMARK  status: ('A' for Active; 'I' for Inactive)
REMARK    1  A    between atoms: C_2  and  C_4
REMARK    2  A    between atoms: N_8  and  C_9
REMARK    3  A    between atoms: C_9  and  C_10
REMARK                            x       y       z     vdW  Elec       q    Type
REMARK                         _______ _______ _______ _____ _____    ______ ____
ROOT
ATOM      1  C   UNL     1      48.441   5.914  15.523  0.00  0.00    +0.000 A 
ATOM      2  C   UNL     1      48.122   6.345  14.240  0.00  0.00    +0.000 A 
ATOM      3  C   UNL     1      47.125   5.678  13.521  0.00  0.00    +0.000 A 
ATOM      4  C   UNL     1      46.477   4.587  14.090  0.00  0.00    +0.000 A 
ATOM      5  N   UNL     1      45.549   3.801  13.406  0.00  0.00    +0.000 N 
ATOM      6  N   UNL     1      46.784   4.160  15.337  0.00  0.00    +0.000 NA
ATOM      7  C   UNL     1      47.750   4.822  16.023  0.00  0.00    +0.000 A 
ATOM      8  H   UNL     1      45.214   3.121  14.088  0.00  0.00    +0.000 HD
ENDROOT
BRANCH   1  10
ATOM      9  N   UNL     1      49.130   7.540  17.196  0.00  0.00    +0.000 N 
ATOM     10  C   UNL     1      49.501   6.535  16.345  0.00  0.00    +0.000 C 
ATOM     11  O   UNL     1      50.662   6.154  16.285  0.00  0.00    +0.000 OA
ATOM     12  H   UNL     1      49.849   7.897  17.811  0.00  0.00    +0.000 HD
ATOM     13  H   UNL     1      48.168   7.719  17.447  0.00  0.00    +0.000 HD
ENDBRANCH   1  10
BRANCH   5  14
ATOM     14  C   UNL     1      44.553   4.313  12.454  0.00  0.00    +0.000 C 
ATOM     15  C   UNL     1      43.901   5.628  12.868  0.00  0.00    +0.000 C 
ATOM     16  C   UNL     1      43.071   4.394  12.769  0.00  0.00    +0.000 C 
BRANCH  14  17
ATOM     17  C   UNL     1      44.958   4.136  10.992  0.00  0.00    +0.000 A 
ATOM     18  C   UNL     1      45.340   5.234  10.195  0.00  0.00    +0.000 A 
ATOM     19  C   UNL     1      45.738   5.069   8.865  0.00  0.00    +0.000 A 
ATOM     20  C   UNL     1      45.765   3.796   8.309  0.00  0.00    +0.000 A 
ATOM     21  F   UNL     1      46.156   3.656   7.035  0.00  0.00    +0.000 F 
ATOM     22  C   UNL     1      45.394   2.691   9.068  0.00  0.00    +0.000 A 
ATOM     23 CL   UNL     1      45.421   1.109   8.391  0.00  0.00    +0.000 Cl
ATOM     24  C   UNL     1      44.993   2.861  10.396  0.00  0.00    +0.000 A 
ENDBRANCH  14  17
ENDBRANCH   5  14
TORSDOF 3
ENDMDL
