MODEL 1
REMARK VINA RESULT:    -8.224      0.000      0.000
REMARK INTER + INTRA:         -12.362
REMARK INTER:                 -11.109
REMARK INTRA:                  -1.252
REMARK UNBOUND:                -1.252
REMARK  Name = 
REMARK  6 active torsions:
REMARK  status: ('A' for Active; 'I' for Inactive)
REMARK    1  A    between atoms: C_2  and  C_26
REMARK    2  A    between atoms: N_3  and  C_4
REMARK    3  A    between atoms: C_4  and  C_5
REMARK    4  A    between atoms: C_8  and  C_9
REMARK    5  A    between atoms: C_9  and  N_10
REMARK    6  A    between atoms: C_11  and  C_13
REMARK                            x       y       z     vdW  Elec       q    Type
REMARK                         _______ _______ _______ _____ _____    ______ ____
ROOT
ATOM      1  C   UNL     1      45.094   5.526  10.734  0.00  0.00    +0.000 A 
ATOM      2  C   UNL     1      44.460   5.909  11.926  0.00  0.00    +0.000 A 
ATOM      3  C   UNL     1      45.107   6.740  12.846  0.00  0.00    +0.000 A 
ATOM      4  C   UNL     1      46.404   7.205  12.598  0.00  0.00    +0.000 A 
ATOM      5  C   UNL     1      47.017   6.846  11.397  0.00  0.00    +0.000 A 
ATOM      6  F   UNL     1      48.251   7.290  11.116  0.00  0.00    +0.000 F 
ATOM      7  C   UNL     1      46.376   6.022  10.470  0.00  0.00    +0.000 A 
ENDROOT
BRANCH   1   8
ATOM      8  C   UNL     1      44.399   4.613   9.755  0.00  0.00    +0.000 C 
BRANCH   8  11
ATOM      9  O   UNL     1      44.860   1.908   9.280  0.00  0.00    +0.000 OA
ATOM     10  C   UNL     1      45.470   2.732   8.604  0.00  0.00    +0.000 C 
ATOM     11  N   UNL     1      45.313   4.090   8.770  0.00  0.00    +0.000 N 
ATOM     12  H   UNL     1      45.705   4.727   8.093  0.00  0.00    +0.000 HD
BRANCH  10  13
ATOM     13  C   UNL     1      46.381   2.342   7.560  0.00  0.00    +0.000 A 
ATOM     14  C   UNL     1      47.216   1.254   7.394  0.00  0.00    +0.000 A 
ATOM     15  N   UNL     1      47.903   1.323   6.210  0.00  0.00    +0.000 NA
ATOM     16  C   UNL     1      47.489   2.430   5.637  0.00  0.00    +0.000 A 
ATOM     17  N   UNL     1      46.568   3.075   6.408  0.00  0.00    +0.000 N 
ATOM     18  H   UNL     1      46.093   3.941   6.187  0.00  0.00    +0.000 HD
ENDBRANCH  10  13
ENDBRANCH   8  11
ENDBRANCH   1   8
BRANCH   4  19
ATOM     19  C   UNL     1      47.103   8.097  13.588  0.00  0.00    +0.000 C 
BRANCH  19  20
ATOM     20  N   UNL     1      47.541   7.361  14.748  0.00  0.00    +0.000 N 
ATOM     21  C   UNL     1      48.812   6.853  14.835  0.00  0.00    +0.000 C 
ATOM     22  O   UNL     1      49.640   7.016  13.943  0.00  0.00    +0.000 OA
ATOM     23  H   UNL     1      46.831   7.050  15.404  0.00  0.00    +0.000 HD
BRANCH  21  24
ATOM     24  C   UNL     1      49.152   6.149  16.078  0.00  0.00    +0.000 A 
ATOM     25  C   UNL     1      50.225   6.588  16.844  0.00  0.00    +0.000 A 
ATOM     26  S   UNL     1      50.453   5.691  18.277  0.00  0.00    +0.000 S 
ATOM     27  C   UNL     1      49.158   4.654  17.900  0.00  0.00    +0.000 A 
ATOM     28  N   UNL     1      48.823   3.626  18.725  0.00  0.00    +0.000 NA
ATOM     29  C   UNL     1      47.844   2.899  18.300  0.00  0.00    +0.000 A 
ATOM     30  N   UNL     1      47.165   3.111  17.129  0.00  0.00    +0.000 N 
ATOM     31  C   UNL     1      47.442   4.159  16.284  0.00  0.00    +0.000 A 
ATOM     32  O   UNL     1      46.774   4.356  15.273  0.00  0.00    +0.000 OA
ATOM     33  C   UNL     1      48.548   4.998  16.706  0.00  0.00    +0.000 A 
ATOM     34  H   UNL     1      46.399   2.511  16.862  0.00  0.00    +0.000 HD
ENDBRANCH  21  24
ENDBRANCH  19  20
ENDBRANCH   4  19
TORSDOF 6
ENDMDL
MODEL 2
REMARK VINA RESULT:    -7.661      2.276      2.662
REMARK INTER + INTRA:         -11.601
REMARK INTER:                 -10.556
REMARK INTRA:                  -1.044
REMARK UNBOUND:                -1.252
REMARK  Name = 
REMARK  6 active torsions:
REMARK  status: ('A' for Active; 'I' for Inactive)
REMARK    1  A    between atoms: C_2  and  C_26
REMARK    2  A    between atoms: N_3  and  C_4
REMARK    3  A    between atoms: C_4  and  C_5
REMARK    4  A    between atoms: C_8  and  C_9
REMARK    5  A    between atoms: C_9  and  N_10
REMARK    6  A    between atoms: C_11  and  C_13
REMARK                            x       y       z     vdW  Elec       q    Type
REMARK                         _______ _______ _______ _____ _____    ______ ____
ROOT
ATOM      1  C   UNL     1      45.197   5.256  11.300  0.00  0.00    +0.000 A 
ATOM      2  C   UNL     1      45.976   4.621  12.281  0.00  0.00    +0.000 A 
ATOM      3  C   UNL     1      46.858   5.355  13.081  0.00  0.00    +0.000 A 
ATOM      4  C   UNL     1      46.985   6.740  12.918  0.00  0.00    +0.000 A 
ATOM      5  C   UNL     1      46.186   7.369  11.963  0.00  0.00    +0.000 A 
ATOM      6  F   UNL     1      46.265   8.697  11.793  0.00  0.00    +0.000 F 
ATOM      7  C   UNL     1      45.298   6.645  11.164  0.00  0.00    +0.000 A 
ENDROOT
BRANCH   1   8
ATOM      8  C   UNL     1      44.264   4.456  10.428  0.00  0.00    +0.000 C 
BRANCH   8  11
ATOM      9  O   UNL     1      45.629   4.789   8.023  0.00  0.00    +0.000 OA
ATOM     10  C   UNL     1      45.612   3.673   8.535  0.00  0.00    +0.000 C 
ATOM     11  N   UNL     1      44.959   3.410   9.718  0.00  0.00    +0.000 N 
ATOM     12  H   UNL     1      45.103   2.527  10.185  0.00  0.00    +0.000 HD
BRANCH  10  13
ATOM     13  C   UNL     1      46.300   2.552   7.951  0.00  0.00    +0.000 A 
ATOM     14  C   UNL     1      47.311   2.449   7.015  0.00  0.00    +0.000 A 
ATOM     15  N   UNL     1      47.643   1.141   6.774  0.00  0.00    +0.000 NA
ATOM     16  C   UNL     1      46.861   0.438   7.562  0.00  0.00    +0.000 A 
ATOM     17  N   UNL     1      46.040   1.243   8.294  0.00  0.00    +0.000 N 
ATOM     18  H   UNL     1      45.355   0.947   8.977  0.00  0.00    +0.000 HD
ENDBRANCH  10  13
ENDBRANCH   8  11
ENDBRANCH   1   8
BRANCH   4  19
ATOM     19  C   UNL     1      47.934   7.531  13.776  0.00  0.00    +0.000 C 
BRANCH  19  20
ATOM     20  N   UNL     1      47.900   7.091  15.149  0.00  0.00    +0.000 N 
ATOM     21  C   UNL     1      49.037   6.682  15.797  0.00  0.00    +0.000 C 
ATOM     22  O   UNL     1      50.136   6.688  15.250  0.00  0.00    +0.000 OA
ATOM     23  H   UNL     1      46.992   6.894  15.558  0.00  0.00    +0.000 HD
BRANCH  21  24
ATOM     24  C   UNL     1      48.883   6.286  17.203  0.00  0.00    +0.000 A 
ATOM     25  C   UNL     1      49.237   5.002  17.598  0.00  0.00    +0.000 A 
ATOM     26  S   UNL     1      49.041   4.722  19.268  0.00  0.00    +0.000 S 
ATOM     27  C   UNL     1      48.429   6.290  19.516  0.00  0.00    +0.000 A 
ATOM     28  N   UNL     1      48.039   6.701  20.752  0.00  0.00    +0.000 NA
ATOM     29  C   UNL     1      47.563   7.901  20.790  0.00  0.00    +0.000 A 
ATOM     30  N   UNL     1      47.447   8.729  19.704  0.00  0.00    +0.000 N 
ATOM     31  C   UNL     1      47.864   8.372  18.443  0.00  0.00    +0.000 A 
ATOM     32  O   UNL     1      47.802   9.160  17.505  0.00  0.00    +0.000 OA
ATOM     33  C   UNL     1      48.392   7.024  18.343  0.00  0.00    +0.000 A 
ATOM     34  H   UNL     1      47.077   9.662  19.805  0.00  0.00    +0.000 HD
ENDBRANCH  21  24
ENDBRANCH  19  20
ENDBRANCH   4  19
TORSDOF 6
ENDMDL
MODEL 3
REMARK VINA RESULT:    -7.517      4.714      9.411
REMARK INTER + INTRA:         -11.406
REMARK INTER:                 -10.604
REMARK INTRA:                  -0.802
REMARK UNBOUND:                -1.252
REMARK  Name = 
REMARK  6 active torsions:
REMARK  status: ('A' for Active; 'I' for Inactive)
REMARK    1  A    between atoms: C_2  and  C_26
REMARK    2  A    between atoms: N_3  and  C_4
REMARK    3  A    between atoms: C_4  and  C_5
REMARK    4  A    between atoms: C_8  and  C_9
REMARK    5  A    between atoms: C_9  and  N_10
REMARK    6  A    between atoms: C_11  and  C_13
REMARK                            x       y       z     vdW  Elec       q    Type
REMARK                         _______ _______ _______ _____ _____    ______ ____
ROOT
ATOM      1  C   UNL     1      51.371   2.939  17.747  0.00  0.00    +0.000 A 
ATOM      2  C   UNL     1      50.618   1.963  17.075  0.00  0.00    +0.000 A 
ATOM      3  C   UNL     1      49.261   2.167  16.803  0.00  0.00    +0.000 A 
ATOM      4  C   UNL     1      48.624   3.350  17.199  0.00  0.00    +0.000 A 
ATOM      5  C   UNL     1      49.385   4.329  17.838  0.00  0.00    +0.000 A 
ATOM      6  F   UNL     1      48.813   5.483  18.212  0.00  0.00    +0.000 F 
ATOM      7  C   UNL     1      50.741   4.136  18.109  0.00  0.00    +0.000 A 
ENDROOT
BRANCH   1   8
ATOM      8  C   UNL     1      52.827   2.705  18.055  0.00  0.00    +0.000 C 
BRANCH   8  11
ATOM      9  O   UNL     1      54.485   0.825  16.842  0.00  0.00    +0.000 OA
ATOM     10  C   UNL     1      53.905   0.510  17.878  0.00  0.00    +0.000 C 
ATOM     11  N   UNL     1      53.062   1.369  18.546  0.00  0.00    +0.000 N 
ATOM     12  H   UNL     1      52.735   1.133  19.471  0.00  0.00    +0.000 HD
BRANCH  10  13
ATOM     13  C   UNL     1      54.085  -0.778  18.496  0.00  0.00    +0.000 A 
ATOM     14  C   UNL     1      55.201  -1.543  18.775  0.00  0.00    +0.000 A 
ATOM     15  N   UNL     1      54.862  -2.723  19.386  0.00  0.00    +0.000 NA
ATOM     16  C   UNL     1      53.555  -2.686  19.502  0.00  0.00    +0.000 A 
ATOM     17  N   UNL     1      53.041  -1.532  18.987  0.00  0.00    +0.000 N 
ATOM     18  H   UNL     1      52.067  -1.261  18.963  0.00  0.00    +0.000 HD
ENDBRANCH  10  13
ENDBRANCH   8  11
ENDBRANCH   1   8
BRANCH   4  19
ATOM     19  C   UNL     1      47.164   3.570  16.909  0.00  0.00    +0.000 C 
BRANCH  19  20
ATOM     20  N   UNL     1      46.971   4.570  15.888  0.00  0.00    +0.000 N 
ATOM     21  C   UNL     1      47.035   4.253  14.555  0.00  0.00    +0.000 C 
ATOM     22  O   UNL     1      47.240   3.105  14.168  0.00  0.00    +0.000 OA
ATOM     23  H   UNL     1      46.994   5.544  16.173  0.00  0.00    +0.000 HD
BRANCH  21  24
ATOM     24  C   UNL     1      46.791   5.349  13.609  0.00  0.00    +0.000 A 
ATOM     25  C   UNL     1      47.826   6.218  13.283  0.00  0.00    +0.000 A 
ATOM     26  S   UNL     1      47.388   7.402  12.137  0.00  0.00    +0.000 S 
ATOM     27  C   UNL     1      45.787   6.827  12.072  0.00  0.00    +0.000 A 
ATOM     28  N   UNL     1      44.861   7.427  11.278  0.00  0.00    +0.000 NA
ATOM     29  C   UNL     1      43.680   6.911  11.352  0.00  0.00    +0.000 A 
ATOM     30  N   UNL     1      43.342   5.845  12.145  0.00  0.00    +0.000 N 
ATOM     31  C   UNL     1      44.253   5.183  12.935  0.00  0.00    +0.000 A 
ATOM     32  O   UNL     1      43.931   4.194  13.586  0.00  0.00    +0.000 OA
ATOM     33  C   UNL     1      45.594   5.736  12.901  0.00  0.00    +0.000 A 
ATOM     34  H   UNL     1      42.401   5.482  12.147  0.00  0.00    +0.000 HD
ENDBRANCH  21  24
ENDBRANCH  19  20
ENDBRANCH   4  19
TORSDOF 6
ENDMDL
MODEL 4
REMARK VINA RESULT:    -7.143      1.934      2.324
REMARK INTER + INTRA:         -10.901
REMARK INTER:                 -10.038
REMARK INTRA:                  -0.863
REMARK UNBOUND:                -1.252
REMARK  Name = 
REMARK  6 active torsions:
REMARK  status: ('A' for Active; 'I' for Inactive)
REMARK    1  A    between atoms: C_2  and  C_26
REMARK    2  A    between atoms: N_3  and  C_4
REMARK    3  A    between atoms: C_4  and  C_5
REMARK    4  A    between atoms: C_8  and  C_9
REMARK    5  A    between atoms: C_9  and  N_10
REMARK    6  A    between atoms: C_11  and  C_13
REMARK                            x       y       z     vdW  Elec       q    Type
REMARK                         _______ _______ _______ _____ _____    ______ ____
ROOT
ATOM      1  C   UNL     1      45.079   5.044  11.526  0.00  0.00    +0.000 A 
ATOM      2  C   UNL     1      45.966   5.067  12.613  0.00  0.00    +0.000 A 
ATOM      3  C   UNL     1      46.365   6.280  13.186  0.00  0.00    +0.000 A 
ATOM      4  C   UNL     1      45.890   7.497  12.682  0.00  0.00    +0.000 A 
ATOM      5  C   UNL     1      44.984   7.465  11.621  0.00  0.00    +0.000 A 
ATOM      6  F   UNL     1      44.491   8.610  11.127  0.00  0.00    +0.000 F 
ATOM      7  C   UNL     1      44.576   6.259  11.048  0.00  0.00    +0.000 A 
ENDROOT
BRANCH   1   8
ATOM      8  C   UNL     1      44.669   3.735  10.901  0.00  0.00    +0.000 C 
BRANCH   8  11
ATOM      9  O   UNL     1      44.274   1.586   9.173  0.00  0.00    +0.000 OA
ATOM     10  C   UNL     1      45.298   2.253   9.051  0.00  0.00    +0.000 C 
ATOM     11  N   UNL     1      45.583   3.329   9.861  0.00  0.00    +0.000 N 
ATOM     12  H   UNL     1      46.348   3.944   9.627  0.00  0.00    +0.000 HD
BRANCH  10  13
ATOM     13  C   UNL     1      46.272   1.979   8.028  0.00  0.00    +0.000 A 
ATOM     14  C   UNL     1      46.890   0.820   7.599  0.00  0.00    +0.000 A 
ATOM     15  N   UNL     1      47.763   1.066   6.570  0.00  0.00    +0.000 NA
ATOM     16  C   UNL     1      47.677   2.357   6.349  0.00  0.00    +0.000 A 
ATOM     17  N   UNL     1      46.788   2.950   7.197  0.00  0.00    +0.000 N 
ATOM     18  H   UNL     1      46.538   3.929   7.222  0.00  0.00    +0.000 HD
ENDBRANCH  10  13
ENDBRANCH   8  11
ENDBRANCH   1   8
BRANCH   4  19
ATOM     19  C   UNL     1      46.319   8.802  13.295  0.00  0.00    +0.000 C 
BRANCH  19  20
ATOM     20  N   UNL     1      47.016   8.599  14.541  0.00  0.00    +0.000 N 
ATOM     21  C   UNL     1      48.235   9.181  14.781  0.00  0.00    +0.000 C 
ATOM     22  O   UNL     1      48.780   9.913  13.960  0.00  0.00    +0.000 OA
ATOM     23  H   UNL     1      46.688   7.855  15.149  0.00  0.00    +0.000 HD
BRANCH  21  24
ATOM     24  C   UNL     1      48.834   8.926  16.098  0.00  0.00    +0.000 A 
ATOM     25  C   UNL     1      49.104   9.992  16.947  0.00  0.00    +0.000 A 
ATOM     26  S   UNL     1      49.752   9.519  18.452  0.00  0.00    +0.000 S 
ATOM     27  C   UNL     1      49.741   7.878  18.004  0.00  0.00    +0.000 A 
ATOM     28  N   UNL     1      50.199   6.918  18.852  0.00  0.00    +0.000 NA
ATOM     29  C   UNL     1      50.165   5.721  18.371  0.00  0.00    +0.000 A 
ATOM     30  N   UNL     1      49.709   5.394  17.120  0.00  0.00    +0.000 N 
ATOM     31  C   UNL     1      49.202   6.324  16.244  0.00  0.00    +0.000 A 
ATOM     32  O   UNL     1      48.745   5.990  15.155  0.00  0.00    +0.000 OA
ATOM     33  C   UNL     1      49.233   7.691  16.730  0.00  0.00    +0.000 A 
ATOM     34  H   UNL     1      49.698   4.434  16.811  0.00  0.00    +0.000 HD
ENDBRANCH  21  24
ENDBRANCH  19  20
ENDBRANCH   4  19
TORSDOF 6
ENDMDL
MODEL 5
REMARK VINA RESULT:    -6.999      2.034      2.263
REMARK INTER + INTRA:         -10.707
REMARK INTER:                  -9.763
REMARK INTRA:                  -0.944
REMARK UNBOUND:                -1.252
REMARK  Name = 
REMARK  6 active torsions:
REMARK  status: ('A' for Active; 'I' for Inactive)
REMARK    1  A    between atoms: C_2  and  C_26
REMARK    2  A    between atoms: N_3  and  C_4
REMARK    3  A    between atoms: C_4  and  C_5
REMARK    4  A    between atoms: C_8  and  C_9
REMARK    5  A    between atoms: C_9  and  N_10
REMARK    6  A    between atoms: C_11  and  C_13
REMARK                            x       y       z     vdW  Elec       q    Type
REMARK                         _______ _______ _______ _____ _____    ______ ____
ROOT
ATOM      1  C   UNL     1      45.375   5.738  11.589  0.00  0.00    +0.000 A 
ATOM      2  C   UNL     1      46.009   4.988  12.592  0.00  0.00    +0.000 A 
ATOM      3  C   UNL     1      47.004   5.558  13.393  0.00  0.00    +0.000 A 
ATOM      4  C   UNL     1      47.392   6.891  13.208  0.00  0.00    +0.000 A 
ATOM      5  C   UNL     1      46.737   7.641  12.230  0.00  0.00    +0.000 A 
ATOM      6  F   UNL     1      47.067   8.926  12.039  0.00  0.00    +0.000 F 
ATOM      7  C   UNL     1      45.738   7.081  11.431  0.00  0.00    +0.000 A 
ENDROOT
BRANCH   1   8
ATOM      8  C   UNL     1      44.318   5.112  10.716  0.00  0.00    +0.000 C 
BRANCH   8  11
ATOM      9  O   UNL     1      45.808   5.108   8.364  0.00  0.00    +0.000 OA
ATOM     10  C   UNL     1      45.542   4.030   8.888  0.00  0.00    +0.000 C 
ATOM     11  N   UNL     1      44.807   3.931  10.048  0.00  0.00    +0.000 N 
ATOM     12  H   UNL     1      44.748   3.047  10.530  0.00  0.00    +0.000 HD
BRANCH  10  13
ATOM     13  C   UNL     1      46.004   2.780   8.345  0.00  0.00    +0.000 A 
ATOM     14  C   UNL     1      45.734   1.460   8.653  0.00  0.00    +0.000 A 
ATOM     15  N   UNL     1      46.428   0.601   7.840  0.00  0.00    +0.000 NA
ATOM     16  C   UNL     1      47.107   1.375   7.024  0.00  0.00    +0.000 A 
ATOM     17  N   UNL     1      46.880   2.694   7.285  0.00  0.00    +0.000 N 
ATOM     18  H   UNL     1      47.276   3.484   6.793  0.00  0.00    +0.000 HD
ENDBRANCH  10  13
ENDBRANCH   8  11
ENDBRANCH   1   8
BRANCH   4  19
ATOM     19  C   UNL     1      48.463   7.506  14.067  0.00  0.00    +0.000 C 
BRANCH  19  20
ATOM     20  N   UNL     1      48.292   7.161  15.457  0.00  0.00    +0.000 N 
ATOM     21  C   UNL     1      48.756   7.976  16.458  0.00  0.00    +0.000 C 
ATOM     22  O   UNL     1      49.320   9.040  16.221  0.00  0.00    +0.000 OA
ATOM     23  H   UNL     1      48.008   6.211  15.674  0.00  0.00    +0.000 HD
BRANCH  21  24
ATOM     24  C   UNL     1      48.496   7.534  17.834  0.00  0.00    +0.000 A 
ATOM     25  C   UNL     1      47.937   8.422  18.745  0.00  0.00    +0.000 A 
ATOM     26  S   UNL     1      47.656   7.737  20.281  0.00  0.00    +0.000 S 
ATOM     27  C   UNL     1      48.316   6.245  19.799  0.00  0.00    +0.000 A 
ATOM     28  N   UNL     1      48.399   5.203  20.669  0.00  0.00    +0.000 NA
ATOM     29  C   UNL     1      48.952   4.144  20.180  0.00  0.00    +0.000 A 
ATOM     30  N   UNL     1      49.425   4.029  18.899  0.00  0.00    +0.000 N 
ATOM     31  C   UNL     1      49.329   5.042  17.974  0.00  0.00    +0.000 A 
ATOM     32  O   UNL     1      49.708   4.886  16.818  0.00  0.00    +0.000 OA
ATOM     33  C   UNL     1      48.729   6.264  18.478  0.00  0.00    +0.000 A 
ATOM     34  H   UNL     1      49.836   3.166  18.577  0.00  0.00    +0.000 HD
ENDBRANCH  21  24
ENDBRANCH  19  20
ENDBRANCH   4  19
TORSDOF 6
ENDMDL
MODEL 6
REMARK VINA RESULT:    -6.832      4.905      9.052
REMARK INTER + INTRA:         -10.481
REMARK INTER:                  -9.336
REMARK INTRA:                  -1.146
REMARK UNBOUND:                -1.252
REMARK  Name = 
REMARK  6 active torsions:
REMARK  status: ('A' for Active; 'I' for Inactive)
REMARK    1  A    between atoms: C_2  and  C_26
REMARK    2  A    between atoms: N_3  and  C_4
REMARK    3  A    between atoms: C_4  and  C_5
REMARK    4  A    between atoms: C_8  and  C_9
REMARK    5  A    between atoms: C_9  and  N_10
REMARK    6  A    between atoms: C_11  and  C_13
REMARK                            x       y       z     vdW  Elec       q    Type
REMARK                         _______ _______ _______ _____ _____    ______ ____
ROOT
ATOM      1  C   UNL     1      51.477   2.944  17.820  0.00  0.00    +0.000 A 
ATOM      2  C   UNL     1      50.748   1.967  17.124  0.00  0.00    +0.000 A 
ATOM      3  C   UNL     1      49.396   2.160  16.823  0.00  0.00    +0.000 A 
ATOM      4  C   UNL     1      48.739   3.334  17.214  0.00  0.00    +0.000 A 
ATOM      5  C   UNL     1      49.476   4.315  17.878  0.00  0.00    +0.000 A 
ATOM      6  F   UNL     1      48.886   5.460  18.249  0.00  0.00    +0.000 F 
ATOM      7  C   UNL     1      50.828   4.132  18.177  0.00  0.00    +0.000 A 
ENDROOT
BRANCH   1   8
ATOM      8  C   UNL     1      52.928   2.721  18.159  0.00  0.00    +0.000 C 
BRANCH   8  11
ATOM      9  O   UNL     1      54.410   0.640  19.269  0.00  0.00    +0.000 OA
ATOM     10  C   UNL     1      54.202   0.628  18.059  0.00  0.00    +0.000 C 
ATOM     11  N   UNL     1      53.486   1.615  17.420  0.00  0.00    +0.000 N 
ATOM     12  H   UNL     1      53.202   1.487  16.460  0.00  0.00    +0.000 HD
BRANCH  10  13
ATOM     13  C   UNL     1      54.669  -0.439  17.212  0.00  0.00    +0.000 A 
ATOM     14  C   UNL     1      55.489  -0.471  16.101  0.00  0.00    +0.000 A 
ATOM     15  N   UNL     1      55.647  -1.749  15.629  0.00  0.00    +0.000 NA
ATOM     16  C   UNL     1      54.948  -2.504  16.445  0.00  0.00    +0.000 A 
ATOM     17  N   UNL     1      54.346  -1.762  17.418  0.00  0.00    +0.000 N 
ATOM     18  H   UNL     1      53.764  -2.108  18.169  0.00  0.00    +0.000 HD
ENDBRANCH  10  13
ENDBRANCH   8  11
ENDBRANCH   1   8
BRANCH   4  19
ATOM     19  C   UNL     1      47.284   3.543  16.893  0.00  0.00    +0.000 C 
BRANCH  19  20
ATOM     20  N   UNL     1      47.103   4.563  15.890  0.00  0.00    +0.000 N 
ATOM     21  C   UNL     1      47.100   4.258  14.553  0.00  0.00    +0.000 C 
ATOM     22  O   UNL     1      47.229   3.106  14.148  0.00  0.00    +0.000 OA
ATOM     23  H   UNL     1      47.188   5.531  16.183  0.00  0.00    +0.000 HD
BRANCH  21  24
ATOM     24  C   UNL     1      46.876   5.376  13.627  0.00  0.00    +0.000 A 
ATOM     25  C   UNL     1      45.818   5.322  12.728  0.00  0.00    +0.000 A 
ATOM     26  S   UNL     1      45.671   6.719  11.761  0.00  0.00    +0.000 S 
ATOM     27  C   UNL     1      47.046   7.425  12.474  0.00  0.00    +0.000 A 
ATOM     28  N   UNL     1      47.491   8.646  12.076  0.00  0.00    +0.000 NA
ATOM     29  C   UNL     1      48.562   9.045  12.676  0.00  0.00    +0.000 A 
ATOM     30  N   UNL     1      49.225   8.336  13.643  0.00  0.00    +0.000 N 
ATOM     31  C   UNL     1      48.792   7.116  14.105  0.00  0.00    +0.000 A 
ATOM     32  O   UNL     1      49.375   6.537  15.015  0.00  0.00    +0.000 OA
ATOM     33  C   UNL     1      47.599   6.613  13.450  0.00  0.00    +0.000 A 
ATOM     34  H   UNL     1      50.052   8.713  14.082  0.00  0.00    +0.000 HD
ENDBRANCH  21  24
ENDBRANCH  19  20
ENDBRANCH   4  19
TORSDOF 6
ENDMDL
MODEL 7
REMARK VINA RESULT:    -6.810      4.529      7.115
REMARK INTER + INTRA:         -10.451
REMARK INTER:                  -9.491
REMARK INTRA:                  -0.959
REMARK UNBOUND:                -1.252
REMARK  Name = 
REMARK  6 active torsions:
REMARK  status: ('A' for Active; 'I' for Inactive)
REMARK    1  A    between atoms: C_2  and  C_26
REMARK    2  A    between atoms: N_3  and  C_4
REMARK    3  A    between atoms: C_4  and  C_5
REMARK    4  A    between atoms: C_8  and  C_9
REMARK    5  A    between atoms: C_9  and  N_10
REMARK    6  A    between atoms: C_11  and  C_13
REMARK                            x       y       z     vdW  Elec       q    Type
REMARK                         _______ _______ _______ _____ _____    ______ ____
ROOT
ATOM      1  C   UNL     1      50.551   8.636  11.368  0.00  0.00    +0.000 A 
ATOM      2  C   UNL     1      50.085   7.389  11.813  0.00  0.00    +0.000 A 
ATOM      3  C   UNL     1      48.788   7.248  12.319  0.00  0.00    +0.000 A 
ATOM      4  C   UNL     1      47.928   8.351  12.394  0.00  0.00    +0.000 A 
ATOM      5  C   UNL     1      48.387   9.581  11.921  0.00  0.00    +0.000 A 
ATOM      6  F   UNL     1      47.584  10.654  11.957  0.00  0.00    +0.000 F 
ATOM      7  C   UNL     1      49.677   9.729  11.409  0.00  0.00    +0.000 A 
ENDROOT
BRANCH   1   8
ATOM      8  C   UNL     1      51.956   8.786  10.843  0.00  0.00    +0.000 C 
BRANCH   8  11
ATOM      9  O   UNL     1      53.863   6.760  10.707  0.00  0.00    +0.000 OA
ATOM     10  C   UNL     1      53.156   6.963   9.723  0.00  0.00    +0.000 C 
ATOM     11  N   UNL     1      52.191   7.945   9.695  0.00  0.00    +0.000 N 
ATOM     12  H   UNL     1      51.527   7.974   8.935  0.00  0.00    +0.000 HD
BRANCH  10  13
ATOM     13  C   UNL     1      53.260   6.169   8.528  0.00  0.00    +0.000 A 
ATOM     14  C   UNL     1      52.827   6.358   7.229  0.00  0.00    +0.000 A 
ATOM     15  N   UNL     1      53.170   5.300   6.426  0.00  0.00    +0.000 NA
ATOM     16  C   UNL     1      53.823   4.473   7.209  0.00  0.00    +0.000 A 
ATOM     17  N   UNL     1      53.908   4.954   8.482  0.00  0.00    +0.000 N 
ATOM     18  H   UNL     1      54.367   4.510   9.267  0.00  0.00    +0.000 HD
ENDBRANCH  10  13
ENDBRANCH   8  11
ENDBRANCH   1   8
BRANCH   4  19
ATOM     19  C   UNL     1      46.534   8.202  12.939  0.00  0.00    +0.000 C 
BRANCH  19  20
ATOM     20  N   UNL     1      46.002   6.886  12.683  0.00  0.00    +0.000 N 
ATOM     21  C   UNL     1      45.034   6.679  11.733  0.00  0.00    +0.000 C 
ATOM     22  O   UNL     1      44.590   7.594  11.046  0.00  0.00    +0.000 OA
ATOM     23  H   UNL     1      46.206   6.157  13.358  0.00  0.00    +0.000 HD
BRANCH  21  24
ATOM     24  C   UNL     1      44.593   5.291  11.541  0.00  0.00    +0.000 A 
ATOM     25  C   UNL     1      43.885   4.650  12.549  0.00  0.00    +0.000 A 
ATOM     26  S   UNL     1      43.408   3.063  12.146  0.00  0.00    +0.000 S 
ATOM     27  C   UNL     1      44.174   3.159  10.630  0.00  0.00    +0.000 A 
ATOM     28  N   UNL     1      44.162   2.103   9.773  0.00  0.00    +0.000 NA
ATOM     29  C   UNL     1      44.810   2.300   8.674  0.00  0.00    +0.000 A 
ATOM     30  N   UNL     1      45.464   3.461   8.351  0.00  0.00    +0.000 N 
ATOM     31  C   UNL     1      45.471   4.567   9.167  0.00  0.00    +0.000 A 
ATOM     32  O   UNL     1      46.015   5.610   8.821  0.00  0.00    +0.000 OA
ATOM     33  C   UNL     1      44.770   4.391  10.426  0.00  0.00    +0.000 A 
ATOM     34  H   UNL     1      45.942   3.554   7.467  0.00  0.00    +0.000 HD
ENDBRANCH  21  24
ENDBRANCH  19  20
ENDBRANCH   4  19
TORSDOF 6
ENDMDL
MODEL 8
REMARK VINA RESULT:    -6.759      3.908      8.303
REMARK INTER + INTRA:         -10.382
REMARK INTER:                  -9.287
REMARK INTRA:                  -1.095
REMARK UNBOUND:                -1.252
REMARK  Name = 
REMARK  6 active torsions:
REMARK  status: ('A' for Active; 'I' for Inactive)
REMARK    1  A    between atoms: C_2  and  C_26
REMARK    2  A    between atoms: N_3  and  C_4
REMARK    3  A    between atoms: C_4  and  C_5
REMARK    4  A    between atoms: C_8  and  C_9
REMARK    5  A    between atoms: C_9  and  N_10
REMARK    6  A    between atoms: C_11  and  C_13
REMARK                            x       y       z     vdW  Elec       q    Type
REMARK                         _______ _______ _______ _____ _____    ______ ____
ROOT
ATOM      1  C   UNL     1      49.633   4.477  17.664  0.00  0.00    +0.000 A 
ATOM      2  C   UNL     1      48.381   4.297  17.058  0.00  0.00    +0.000 A 
ATOM      3  C   UNL     1      47.947   5.154  16.041  0.00  0.00    +0.000 A 
ATOM      4  C   UNL     1      48.754   6.215  15.609  0.00  0.00    +0.000 A 
ATOM      5  C   UNL     1      50.011   6.370  16.195  0.00  0.00    +0.000 A 
ATOM      6  F   UNL     1      50.819   7.361  15.792  0.00  0.00    +0.000 F 
ATOM      7  C   UNL     1      50.454   5.515  17.206  0.00  0.00    +0.000 A 
ENDROOT
BRANCH   1   8
ATOM      8  C   UNL     1      50.086   3.562  18.773  0.00  0.00    +0.000 C 
BRANCH   8  11
ATOM      9  O   UNL     1      50.565   1.392  17.096  0.00  0.00    +0.000 OA
ATOM     10  C   UNL     1      51.523   1.922  17.653  0.00  0.00    +0.000 C 
ATOM     11  N   UNL     1      51.385   2.996  18.503  0.00  0.00    +0.000 N 
ATOM     12  H   UNL     1      52.202   3.501  18.810  0.00  0.00    +0.000 HD
BRANCH  10  13
ATOM     13  C   UNL     1      52.876   1.480  17.437  0.00  0.00    +0.000 A 
ATOM     14  C   UNL     1      54.103   2.104  17.557  0.00  0.00    +0.000 A 
ATOM     15  N   UNL     1      55.132   1.256  17.237  0.00  0.00    +0.000 NA
ATOM     16  C   UNL     1      54.555   0.115  16.938  0.00  0.00    +0.000 A 
ATOM     17  N   UNL     1      53.199   0.197  17.050  0.00  0.00    +0.000 N 
ATOM     18  H   UNL     1      52.532  -0.545  16.885  0.00  0.00    +0.000 HD
ENDBRANCH  10  13
ENDBRANCH   8  11
ENDBRANCH   1   8
BRANCH   4  19
ATOM     19  C   UNL     1      48.289   7.139  14.518  0.00  0.00    +0.000 C 
BRANCH  19  20
ATOM     20  N   UNL     1      47.041   6.697  13.945  0.00  0.00    +0.000 N 
ATOM     21  C   UNL     1      46.797   6.798  12.599  0.00  0.00    +0.000 C 
ATOM     22  O   UNL     1      47.631   7.248  11.818  0.00  0.00    +0.000 OA
ATOM     23  H   UNL     1      46.273   6.506  14.580  0.00  0.00    +0.000 HD
BRANCH  21  24
ATOM     24  C   UNL     1      45.503   6.287  12.128  0.00  0.00    +0.000 A 
ATOM     25  C   UNL     1      44.578   7.164  11.575  0.00  0.00    +0.000 A 
ATOM     26  S   UNL     1      43.151   6.402  11.037  0.00  0.00    +0.000 S 
ATOM     27  C   UNL     1      43.697   4.881  11.568  0.00  0.00    +0.000 A 
ATOM     28  N   UNL     1      42.923   3.772  11.424  0.00  0.00    +0.000 NA
ATOM     29  C   UNL     1      43.445   2.692  11.902  0.00  0.00    +0.000 A 
ATOM     30  N   UNL     1      44.674   2.619  12.506  0.00  0.00    +0.000 N 
ATOM     31  C   UNL     1      45.506   3.705  12.639  0.00  0.00    +0.000 A 
ATOM     32  O   UNL     1      46.625   3.593  13.130  0.00  0.00    +0.000 OA
ATOM     33  C   UNL     1      44.958   4.950  12.133  0.00  0.00    +0.000 A 
ATOM     34  H   UNL     1      45.029   1.739  12.847  0.00  0.00    +0.000 HD
ENDBRANCH  21  24
ENDBRANCH  19  20
ENDBRANCH   4  19
TORSDOF 6
ENDMDL
MODEL 9
REMARK VINA RESULT:    -6.607      3.165      8.533
REMARK INTER + INTRA:         -10.177
REMARK INTER:                  -9.194
REMARK INTRA:                  -0.983
REMARK UNBOUND:                -1.252
REMARK  Name = 
REMARK  6 active torsions:
REMARK  status: ('A' for Active; 'I' for Inactive)
REMARK    1  A    between atoms: C_2  and  C_26
REMARK    2  A    between atoms: N_3  and  C_4
REMARK    3  A    between atoms: C_4  and  C_5
REMARK    4  A    between atoms: C_8  and  C_9
REMARK    5  A    between atoms: C_9  and  N_10
REMARK    6  A    between atoms: C_11  and  C_13
REMARK                            x       y       z     vdW  Elec       q    Type
REMARK                         _______ _______ _______ _____ _____    ______ ____
ROOT
ATOM      1  C   UNL     1      50.092   7.012  15.701  0.00  0.00    +0.000 A 
ATOM      2  C   UNL     1      48.829   6.405  15.616  0.00  0.00    +0.000 A 
ATOM      3  C   UNL     1      48.027   6.575  14.482  0.00  0.00    +0.000 A 
ATOM      4  C   UNL     1      48.467   7.359  13.408  0.00  0.00    +0.000 A 
ATOM      5  C   UNL     1      49.736   7.934  13.486  0.00  0.00    +0.000 A 
ATOM      6  F   UNL     1      50.200   8.674  12.467  0.00  0.00    +0.000 F 
ATOM      7  C   UNL     1      50.546   7.764  14.611  0.00  0.00    +0.000 A 
ENDROOT
BRANCH   1   8
ATOM      8  C   UNL     1      50.943   6.841  16.933  0.00  0.00    +0.000 C 
BRANCH   8  11
ATOM      9  O   UNL     1      49.994   4.841  18.622  0.00  0.00    +0.000 OA
ATOM     10  C   UNL     1      50.947   4.584  17.891  0.00  0.00    +0.000 C 
ATOM     11  N   UNL     1      51.488   5.509  17.027  0.00  0.00    +0.000 N 
ATOM     12  H   UNL     1      52.158   5.215  16.332  0.00  0.00    +0.000 HD
BRANCH  10  13
ATOM     13  C   UNL     1      51.557   3.281  17.857  0.00  0.00    +0.000 A 
ATOM     14  C   UNL     1      52.848   2.838  18.070  0.00  0.00    +0.000 A 
ATOM     15  N   UNL     1      52.944   1.478  17.924  0.00  0.00    +0.000 NA
ATOM     16  C   UNL     1      51.726   1.077  17.641  0.00  0.00    +0.000 A 
ATOM     17  N   UNL     1      50.855   2.124  17.596  0.00  0.00    +0.000 N 
ATOM     18  H   UNL     1      49.862   2.077  17.408  0.00  0.00    +0.000 HD
ENDBRANCH  10  13
ENDBRANCH   8  11
ENDBRANCH   1   8
BRANCH   4  19
ATOM     19  C   UNL     1      47.606   7.545  12.190  0.00  0.00    +0.000 C 
BRANCH  19  20
ATOM     20  N   UNL     1      46.900   6.334  11.849  0.00  0.00    +0.000 N 
ATOM     21  C   UNL     1      45.530   6.301  11.781  0.00  0.00    +0.000 C 
ATOM     22  O   UNL     1      44.843   7.297  11.986  0.00  0.00    +0.000 OA
ATOM     23  H   UNL     1      47.423   5.465  11.865  0.00  0.00    +0.000 HD
BRANCH  21  24
ATOM     24  C   UNL     1      44.926   5.019  11.394  0.00  0.00    +0.000 A 
ATOM     25  C   UNL     1      44.150   4.321  12.310  0.00  0.00    +0.000 A 
ATOM     26  S   UNL     1      43.486   2.880  11.686  0.00  0.00    +0.000 S 
ATOM     27  C   UNL     1      44.252   3.111  10.185  0.00  0.00    +0.000 A 
ATOM     28  N   UNL     1      44.111   2.205   9.181  0.00  0.00    +0.000 NA
ATOM     29  C   UNL     1      44.775   2.487   8.110  0.00  0.00    +0.000 A 
ATOM     30  N   UNL     1      45.562   3.598   7.950  0.00  0.00    +0.000 N 
ATOM     31  C   UNL     1      45.703   4.561   8.921  0.00  0.00    +0.000 A 
ATOM     32  O   UNL     1      46.366   5.573   8.722  0.00  0.00    +0.000 OA
ATOM     33  C   UNL     1      44.991   4.281  10.154  0.00  0.00    +0.000 A 
ATOM     34  H   UNL     1      46.044   3.766   7.080  0.00  0.00    +0.000 HD
ENDBRANCH  21  24
ENDBRANCH  19  20
ENDBRANCH   4  19
TORSDOF 6
ENDMDL
