MODEL 1
REMARK VINA RESULT:    -8.335      0.000      0.000
REMARK INTER + INTRA:         -13.707
REMARK INTER:                 -12.232
REMARK INTRA:                  -1.475
REMARK UNBOUND:                -1.475
REMARK  Name = 
REMARK  10 active torsions:
REMARK  status: ('A' for Active; 'I' for Inactive)
REMARK    1  A    between atoms: C_1  and  O_2
REMARK    2  A    between atoms: O_2  and  C_3
REMARK    3  A    between atoms: C_10  and  C_11
REMARK    4  A    between atoms: N_13  and  C_14
REMARK    5  A    between atoms: C_14  and  C_15
REMARK    6  A    between atoms: C_18  and  C_19
REMARK    7  A    between atoms: C_19  and  N_20
REMARK    8  A    between atoms: N_20  and  C_21
REMARK    9  A    between atoms: C_21  and  C_22
REMARK   10  A    between atoms: C_24  and  C_25
REMARK                            x       y       z     vdW  Elec       q    Type
REMARK                         _______ _______ _______ _____ _____    ______ ____
ROOT
ATOM      1  C   UNL     1      46.378   7.413  12.457  0.00  0.00    +0.000 A 
ATOM      2  C   UNL     1      45.026   7.386  12.825  0.00  0.00    +0.000 A 
ATOM      3  C   UNL     1      44.111   6.597  12.121  0.00  0.00    +0.000 A 
ATOM      4  C   UNL     1      44.525   5.811  11.036  0.00  0.00    +0.000 A 
ATOM      5  C   UNL     1      45.876   5.839  10.667  0.00  0.00    +0.000 A 
ATOM      6  C   UNL     1      46.792   6.629  11.372  0.00  0.00    +0.000 A 
ENDROOT
BRANCH   1   7
ATOM      7  C   UNL     1      47.374   8.211  13.262  0.00  0.00    +0.000 C 
BRANCH   7  10
ATOM      8  C   UNL     1      48.884   6.904  14.716  0.00  0.00    +0.000 C 
ATOM      9  O   UNL     1      49.771   6.908  13.863  0.00  0.00    +0.000 OA
ATOM     10  N   UNL     1      47.689   7.529  14.495  0.00  0.00    +0.000 N 
ATOM     11  H   UNL     1      47.000   7.574  15.233  0.00  0.00    +0.000 HD
BRANCH   8  19
ATOM     12  C   UNL     1      47.272   4.249  16.204  0.00  0.00    +0.000 A 
ATOM     13  N   UNL     1      46.897   3.190  16.950  0.00  0.00    +0.000 NA
ATOM     14  C   UNL     1      47.574   2.942  18.075  0.00  0.00    +0.000 A 
ATOM     15  N   UNL     1      48.591   3.643  18.568  0.00  0.00    +0.000 NA
ATOM     16  C   UNL     1      48.940   4.681  17.789  0.00  0.00    +0.000 A 
ATOM     17  S   UNL     1      50.209   5.700  18.273  0.00  0.00    +0.000 S 
ATOM     18  C   UNL     1      50.057   6.640  16.866  0.00  0.00    +0.000 A 
ATOM     19  C   UNL     1      49.056   6.205  16.002  0.00  0.00    +0.000 A 
ATOM     20  C   UNL     1      48.360   5.057  16.582  0.00  0.00    +0.000 A 
BRANCH  12  22
ATOM     21  C   UNL     1      46.978   3.853  13.902  0.00  0.00    +0.000 C 
ATOM     22  O   UNL     1      46.545   4.544  15.070  0.00  0.00    +0.000 OA
ENDBRANCH  12  22
ENDBRANCH   8  19
ENDBRANCH   7  10
ENDBRANCH   1   7
BRANCH   4  23
ATOM     23  C   UNL     1      43.531   4.944  10.289  0.00  0.00    +0.000 C 
BRANCH  23  24
ATOM     24  N   UNL     1      44.176   4.283   9.161  0.00  0.00    +0.000 NA
ATOM     25  H   UNL     1      45.061   4.751   8.964  0.00  0.00    +0.000 HD
BRANCH  24  26
ATOM     26  C   UNL     1      44.463   2.870   9.441  0.00  0.00    +0.000 C 
BRANCH  26  27
ATOM     27  C   UNL     1      45.427   2.296   8.416  0.00  0.00    +0.000 A 
ATOM     28  C   UNL     1      45.857   3.091   7.353  0.00  0.00    +0.000 A 
ATOM     29  C   UNL     1      46.790   2.584   6.448  0.00  0.00    +0.000 A 
ATOM     30  C   UNL     1      47.302   3.425   5.319  0.00  0.00    +0.000 C 
ATOM     31  C   UNL     1      47.250   1.281   6.630  0.00  0.00    +0.000 A 
ATOM     32  C   UNL     1      46.763   0.551   7.706  0.00  0.00    +0.000 A 
ATOM     33  N   UNL     1      45.870   1.027   8.601  0.00  0.00    +0.000 NA
ENDBRANCH  26  27
ENDBRANCH  24  26
ENDBRANCH  23  24
ENDBRANCH   4  23
TORSDOF 8
ENDMDL
MODEL 2
REMARK VINA RESULT:    -7.991      1.730      2.392
REMARK INTER + INTRA:         -13.203
REMARK INTER:                 -11.934
REMARK INTRA:                  -1.269
REMARK UNBOUND:                -1.475
REMARK  Name = 
REMARK  10 active torsions:
REMARK  status: ('A' for Active; 'I' for Inactive)
REMARK    1  A    between atoms: C_1  and  O_2
REMARK    2  A    between atoms: O_2  and  C_3
REMARK    3  A    between atoms: C_10  and  C_11
REMARK    4  A    between atoms: N_13  and  C_14
REMARK    5  A    between atoms: C_14  and  C_15
REMARK    6  A    between atoms: C_18  and  C_19
REMARK    7  A    between atoms: C_19  and  N_20
REMARK    8  A    between atoms: N_20  and  C_21
REMARK    9  A    between atoms: C_21  and  C_22
REMARK   10  A    between atoms: C_24  and  C_25
REMARK                            x       y       z     vdW  Elec       q    Type
REMARK                         _______ _______ _______ _____ _____    ______ ____
ROOT
ATOM      1  C   UNL     1      47.156   6.333  13.059  0.00  0.00    +0.000 A 
ATOM      2  C   UNL     1      46.813   6.984  11.867  0.00  0.00    +0.000 A 
ATOM      3  C   UNL     1      45.575   6.754  11.259  0.00  0.00    +0.000 A 
ATOM      4  C   UNL     1      44.646   5.873  11.830  0.00  0.00    +0.000 A 
ATOM      5  C   UNL     1      44.989   5.221  13.021  0.00  0.00    +0.000 A 
ATOM      6  C   UNL     1      46.229   5.451  13.630  0.00  0.00    +0.000 A 
ENDROOT
BRANCH   1   7
ATOM      7  C   UNL     1      48.463   6.636  13.748  0.00  0.00    +0.000 C 
BRANCH   7  10
ATOM      8  C   UNL     1      48.891   7.542  16.006  0.00  0.00    +0.000 C 
ATOM      9  O   UNL     1      49.603   8.437  15.554  0.00  0.00    +0.000 OA
ATOM     10  N   UNL     1      48.292   6.631  15.182  0.00  0.00    +0.000 N 
ATOM     11  H   UNL     1      47.656   5.946  15.566  0.00  0.00    +0.000 HD
BRANCH   8  19
ATOM     12  C   UNL     1      48.829   4.830  18.128  0.00  0.00    +0.000 A 
ATOM     13  N   UNL     1      48.857   3.978  19.173  0.00  0.00    +0.000 NA
ATOM     14  C   UNL     1      48.714   4.484  20.400  0.00  0.00    +0.000 A 
ATOM     15  N   UNL     1      48.526   5.760  20.723  0.00  0.00    +0.000 NA
ATOM     16  C   UNL     1      48.517   6.576  19.655  0.00  0.00    +0.000 A 
ATOM     17  S   UNL     1      48.271   8.241  19.877  0.00  0.00    +0.000 S 
ATOM     18  C   UNL     1      48.423   8.536  18.211  0.00  0.00    +0.000 A 
ATOM     19  C   UNL     1      48.669   7.394  17.456  0.00  0.00    +0.000 A 
ATOM     20  C   UNL     1      48.680   6.215  18.322  0.00  0.00    +0.000 A 
BRANCH  12  22
ATOM     21  C   UNL     1      47.986   3.273  16.576  0.00  0.00    +0.000 C 
ATOM     22  O   UNL     1      48.922   4.310  16.853  0.00  0.00    +0.000 OA
ENDBRANCH  12  22
ENDBRANCH   8  19
ENDBRANCH   7  10
ENDBRANCH   1   7
BRANCH   4  23
ATOM     23  C   UNL     1      43.299   5.642  11.176  0.00  0.00    +0.000 C 
BRANCH  23  24
ATOM     24  N   UNL     1      43.463   4.991   9.882  0.00  0.00    +0.000 NA
ATOM     25  H   UNL     1      44.157   5.503   9.339  0.00  0.00    +0.000 HD
BRANCH  24  26
ATOM     26  C   UNL     1      43.927   3.604  10.018  0.00  0.00    +0.000 C 
BRANCH  26  27
ATOM     27  C   UNL     1      45.029   3.298   9.017  0.00  0.00    +0.000 A 
ATOM     28  C   UNL     1      45.447   1.980   8.832  0.00  0.00    +0.000 A 
ATOM     29  C   UNL     1      46.414   1.692   7.868  0.00  0.00    +0.000 A 
ATOM     30  C   UNL     1      46.855   0.283   7.617  0.00  0.00    +0.000 C 
ATOM     31  C   UNL     1      46.947   2.747   7.130  0.00  0.00    +0.000 A 
ATOM     32  C   UNL     1      46.487   4.032   7.383  0.00  0.00    +0.000 A 
ATOM     33  N   UNL     1      45.543   4.331   8.302  0.00  0.00    +0.000 NA
ENDBRANCH  26  27
ENDBRANCH  24  26
ENDBRANCH  23  24
ENDBRANCH   4  23
TORSDOF 8
ENDMDL
MODEL 3
REMARK VINA RESULT:    -7.235      1.906      2.592
REMARK INTER + INTRA:         -12.093
REMARK INTER:                 -11.033
REMARK INTRA:                  -1.060
REMARK UNBOUND:                -1.475
REMARK  Name = 
REMARK  10 active torsions:
REMARK  status: ('A' for Active; 'I' for Inactive)
REMARK    1  A    between atoms: C_1  and  O_2
REMARK    2  A    between atoms: O_2  and  C_3
REMARK    3  A    between atoms: C_10  and  C_11
REMARK    4  A    between atoms: N_13  and  C_14
REMARK    5  A    between atoms: C_14  and  C_15
REMARK    6  A    between atoms: C_18  and  C_19
REMARK    7  A    between atoms: C_19  and  N_20
REMARK    8  A    between atoms: N_20  and  C_21
REMARK    9  A    between atoms: C_21  and  C_22
REMARK   10  A    between atoms: C_24  and  C_25
REMARK                            x       y       z     vdW  Elec       q    Type
REMARK                         _______ _______ _______ _____ _____    ______ ____
ROOT
ATOM      1  C   UNL     1      47.068   6.611  13.491  0.00  0.00    +0.000 A 
ATOM      2  C   UNL     1      46.069   6.982  12.582  0.00  0.00    +0.000 A 
ATOM      3  C   UNL     1      45.082   6.071  12.195  0.00  0.00    +0.000 A 
ATOM      4  C   UNL     1      45.065   4.767  12.710  0.00  0.00    +0.000 A 
ATOM      5  C   UNL     1      46.065   4.395  13.618  0.00  0.00    +0.000 A 
ATOM      6  C   UNL     1      47.053   5.308  14.007  0.00  0.00    +0.000 A 
ENDROOT
BRANCH   1   7
ATOM      7  C   UNL     1      48.089   7.618  13.960  0.00  0.00    +0.000 C 
BRANCH   7  10
ATOM      8  C   UNL     1      49.637   7.455  15.879  0.00  0.00    +0.000 C 
ATOM      9  O   UNL     1      49.191   8.489  16.375  0.00  0.00    +0.000 OA
ATOM     10  N   UNL     1      49.139   6.964  14.705  0.00  0.00    +0.000 N 
ATOM     11  H   UNL     1      49.470   6.078  14.349  0.00  0.00    +0.000 HD
BRANCH   8  19
ATOM     12  C   UNL     1      49.971   4.221  17.015  0.00  0.00    +0.000 A 
ATOM     13  N   UNL     1      50.399   3.012  17.430  0.00  0.00    +0.000 NA
ATOM     14  C   UNL     1      51.675   2.893  17.807  0.00  0.00    +0.000 A 
ATOM     15  N   UNL     1      52.594   3.853  17.837  0.00  0.00    +0.000 NA
ATOM     16  C   UNL     1      52.130   5.038  17.404  0.00  0.00    +0.000 A 
ATOM     17  S   UNL     1      53.162   6.386  17.391  0.00  0.00    +0.000 S 
ATOM     18  C   UNL     1      51.943   7.374  16.738  0.00  0.00    +0.000 A 
ATOM     19  C   UNL     1      50.742   6.712  16.511  0.00  0.00    +0.000 A 
ATOM     20  C   UNL     1      50.845   5.322  16.954  0.00  0.00    +0.000 A 
BRANCH  12  22
ATOM     21  C   UNL     1      47.841   3.220  16.946  0.00  0.00    +0.000 C 
ATOM     22  O   UNL     1      48.642   4.367  16.675  0.00  0.00    +0.000 OA
ENDBRANCH  12  22
ENDBRANCH   8  19
ENDBRANCH   7  10
ENDBRANCH   1   7
BRANCH   4  23
ATOM     23  C   UNL     1      43.983   3.789  12.299  0.00  0.00    +0.000 C 
BRANCH  23  24
ATOM     24  N   UNL     1      44.435   2.961  11.188  0.00  0.00    +0.000 NA
ATOM     25  H   UNL     1      43.951   2.064  11.226  0.00  0.00    +0.000 HD
BRANCH  24  26
ATOM     26  C   UNL     1      44.146   3.578   9.887  0.00  0.00    +0.000 C 
BRANCH  26  27
ATOM     27  C   UNL     1      45.204   3.206   8.861  0.00  0.00    +0.000 A 
ATOM     28  C   UNL     1      45.591   1.873   8.722  0.00  0.00    +0.000 A 
ATOM     29  C   UNL     1      46.516   1.523   7.737  0.00  0.00    +0.000 A 
ATOM     30  C   UNL     1      46.922   0.096   7.535  0.00  0.00    +0.000 C 
ATOM     31  C   UNL     1      47.038   2.533   6.931  0.00  0.00    +0.000 A 
ATOM     32  C   UNL     1      46.611   3.837   7.142  0.00  0.00    +0.000 A 
ATOM     33  N   UNL     1      45.707   4.195   8.080  0.00  0.00    +0.000 NA
ENDBRANCH  26  27
ENDBRANCH  24  26
ENDBRANCH  23  24
ENDBRANCH   4  23
TORSDOF 8
ENDMDL
MODEL 4
REMARK VINA RESULT:    -7.234      2.348      2.957
REMARK INTER + INTRA:         -12.092
REMARK INTER:                 -10.998
REMARK INTRA:                  -1.093
REMARK UNBOUND:                -1.475
REMARK  Name = 
REMARK  10 active torsions:
REMARK  status: ('A' for Active; 'I' for Inactive)
REMARK    1  A    between atoms: C_1  and  O_2
REMARK    2  A    between atoms: O_2  and  C_3
REMARK    3  A    between atoms: C_10  and  C_11
REMARK    4  A    between atoms: N_13  and  C_14
REMARK    5  A    between atoms: C_14  and  C_15
REMARK    6  A    between atoms: C_18  and  C_19
REMARK    7  A    between atoms: C_19  and  N_20
REMARK    8  A    between atoms: N_20  and  C_21
REMARK    9  A    between atoms: C_21  and  C_22
REMARK   10  A    between atoms: C_24  and  C_25
REMARK                            x       y       z     vdW  Elec       q    Type
REMARK                         _______ _______ _______ _____ _____    ______ ____
ROOT
ATOM      1  C   UNL     1      46.881   6.823  13.194  0.00  0.00    +0.000 A 
ATOM      2  C   UNL     1      46.574   5.462  13.317  0.00  0.00    +0.000 A 
ATOM      3  C   UNL     1      45.506   4.904  12.606  0.00  0.00    +0.000 A 
ATOM      4  C   UNL     1      44.723   5.692  11.751  0.00  0.00    +0.000 A 
ATOM      5  C   UNL     1      45.029   7.053  11.628  0.00  0.00    +0.000 A 
ATOM      6  C   UNL     1      46.098   7.611  12.339  0.00  0.00    +0.000 A 
ENDROOT
BRANCH   1   7
ATOM      7  C   UNL     1      48.076   7.405  13.908  0.00  0.00    +0.000 C 
BRANCH   7  10
ATOM      8  C   UNL     1      49.085   6.608  16.016  0.00  0.00    +0.000 C 
ATOM      9  O   UNL     1      50.170   6.413  15.468  0.00  0.00    +0.000 OA
ATOM     10  N   UNL     1      48.020   7.101  15.318  0.00  0.00    +0.000 N 
ATOM     11  H   UNL     1      47.159   7.319  15.800  0.00  0.00    +0.000 HD
BRANCH   8  19
ATOM     12  C   UNL     1      47.909   8.432  18.691  0.00  0.00    +0.000 A 
ATOM     13  N   UNL     1      47.397   8.871  19.858  0.00  0.00    +0.000 NA
ATOM     14  C   UNL     1      47.336   8.013  20.880  0.00  0.00    +0.000 A 
ATOM     15  N   UNL     1      47.746   6.748  20.890  0.00  0.00    +0.000 NA
ATOM     16  C   UNL     1      48.239   6.347  19.705  0.00  0.00    +0.000 A 
ATOM     17  S   UNL     1      48.827   4.764  19.536  0.00  0.00    +0.000 S 
ATOM     18  C   UNL     1      49.194   5.022  17.898  0.00  0.00    +0.000 A 
ATOM     19  C   UNL     1      48.877   6.297  17.442  0.00  0.00    +0.000 A 
ATOM     20  C   UNL     1      48.345   7.102  18.542  0.00  0.00    +0.000 A 
BRANCH  12  22
ATOM     21  C   UNL     1      47.794  10.682  18.011  0.00  0.00    +0.000 C 
ATOM     22  O   UNL     1      48.025   9.325  17.647  0.00  0.00    +0.000 OA
ENDBRANCH  12  22
ENDBRANCH   8  19
ENDBRANCH   7  10
ENDBRANCH   1   7
BRANCH   4  23
ATOM     23  C   UNL     1      43.578   5.078  10.970  0.00  0.00    +0.000 C 
BRANCH  23  24
ATOM     24  N   UNL     1      44.049   3.955  10.169  0.00  0.00    +0.000 NA
ATOM     25  H   UNL     1      43.258   3.347   9.954  0.00  0.00    +0.000 HD
BRANCH  24  26
ATOM     26  C   UNL     1      44.642   4.393   8.898  0.00  0.00    +0.000 C 
BRANCH  26  27
ATOM     27  C   UNL     1      45.413   3.262   8.238  0.00  0.00    +0.000 A 
ATOM     28  C   UNL     1      46.122   3.506   7.061  0.00  0.00    +0.000 A 
ATOM     29  C   UNL     1      46.881   2.484   6.490  0.00  0.00    +0.000 A 
ATOM     30  C   UNL     1      47.685   2.724   5.250  0.00  0.00    +0.000 C 
ATOM     31  C   UNL     1      46.888   1.237   7.113  0.00  0.00    +0.000 A 
ATOM     32  C   UNL     1      46.146   1.073   8.274  0.00  0.00    +0.000 A 
ATOM     33  N   UNL     1      45.415   2.052   8.851  0.00  0.00    +0.000 NA
ENDBRANCH  26  27
ENDBRANCH  24  26
ENDBRANCH  23  24
ENDBRANCH   4  23
TORSDOF 8
ENDMDL
MODEL 5
REMARK VINA RESULT:    -6.851      3.093      5.397
REMARK INTER + INTRA:         -11.530
REMARK INTER:                  -9.994
REMARK INTRA:                  -1.536
REMARK UNBOUND:                -1.475
REMARK  Name = 
REMARK  10 active torsions:
REMARK  status: ('A' for Active; 'I' for Inactive)
REMARK    1  A    between atoms: C_1  and  O_2
REMARK    2  A    between atoms: O_2  and  C_3
REMARK    3  A    between atoms: C_10  and  C_11
REMARK    4  A    between atoms: N_13  and  C_14
REMARK    5  A    between atoms: C_14  and  C_15
REMARK    6  A    between atoms: C_18  and  C_19
REMARK    7  A    between atoms: C_19  and  N_20
REMARK    8  A    between atoms: N_20  and  C_21
REMARK    9  A    between atoms: C_21  and  C_22
REMARK   10  A    between atoms: C_24  and  C_25
REMARK                            x       y       z     vdW  Elec       q    Type
REMARK                         _______ _______ _______ _____ _____    ______ ____
ROOT
ATOM      1  C   UNL     1      47.626   4.170  15.901  0.00  0.00    +0.000 A 
ATOM      2  C   UNL     1      48.149   5.469  15.931  0.00  0.00    +0.000 A 
ATOM      3  C   UNL     1      48.008   6.321  14.832  0.00  0.00    +0.000 A 
ATOM      4  C   UNL     1      47.335   5.898  13.676  0.00  0.00    +0.000 A 
ATOM      5  C   UNL     1      46.813   4.598  13.645  0.00  0.00    +0.000 A 
ATOM      6  C   UNL     1      46.954   3.745  14.747  0.00  0.00    +0.000 A 
ENDROOT
BRANCH   1   7
ATOM      7  C   UNL     1      47.719   3.278  17.115  0.00  0.00    +0.000 C 
BRANCH   7  10
ATOM      8  C   UNL     1      49.983   2.307  16.931  0.00  0.00    +0.000 C 
ATOM      9  O   UNL     1      49.653   1.627  15.960  0.00  0.00    +0.000 OA
ATOM     10  N   UNL     1      49.093   3.145  17.540  0.00  0.00    +0.000 N 
ATOM     11  H   UNL     1      49.400   3.747  18.292  0.00  0.00    +0.000 HD
BRANCH   8  19
ATOM     12  C   UNL     1      52.068   4.625  18.394  0.00  0.00    +0.000 A 
ATOM     13  N   UNL     1      53.019   5.286  19.084  0.00  0.00    +0.000 NA
ATOM     14  C   UNL     1      54.087   4.600  19.497  0.00  0.00    +0.000 A 
ATOM     15  N   UNL     1      54.340   3.310  19.291  0.00  0.00    +0.000 NA
ATOM     16  C   UNL     1      53.362   2.687  18.611  0.00  0.00    +0.000 A 
ATOM     17  S   UNL     1      53.523   1.038  18.239  0.00  0.00    +0.000 S 
ATOM     18  C   UNL     1      52.003   1.010  17.481  0.00  0.00    +0.000 A 
ATOM     19  C   UNL     1      51.342   2.233  17.497  0.00  0.00    +0.000 A 
ATOM     20  C   UNL     1      52.181   3.247  18.137  0.00  0.00    +0.000 A 
BRANCH  12  22
ATOM     21  C   UNL     1      50.486   6.315  18.823  0.00  0.00    +0.000 C 
ATOM     22  O   UNL     1      50.988   5.338  17.916  0.00  0.00    +0.000 OA
ENDBRANCH  12  22
ENDBRANCH   8  19
ENDBRANCH   7  10
ENDBRANCH   1   7
BRANCH   4  23
ATOM     23  C   UNL     1      47.170   6.832  12.495  0.00  0.00    +0.000 C 
BRANCH  23  24
ATOM     24  N   UNL     1      45.873   7.495  12.543  0.00  0.00    +0.000 NA
ATOM     25  H   UNL     1      46.019   8.504  12.587  0.00  0.00    +0.000 HD
BRANCH  24  26
ATOM     26  C   UNL     1      45.061   7.206  11.354  0.00  0.00    +0.000 C 
BRANCH  26  27
ATOM     27  C   UNL     1      44.427   5.829  11.449  0.00  0.00    +0.000 A 
ATOM     28  C   UNL     1      44.710   4.870  10.476  0.00  0.00    +0.000 A 
ATOM     29  C   UNL     1      44.177   3.586  10.597  0.00  0.00    +0.000 A 
ATOM     30  C   UNL     1      44.495   2.523   9.592  0.00  0.00    +0.000 C 
ATOM     31  C   UNL     1      43.357   3.311  11.690  0.00  0.00    +0.000 A 
ATOM     32  C   UNL     1      43.113   4.323  12.607  0.00  0.00    +0.000 A 
ATOM     33  N   UNL     1      43.629   5.568  12.516  0.00  0.00    +0.000 NA
ENDBRANCH  26  27
ENDBRANCH  24  26
ENDBRANCH  23  24
ENDBRANCH   4  23
TORSDOF 8
ENDMDL
MODEL 6
REMARK VINA RESULT:    -6.850      4.839      9.508
REMARK INTER + INTRA:         -11.528
REMARK INTER:                 -10.729
REMARK INTRA:                  -0.799
REMARK UNBOUND:                -1.475
REMARK  Name = 
REMARK  10 active torsions:
REMARK  status: ('A' for Active; 'I' for Inactive)
REMARK    1  A    between atoms: C_1  and  O_2
REMARK    2  A    between atoms: O_2  and  C_3
REMARK    3  A    between atoms: C_10  and  C_11
REMARK    4  A    between atoms: N_13  and  C_14
REMARK    5  A    between atoms: C_14  and  C_15
REMARK    6  A    between atoms: C_18  and  C_19
REMARK    7  A    between atoms: C_19  and  N_20
REMARK    8  A    between atoms: N_20  and  C_21
REMARK    9  A    between atoms: C_21  and  C_22
REMARK   10  A    between atoms: C_24  and  C_25
REMARK                            x       y       z     vdW  Elec       q    Type
REMARK                         _______ _______ _______ _____ _____    ______ ____
ROOT
ATOM      1  C   UNL     1      48.629   3.358  17.171  0.00  0.00    +0.000 A 
ATOM      2  C   UNL     1      49.318   2.149  17.010  0.00  0.00    +0.000 A 
ATOM      3  C   UNL     1      50.691   2.071  17.264  0.00  0.00    +0.000 A 
ATOM      4  C   UNL     1      51.408   3.198  17.690  0.00  0.00    +0.000 A 
ATOM      5  C   UNL     1      50.720   4.407  17.849  0.00  0.00    +0.000 A 
ATOM      6  C   UNL     1      49.345   4.485  17.596  0.00  0.00    +0.000 A 
ENDROOT
BRANCH   1   7
ATOM      7  C   UNL     1      47.136   3.422  16.963  0.00  0.00    +0.000 C 
BRANCH   7  10
ATOM      8  C   UNL     1      46.974   4.189  14.621  0.00  0.00    +0.000 C 
ATOM      9  O   UNL     1      47.406   3.117  14.200  0.00  0.00    +0.000 OA
ATOM     10  N   UNL     1      46.806   4.406  15.959  0.00  0.00    +0.000 N 
ATOM     11  H   UNL     1      46.386   5.267  16.282  0.00  0.00    +0.000 HD
BRANCH   8  19
ATOM     12  C   UNL     1      44.296   4.832  12.554  0.00  0.00    +0.000 A 
ATOM     13  N   UNL     1      43.345   5.371  11.764  0.00  0.00    +0.000 NA
ATOM     14  C   UNL     1      43.559   6.591  11.265  0.00  0.00    +0.000 A 
ATOM     15  N   UNL     1      44.635   7.352  11.445  0.00  0.00    +0.000 NA
ATOM     16  C   UNL     1      45.552   6.783  12.246  0.00  0.00    +0.000 A 
ATOM     17  S   UNL     1      47.001   7.605  12.573  0.00  0.00    +0.000 S 
ATOM     18  C   UNL     1      47.540   6.353  13.588  0.00  0.00    +0.000 A 
ATOM     19  C   UNL     1      46.642   5.298  13.707  0.00  0.00    +0.000 A 
ATOM     20  C   UNL     1      45.470   5.540  12.865  0.00  0.00    +0.000 A 
BRANCH  12  22
ATOM     21  C   UNL     1      43.463   2.675  12.109  0.00  0.00    +0.000 C 
ATOM     22  O   UNL     1      44.106   3.551  13.029  0.00  0.00    +0.000 OA
ENDBRANCH  12  22
ENDBRANCH   8  19
ENDBRANCH   7  10
ENDBRANCH   1   7
BRANCH   4  23
ATOM     23  C   UNL     1      52.892   3.102  17.981  0.00  0.00    +0.000 C 
BRANCH  23  24
ATOM     24  N   UNL     1      53.176   1.946  18.822  0.00  0.00    +0.000 NA
ATOM     25  H   UNL     1      52.528   1.195  18.582  0.00  0.00    +0.000 HD
BRANCH  24  26
ATOM     26  C   UNL     1      54.543   1.444  18.626  0.00  0.00    +0.000 C 
BRANCH  26  27
ATOM     27  C   UNL     1      54.549  -0.066  18.453  0.00  0.00    +0.000 A 
ATOM     28  C   UNL     1      54.763  -0.614  17.188  0.00  0.00    +0.000 A 
ATOM     29  C   UNL     1      54.831  -2.000  17.040  0.00  0.00    +0.000 A 
ATOM     30  C   UNL     1      55.099  -2.619  15.703  0.00  0.00    +0.000 C 
ATOM     31  C   UNL     1      54.662  -2.795  18.172  0.00  0.00    +0.000 A 
ATOM     32  C   UNL     1      54.441  -2.173  19.392  0.00  0.00    +0.000 A 
ATOM     33  N   UNL     1      54.384  -0.833  19.560  0.00  0.00    +0.000 NA
ENDBRANCH  26  27
ENDBRANCH  24  26
ENDBRANCH  23  24
ENDBRANCH   4  23
TORSDOF 8
ENDMDL
MODEL 7
REMARK VINA RESULT:    -6.698      2.411      3.341
REMARK INTER + INTRA:         -11.305
REMARK INTER:                 -10.473
REMARK INTRA:                  -0.832
REMARK UNBOUND:                -1.475
REMARK  Name = 
REMARK  10 active torsions:
REMARK  status: ('A' for Active; 'I' for Inactive)
REMARK    1  A    between atoms: C_1  and  O_2
REMARK    2  A    between atoms: O_2  and  C_3
REMARK    3  A    between atoms: C_10  and  C_11
REMARK    4  A    between atoms: N_13  and  C_14
REMARK    5  A    between atoms: C_14  and  C_15
REMARK    6  A    between atoms: C_18  and  C_19
REMARK    7  A    between atoms: C_19  and  N_20
REMARK    8  A    between atoms: N_20  and  C_21
REMARK    9  A    between atoms: C_21  and  C_22
REMARK   10  A    between atoms: C_24  and  C_25
REMARK                            x       y       z     vdW  Elec       q    Type
REMARK                         _______ _______ _______ _____ _____    ______ ____
ROOT
ATOM      1  C   UNL     1      48.698   7.362  14.642  0.00  0.00    +0.000 A 
ATOM      2  C   UNL     1      48.400   8.259  13.608  0.00  0.00    +0.000 A 
ATOM      3  C   UNL     1      47.590   7.870  12.537  0.00  0.00    +0.000 A 
ATOM      4  C   UNL     1      47.053   6.576  12.474  0.00  0.00    +0.000 A 
ATOM      5  C   UNL     1      47.352   5.678  13.507  0.00  0.00    +0.000 A 
ATOM      6  C   UNL     1      48.162   6.068  14.580  0.00  0.00    +0.000 A 
ENDROOT
BRANCH   1   7
ATOM      7  C   UNL     1      49.514   7.807  15.830  0.00  0.00    +0.000 C 
BRANCH   7  10
ATOM      8  C   UNL     1      50.284   6.252  17.588  0.00  0.00    +0.000 C 
ATOM      9  O   UNL     1      49.492   6.722  18.405  0.00  0.00    +0.000 OA
ATOM     10  N   UNL     1      50.343   6.725  16.308  0.00  0.00    +0.000 N 
ATOM     11  H   UNL     1      50.950   6.280  15.634  0.00  0.00    +0.000 HD
BRANCH   8  19
ATOM     12  C   UNL     1      50.276   2.841  17.110  0.00  0.00    +0.000 A 
ATOM     13  N   UNL     1      50.573   1.533  16.970  0.00  0.00    +0.000 NA
ATOM     14  C   UNL     1      51.748   1.102  17.434  0.00  0.00    +0.000 A 
ATOM     15  N   UNL     1      52.680   1.824  18.050  0.00  0.00    +0.000 NA
ATOM     16  C   UNL     1      52.350   3.122  18.159  0.00  0.00    +0.000 A 
ATOM     17  S   UNL     1      53.415   4.193  18.935  0.00  0.00    +0.000 S 
ATOM     18  C   UNL     1      52.380   5.509  18.647  0.00  0.00    +0.000 A 
ATOM     19  C   UNL     1      51.220   5.174  17.957  0.00  0.00    +0.000 A 
ATOM     20  C   UNL     1      51.186   3.733  17.706  0.00  0.00    +0.000 A 
BRANCH  12  22
ATOM     21  C   UNL     1      48.018   3.203  17.669  0.00  0.00    +0.000 C 
ATOM     22  O   UNL     1      49.042   3.284  16.682  0.00  0.00    +0.000 OA
ENDBRANCH  12  22
ENDBRANCH   8  19
ENDBRANCH   7  10
ENDBRANCH   1   7
BRANCH   4  23
ATOM     23  C   UNL     1      46.161   6.166  11.320  0.00  0.00    +0.000 C 
BRANCH  23  24
ATOM     24  N   UNL     1      44.942   5.537  11.812  0.00  0.00    +0.000 NA
ATOM     25  H   UNL     1      44.505   6.154  12.497  0.00  0.00    +0.000 HD
BRANCH  24  26
ATOM     26  C   UNL     1      43.972   5.296  10.736  0.00  0.00    +0.000 C 
BRANCH  26  27
ATOM     27  C   UNL     1      44.417   4.145   9.849  0.00  0.00    +0.000 A 
ATOM     28  C   UNL     1      45.223   4.400   8.739  0.00  0.00    +0.000 A 
ATOM     29  C   UNL     1      45.682   3.336   7.962  0.00  0.00    +0.000 A 
ATOM     30  C   UNL     1      46.582   3.572   6.789  0.00  0.00    +0.000 C 
ATOM     31  C   UNL     1      45.299   2.044   8.317  0.00  0.00    +0.000 A 
ATOM     32  C   UNL     1      44.484   1.875   9.427  0.00  0.00    +0.000 A 
ATOM     33  N   UNL     1      44.040   2.890  10.201  0.00  0.00    +0.000 NA
ENDBRANCH  26  27
ENDBRANCH  24  26
ENDBRANCH  23  24
ENDBRANCH   4  23
TORSDOF 8
ENDMDL
MODEL 8
REMARK VINA RESULT:    -6.514      2.333      3.274
REMARK INTER + INTRA:         -11.036
REMARK INTER:                  -9.879
REMARK INTRA:                  -1.157
REMARK UNBOUND:                -1.475
REMARK  Name = 
REMARK  10 active torsions:
REMARK  status: ('A' for Active; 'I' for Inactive)
REMARK    1  A    between atoms: C_1  and  O_2
REMARK    2  A    between atoms: O_2  and  C_3
REMARK    3  A    between atoms: C_10  and  C_11
REMARK    4  A    between atoms: N_13  and  C_14
REMARK    5  A    between atoms: C_14  and  C_15
REMARK    6  A    between atoms: C_18  and  C_19
REMARK    7  A    between atoms: C_19  and  N_20
REMARK    8  A    between atoms: N_20  and  C_21
REMARK    9  A    between atoms: C_21  and  C_22
REMARK   10  A    between atoms: C_24  and  C_25
REMARK                            x       y       z     vdW  Elec       q    Type
REMARK                         _______ _______ _______ _____ _____    ______ ____
ROOT
ATOM      1  C   UNL     1      47.470   8.385  12.530  0.00  0.00    +0.000 A 
ATOM      2  C   UNL     1      47.865   7.054  12.347  0.00  0.00    +0.000 A 
ATOM      3  C   UNL     1      46.921   6.061  12.067  0.00  0.00    +0.000 A 
ATOM      4  C   UNL     1      45.559   6.375  11.957  0.00  0.00    +0.000 A 
ATOM      5  C   UNL     1      45.163   7.706  12.141  0.00  0.00    +0.000 A 
ATOM      6  C   UNL     1      46.109   8.700  12.421  0.00  0.00    +0.000 A 
ENDROOT
BRANCH   1   7
ATOM      7  C   UNL     1      48.499   9.464  12.762  0.00  0.00    +0.000 C 
BRANCH   7  10
ATOM      8  C   UNL     1      50.783   8.623  13.182  0.00  0.00    +0.000 C 
ATOM      9  O   UNL     1      51.074   8.708  11.989  0.00  0.00    +0.000 OA
ATOM     10  N   UNL     1      49.546   8.985  13.634  0.00  0.00    +0.000 N 
ATOM     11  H   UNL     1      49.348   8.974  14.625  0.00  0.00    +0.000 HD
BRANCH   8  19
ATOM     12  C   UNL     1      50.450   6.710  16.026  0.00  0.00    +0.000 A 
ATOM     13  N   UNL     1      50.615   5.903  17.094  0.00  0.00    +0.000 NA
ATOM     14  C   UNL     1      51.859   5.667  17.517  0.00  0.00    +0.000 A 
ATOM     15  N   UNL     1      52.986   6.158  17.007  0.00  0.00    +0.000 NA
ATOM     16  C   UNL     1      52.777   6.947  15.939  0.00  0.00    +0.000 A 
ATOM     17  S   UNL     1      54.102   7.677  15.168  0.00  0.00    +0.000 S 
ATOM     18  C   UNL     1      53.092   8.402  14.010  0.00  0.00    +0.000 A 
ATOM     19  C   UNL     1      51.743   8.106  14.174  0.00  0.00    +0.000 A 
ATOM     20  C   UNL     1      51.555   7.268  15.358  0.00  0.00    +0.000 A 
BRANCH  12  22
ATOM     21  C   UNL     1      48.233   5.945  15.817  0.00  0.00    +0.000 C 
ATOM     22  O   UNL     1      49.166   7.002  15.616  0.00  0.00    +0.000 OA
ENDBRANCH  12  22
ENDBRANCH   8  19
ENDBRANCH   7  10
ENDBRANCH   1   7
BRANCH   4  23
ATOM     23  C   UNL     1      44.543   5.298  11.635  0.00  0.00    +0.000 C 
BRANCH  23  24
ATOM     24  N   UNL     1      44.295   5.240  10.200  0.00  0.00    +0.000 NA
ATOM     25  H   UNL     1      45.112   5.600   9.708  0.00  0.00    +0.000 HD
BRANCH  24  26
ATOM     26  C   UNL     1      44.056   3.867   9.737  0.00  0.00    +0.000 C 
BRANCH  26  27
ATOM     27  C   UNL     1      45.174   3.399   8.820  0.00  0.00    +0.000 A 
ATOM     28  C   UNL     1      45.464   2.037   8.726  0.00  0.00    +0.000 A 
ATOM     29  C   UNL     1      46.449   1.603   7.838  0.00  0.00    +0.000 A 
ATOM     30  C   UNL     1      46.757   0.146   7.683  0.00  0.00    +0.000 C 
ATOM     31  C   UNL     1      47.126   2.558   7.082  0.00  0.00    +0.000 A 
ATOM     32  C   UNL     1      46.787   3.894   7.243  0.00  0.00    +0.000 A 
ATOM     33  N   UNL     1      45.829   4.335   8.087  0.00  0.00    +0.000 NA
ENDBRANCH  26  27
ENDBRANCH  24  26
ENDBRANCH  23  24
ENDBRANCH   4  23
TORSDOF 8
ENDMDL
MODEL 9
REMARK VINA RESULT:    -6.343      3.761      9.361
REMARK INTER + INTRA:         -10.784
REMARK INTER:                  -9.438
REMARK INTRA:                  -1.346
REMARK UNBOUND:                -1.475
REMARK  Name = 
REMARK  10 active torsions:
REMARK  status: ('A' for Active; 'I' for Inactive)
REMARK    1  A    between atoms: C_1  and  O_2
REMARK    2  A    between atoms: O_2  and  C_3
REMARK    3  A    between atoms: C_10  and  C_11
REMARK    4  A    between atoms: N_13  and  C_14
REMARK    5  A    between atoms: C_14  and  C_15
REMARK    6  A    between atoms: C_18  and  C_19
REMARK    7  A    between atoms: C_19  and  N_20
REMARK    8  A    between atoms: N_20  and  C_21
REMARK    9  A    between atoms: C_21  and  C_22
REMARK   10  A    between atoms: C_24  and  C_25
REMARK                            x       y       z     vdW  Elec       q    Type
REMARK                         _______ _______ _______ _____ _____    ______ ____
ROOT
ATOM      1  C   UNL     1      48.519   4.423  17.576  0.00  0.00    +0.000 A 
ATOM      2  C   UNL     1      49.471   5.273  16.998  0.00  0.00    +0.000 A 
ATOM      3  C   UNL     1      50.483   5.844  17.775  0.00  0.00    +0.000 A 
ATOM      4  C   UNL     1      50.574   5.575  19.148  0.00  0.00    +0.000 A 
ATOM      5  C   UNL     1      49.622   4.726  19.727  0.00  0.00    +0.000 A 
ATOM      6  C   UNL     1      48.608   4.154  18.949  0.00  0.00    +0.000 A 
ENDROOT
BRANCH   1   7
ATOM      7  C   UNL     1      47.471   3.754  16.722  0.00  0.00    +0.000 C 
BRANCH   7  10
ATOM      8  C   UNL     1      46.892   4.339  14.393  0.00  0.00    +0.000 C 
ATOM      9  O   UNL     1      47.216   3.221  13.991  0.00  0.00    +0.000 OA
ATOM     10  N   UNL     1      46.980   4.667  15.716  0.00  0.00    +0.000 N 
ATOM     11  H   UNL     1      46.646   5.565  16.036  0.00  0.00    +0.000 HD
BRANCH   8  19
ATOM     12  C   UNL     1      43.935   4.838  12.700  0.00  0.00    +0.000 A 
ATOM     13  N   UNL     1      42.873   5.322  12.023  0.00  0.00    +0.000 NA
ATOM     14  C   UNL     1      43.000   6.505  11.417  0.00  0.00    +0.000 A 
ATOM     15  N   UNL     1      44.083   7.277  11.387  0.00  0.00    +0.000 NA
ATOM     16  C   UNL     1      45.113   6.764  12.082  0.00  0.00    +0.000 A 
ATOM     17  S   UNL     1      46.585   7.607  12.139  0.00  0.00    +0.000 S 
ATOM     18  C   UNL     1      47.279   6.428  13.146  0.00  0.00    +0.000 A 
ATOM     19  C   UNL     1      46.419   5.382  13.465  0.00  0.00    +0.000 A 
ATOM     20  C   UNL     1      45.135   5.567  12.789  0.00  0.00    +0.000 A 
BRANCH  12  22
ATOM     21  C   UNL     1      43.568   2.537  12.363  0.00  0.00    +0.000 C 
ATOM     22  O   UNL     1      43.830   3.592  13.283  0.00  0.00    +0.000 OA
ENDBRANCH  12  22
ENDBRANCH   8  19
ENDBRANCH   7  10
ENDBRANCH   1   7
BRANCH   4  23
ATOM     23  C   UNL     1      51.685   6.182  19.981  0.00  0.00    +0.000 C 
BRANCH  23  24
ATOM     24  N   UNL     1      52.969   6.035  19.308  0.00  0.00    +0.000 NA
ATOM     25  H   UNL     1      53.463   6.927  19.338  0.00  0.00    +0.000 HD
BRANCH  24  26
ATOM     26  C   UNL     1      53.818   5.026  19.955  0.00  0.00    +0.000 C 
BRANCH  26  27
ATOM     27  C   UNL     1      53.983   3.803  19.069  0.00  0.00    +0.000 A 
ATOM     28  C   UNL     1      52.869   3.023  18.756  0.00  0.00    +0.000 A 
ATOM     29  C   UNL     1      53.010   1.936  17.892  0.00  0.00    +0.000 A 
ATOM     30  C   UNL     1      51.827   1.103  17.504  0.00  0.00    +0.000 C 
ATOM     31  C   UNL     1      54.277   1.655  17.383  0.00  0.00    +0.000 A 
ATOM     32  C   UNL     1      55.336   2.472  17.753  0.00  0.00    +0.000 A 
ATOM     33  N   UNL     1      55.219   3.536  18.577  0.00  0.00    +0.000 NA
ENDBRANCH  26  27
ENDBRANCH  24  26
ENDBRANCH  23  24
ENDBRANCH   4  23
TORSDOF 8
ENDMDL
