MODEL 1
REMARK VINA RESULT:    -8.474      0.000      0.000
REMARK INTER + INTRA:         -13.554
REMARK INTER:                 -12.437
REMARK INTRA:                  -1.117
REMARK UNBOUND:                -1.117
REMARK  Name = 
REMARK  9 active torsions:
REMARK  status: ('A' for Active; 'I' for Inactive)
REMARK    1  A    between atoms: C_1  and  C_2
REMARK    2  A    between atoms: C_2  and  N_3
REMARK    3  A    between atoms: N_3  and  C_4
REMARK    4  A    between atoms: N_3  and  C_25
REMARK    5  A    between atoms: C_4  and  C_5
REMARK    6  A    between atoms: C_8  and  C_9
REMARK    7  A    between atoms: C_9  and  N_10
REMARK    8  A    between atoms: C_11  and  C_13
REMARK    9  A    between atoms: C_25  and  C_26
REMARK                            x       y       z     vdW  Elec       q    Type
REMARK                         _______ _______ _______ _____ _____    ______ ____
ROOT
ATOM      1  C   UNL     1      46.073   4.751  12.655  0.00  0.00    +0.000 A 
ATOM      2  C   UNL     1      46.648   5.963  12.249  0.00  0.00    +0.000 A 
ATOM      3  C   UNL     1      47.496   6.677  13.110  0.00  0.00    +0.000 A 
ATOM      4  C   UNL     1      47.837   6.168  14.371  0.00  0.00    +0.000 A 
ATOM      5  C   UNL     1      47.359   4.901  14.726  0.00  0.00    +0.000 A 
ATOM      6  C   UNL     1      46.482   4.206  13.882  0.00  0.00    +0.000 A 
ENDROOT
BRANCH   1   7
ATOM      7  C   UNL     1      44.924   4.128  11.870  0.00  0.00    +0.000 C 
BRANCH   7   8
ATOM      8  N   UNL     1      44.394   4.893  10.723  0.00  0.00    +0.000 NA
BRANCH   8  10
ATOM      9  C   UNL     1      42.616   5.457  12.515  0.00  0.00    +0.000 C 
ATOM     10  C   UNL     1      43.239   5.727  11.142  0.00  0.00    +0.000 C 
ENDBRANCH   8  10
BRANCH   8  11
ATOM     11  C   UNL     1      44.043   3.986   9.613  0.00  0.00    +0.000 C 
BRANCH  11  12
ATOM     12  C   UNL     1      45.202   3.457   8.787  0.00  0.00    +0.000 A 
ATOM     13  C   UNL     1      45.463   2.094   8.720  0.00  0.00    +0.000 A 
ATOM     14  C   UNL     1      46.449   1.662   7.844  0.00  0.00    +0.000 A 
ATOM     15 CL   UNL     1      46.788  -0.019   7.695  0.00  0.00    +0.000 Cl
ATOM     16  C   UNL     1      47.150   2.571   7.065  0.00  0.00    +0.000 A 
ATOM     17  C   UNL     1      46.849   3.910   7.219  0.00  0.00    +0.000 A 
ATOM     18  N   UNL     1      45.896   4.369   8.058  0.00  0.00    +0.000 NA
ENDBRANCH  11  12
ENDBRANCH   8  11
ENDBRANCH   7   8
ENDBRANCH   1   7
BRANCH   4  19
ATOM     19  C   UNL     1      48.648   6.982  15.349  0.00  0.00    +0.000 C 
BRANCH  19  20
ATOM     20  N   UNL     1      49.762   6.230  15.893  0.00  0.00    +0.000 N 
ATOM     21  C   UNL     1      49.710   5.720  17.169  0.00  0.00    +0.000 C 
ATOM     22  O   UNL     1      48.714   5.850  17.874  0.00  0.00    +0.000 OA
ATOM     23  H   UNL     1      50.658   6.300  15.415  0.00  0.00    +0.000 HD
BRANCH  21  24
ATOM     24  C   UNL     1      50.875   4.957  17.638  0.00  0.00    +0.000 A 
ATOM     25  C   UNL     1      51.946   5.629  18.217  0.00  0.00    +0.000 A 
ATOM     26  S   UNL     1      53.209   4.606  18.730  0.00  0.00    +0.000 S 
ATOM     27  C   UNL     1      52.396   3.228  18.155  0.00  0.00    +0.000 A 
ATOM     28  N   UNL     1      52.959   1.994  18.247  0.00  0.00    +0.000 NA
ATOM     29  C   UNL     1      52.252   1.041  17.740  0.00  0.00    +0.000 A 
ATOM     30  N   UNL     1      51.022   1.213  17.154  0.00  0.00    +0.000 N 
ATOM     31  C   UNL     1      50.396   2.432  17.072  0.00  0.00    +0.000 A 
ATOM     32  O   UNL     1      49.267   2.544  16.596  0.00  0.00    +0.000 OA
ATOM     33  C   UNL     1      51.157   3.542  17.602  0.00  0.00    +0.000 A 
ATOM     34  H   UNL     1      50.513   0.420  16.791  0.00  0.00    +0.000 HD
ENDBRANCH  21  24
ENDBRANCH  19  20
ENDBRANCH   4  19
TORSDOF 8
ENDMDL
MODEL 2
REMARK VINA RESULT:    -7.530      2.105      2.538
REMARK INTER + INTRA:         -12.169
REMARK INTER:                 -11.265
REMARK INTRA:                  -0.905
REMARK UNBOUND:                -1.117
REMARK  Name = 
REMARK  9 active torsions:
REMARK  status: ('A' for Active; 'I' for Inactive)
REMARK    1  A    between atoms: C_1  and  C_2
REMARK    2  A    between atoms: C_2  and  N_3
REMARK    3  A    between atoms: N_3  and  C_4
REMARK    4  A    between atoms: N_3  and  C_25
REMARK    5  A    between atoms: C_4  and  C_5
REMARK    6  A    between atoms: C_8  and  C_9
REMARK    7  A    between atoms: C_9  and  N_10
REMARK    8  A    between atoms: C_11  and  C_13
REMARK    9  A    between atoms: C_25  and  C_26
REMARK                            x       y       z     vdW  Elec       q    Type
REMARK                         _______ _______ _______ _____ _____    ______ ____
ROOT
ATOM      1  C   UNL     1      46.230   5.389  12.175  0.00  0.00    +0.000 A 
ATOM      2  C   UNL     1      46.534   5.119  13.516  0.00  0.00    +0.000 A 
ATOM      3  C   UNL     1      47.532   5.845  14.185  0.00  0.00    +0.000 A 
ATOM      4  C   UNL     1      48.206   6.897  13.549  0.00  0.00    +0.000 A 
ATOM      5  C   UNL     1      47.817   7.245  12.249  0.00  0.00    +0.000 A 
ATOM      6  C   UNL     1      46.848   6.495  11.569  0.00  0.00    +0.000 A 
ENDROOT
BRANCH   1   7
ATOM      7  C   UNL     1      45.385   4.423  11.353  0.00  0.00    +0.000 C 
BRANCH   7   8
ATOM      8  N   UNL     1      44.241   4.988  10.608  0.00  0.00    +0.000 NA
BRANCH   8  10
ATOM      9  C   UNL     1      43.072   4.402  12.840  0.00  0.00    +0.000 C 
ATOM     10  C   UNL     1      43.065   5.145  11.500  0.00  0.00    +0.000 C 
ENDBRANCH   8  10
BRANCH   8  11
ATOM     11  C   UNL     1      43.930   4.157   9.429  0.00  0.00    +0.000 C 
BRANCH  11  12
ATOM     12  C   UNL     1      45.119   3.566   8.693  0.00  0.00    +0.000 A 
ATOM     13  C   UNL     1      45.336   2.193   8.681  0.00  0.00    +0.000 A 
ATOM     14  C   UNL     1      46.359   1.702   7.880  0.00  0.00    +0.000 A 
ATOM     15 CL   UNL     1      46.647   0.007   7.800  0.00  0.00    +0.000 Cl
ATOM     16  C   UNL     1      47.139   2.565   7.123  0.00  0.00    +0.000 A 
ATOM     17  C   UNL     1      46.875   3.916   7.220  0.00  0.00    +0.000 A 
ATOM     18  N   UNL     1      45.889   4.432   7.984  0.00  0.00    +0.000 NA
ENDBRANCH  11  12
ENDBRANCH   8  11
ENDBRANCH   7   8
ENDBRANCH   1   7
BRANCH   4  19
ATOM     19  C   UNL     1      49.362   7.602  14.217  0.00  0.00    +0.000 C 
BRANCH  19  20
ATOM     20  N   UNL     1      49.285   7.522  15.664  0.00  0.00    +0.000 N 
ATOM     21  C   UNL     1      50.238   6.836  16.380  0.00  0.00    +0.000 C 
ATOM     22  O   UNL     1      51.198   6.304  15.832  0.00  0.00    +0.000 OA
ATOM     23  H   UNL     1      48.401   7.764  16.104  0.00  0.00    +0.000 HD
BRANCH  21  24
ATOM     24  C   UNL     1      50.095   6.816  17.843  0.00  0.00    +0.000 A 
ATOM     25  C   UNL     1      50.551   7.896  18.591  0.00  0.00    +0.000 A 
ATOM     26  S   UNL     1      50.294   7.735  20.267  0.00  0.00    +0.000 S 
ATOM     27  C   UNL     1      49.608   6.192  20.067  0.00  0.00    +0.000 A 
ATOM     28  N   UNL     1      49.199   5.463  21.138  0.00  0.00    +0.000 NA
ATOM     29  C   UNL     1      48.731   4.297  20.848  0.00  0.00    +0.000 A 
ATOM     30  N   UNL     1      48.627   3.796  19.574  0.00  0.00    +0.000 N 
ATOM     31  C   UNL     1      48.991   4.508  18.457  0.00  0.00    +0.000 A 
ATOM     32  O   UNL     1      48.828   4.055  17.325  0.00  0.00    +0.000 OA
ATOM     33  C   UNL     1      49.548   5.815  18.728  0.00  0.00    +0.000 A 
ATOM     34  H   UNL     1      48.235   2.879  19.414  0.00  0.00    +0.000 HD
ENDBRANCH  21  24
ENDBRANCH  19  20
ENDBRANCH   4  19
TORSDOF 8
ENDMDL
MODEL 3
REMARK VINA RESULT:    -7.505      4.076      8.812
REMARK INTER + INTRA:         -12.132
REMARK INTER:                 -10.394
REMARK INTRA:                  -1.738
REMARK UNBOUND:                -1.117
REMARK  Name = 
REMARK  9 active torsions:
REMARK  status: ('A' for Active; 'I' for Inactive)
REMARK    1  A    between atoms: C_1  and  C_2
REMARK    2  A    between atoms: C_2  and  N_3
REMARK    3  A    between atoms: N_3  and  C_4
REMARK    4  A    between atoms: N_3  and  C_25
REMARK    5  A    between atoms: C_4  and  C_5
REMARK    6  A    between atoms: C_8  and  C_9
REMARK    7  A    between atoms: C_9  and  N_10
REMARK    8  A    between atoms: C_11  and  C_13
REMARK    9  A    between atoms: C_25  and  C_26
REMARK                            x       y       z     vdW  Elec       q    Type
REMARK                         _______ _______ _______ _____ _____    ______ ____
ROOT
ATOM      1  C   UNL     1      49.111   8.247  15.963  0.00  0.00    +0.000 A 
ATOM      2  C   UNL     1      49.460   7.132  15.189  0.00  0.00    +0.000 A 
ATOM      3  C   UNL     1      49.044   7.029  13.852  0.00  0.00    +0.000 A 
ATOM      4  C   UNL     1      48.323   8.064  13.241  0.00  0.00    +0.000 A 
ATOM      5  C   UNL     1      48.079   9.229  13.978  0.00  0.00    +0.000 A 
ATOM      6  C   UNL     1      48.461   9.316  15.323  0.00  0.00    +0.000 A 
ENDROOT
BRANCH   1   7
ATOM      7  C   UNL     1      49.283   8.234  17.477  0.00  0.00    +0.000 C 
BRANCH   7   8
ATOM      8  N   UNL     1      48.270   7.506  18.268  0.00  0.00    +0.000 NA
BRANCH   8  10
ATOM      9  C   UNL     1      47.504   9.885  18.934  0.00  0.00    +0.000 C 
ATOM     10  C   UNL     1      47.658   8.401  19.283  0.00  0.00    +0.000 C 
ENDBRANCH   8  10
BRANCH   8  11
ATOM     11  C   UNL     1      48.862   6.302  18.884  0.00  0.00    +0.000 C 
BRANCH  11  12
ATOM     12  C   UNL     1      48.722   5.010  18.098  0.00  0.00    +0.000 A 
ATOM     13  C   UNL     1      49.801   4.146  17.954  0.00  0.00    +0.000 A 
ATOM     14  C   UNL     1      49.576   2.920  17.343  0.00  0.00    +0.000 A 
ATOM     15 CL   UNL     1      50.869   1.797  17.173  0.00  0.00    +0.000 Cl
ATOM     16  C   UNL     1      48.310   2.579  16.888  0.00  0.00    +0.000 A 
ATOM     17  C   UNL     1      47.304   3.511  17.043  0.00  0.00    +0.000 A 
ATOM     18  N   UNL     1      47.481   4.711  17.634  0.00  0.00    +0.000 NA
ENDBRANCH  11  12
ENDBRANCH   8  11
ENDBRANCH   7   8
ENDBRANCH   1   7
BRANCH   4  19
ATOM     19  C   UNL     1      47.768   7.911  11.845  0.00  0.00    +0.000 C 
BRANCH  19  20
ATOM     20  N   UNL     1      47.045   6.664  11.680  0.00  0.00    +0.000 N 
ATOM     21  C   UNL     1      45.676   6.624  11.807  0.00  0.00    +0.000 C 
ATOM     22  O   UNL     1      45.019   7.637  12.025  0.00  0.00    +0.000 OA
ATOM     23  H   UNL     1      47.579   5.800  11.716  0.00  0.00    +0.000 HD
BRANCH  21  24
ATOM     24  C   UNL     1      45.019   5.324  11.610  0.00  0.00    +0.000 A 
ATOM     25  C   UNL     1      44.322   4.742  12.663  0.00  0.00    +0.000 A 
ATOM     26  S   UNL     1      43.598   3.250  12.273  0.00  0.00    +0.000 S 
ATOM     27  C   UNL     1      44.228   3.297  10.695  0.00  0.00    +0.000 A 
ATOM     28  N   UNL     1      44.011   2.277   9.824  0.00  0.00    +0.000 NA
ATOM     29  C   UNL     1      44.575   2.423   8.673  0.00  0.00    +0.000 A 
ATOM     30  N   UNL     1      45.334   3.509   8.312  0.00  0.00    +0.000 N 
ATOM     31  C   UNL     1      45.550   4.582   9.142  0.00  0.00    +0.000 A 
ATOM     32  O   UNL     1      46.184   5.567   8.767  0.00  0.00    +0.000 OA
ATOM     33  C   UNL     1      44.961   4.457  10.457  0.00  0.00    +0.000 A 
ATOM     34  H   UNL     1      45.735   3.569   7.386  0.00  0.00    +0.000 HD
ENDBRANCH  21  24
ENDBRANCH  19  20
ENDBRANCH   4  19
TORSDOF 8
ENDMDL
MODEL 4
REMARK VINA RESULT:    -6.908      2.658      4.387
REMARK INTER + INTRA:         -11.256
REMARK INTER:                  -9.947
REMARK INTRA:                  -1.309
REMARK UNBOUND:                -1.117
REMARK  Name = 
REMARK  9 active torsions:
REMARK  status: ('A' for Active; 'I' for Inactive)
REMARK    1  A    between atoms: C_1  and  C_2
REMARK    2  A    between atoms: C_2  and  N_3
REMARK    3  A    between atoms: N_3  and  C_4
REMARK    4  A    between atoms: N_3  and  C_25
REMARK    5  A    between atoms: C_4  and  C_5
REMARK    6  A    between atoms: C_8  and  C_9
REMARK    7  A    between atoms: C_9  and  N_10
REMARK    8  A    between atoms: C_11  and  C_13
REMARK    9  A    between atoms: C_25  and  C_26
REMARK                            x       y       z     vdW  Elec       q    Type
REMARK                         _______ _______ _______ _____ _____    ______ ____
ROOT
ATOM      1  C   UNL     1      47.956   6.212  14.936  0.00  0.00    +0.000 A 
ATOM      2  C   UNL     1      47.260   5.013  14.728  0.00  0.00    +0.000 A 
ATOM      3  C   UNL     1      47.347   3.964  15.657  0.00  0.00    +0.000 A 
ATOM      4  C   UNL     1      48.081   4.110  16.841  0.00  0.00    +0.000 A 
ATOM      5  C   UNL     1      48.676   5.350  17.105  0.00  0.00    +0.000 A 
ATOM      6  C   UNL     1      48.620   6.384  16.161  0.00  0.00    +0.000 A 
ENDROOT
BRANCH   1   7
ATOM      7  C   UNL     1      48.122   7.227  13.811  0.00  0.00    +0.000 C 
BRANCH   7   8
ATOM      8  N   UNL     1      47.532   6.887  12.500  0.00  0.00    +0.000 NA
BRANCH   8  10
ATOM      9  C   UNL     1      49.832   7.750  11.691  0.00  0.00    +0.000 C 
ATOM     10  C   UNL     1      48.362   7.435  11.397  0.00  0.00    +0.000 C 
ENDBRANCH   8  10
BRANCH   8  11
ATOM     11  C   UNL     1      46.135   7.358  12.422  0.00  0.00    +0.000 C 
BRANCH  11  12
ATOM     12  C   UNL     1      45.102   6.326  12.007  0.00  0.00    +0.000 A 
ATOM     13  C   UNL     1      45.173   5.713  10.762  0.00  0.00    +0.000 A 
ATOM     14  C   UNL     1      44.282   4.681  10.492  0.00  0.00    +0.000 A 
ATOM     15 CL   UNL     1      44.351   3.863   8.980  0.00  0.00    +0.000 Cl
ATOM     16  C   UNL     1      43.352   4.286  11.442  0.00  0.00    +0.000 A 
ATOM     17  C   UNL     1      43.330   4.972  12.640  0.00  0.00    +0.000 A 
ATOM     18  N   UNL     1      44.179   5.976  12.940  0.00  0.00    +0.000 NA
ENDBRANCH  11  12
ENDBRANCH   8  11
ENDBRANCH   7   8
ENDBRANCH   1   7
BRANCH   4  19
ATOM     19  C   UNL     1      48.280   2.949  17.785  0.00  0.00    +0.000 C 
BRANCH  19  20
ATOM     20  N   UNL     1      49.682   2.721  18.081  0.00  0.00    +0.000 N 
ATOM     21  C   UNL     1      50.484   2.036  17.198  0.00  0.00    +0.000 C 
ATOM     22  O   UNL     1      50.056   1.629  16.123  0.00  0.00    +0.000 OA
ATOM     23  H   UNL     1      49.990   2.856  19.041  0.00  0.00    +0.000 HD
BRANCH  21  24
ATOM     24  C   UNL     1      51.896   1.861  17.567  0.00  0.00    +0.000 A 
ATOM     25  C   UNL     1      52.404   0.580  17.746  0.00  0.00    +0.000 A 
ATOM     26  S   UNL     1      54.059   0.541  18.147  0.00  0.00    +0.000 S 
ATOM     27  C   UNL     1      54.152   2.238  18.147  0.00  0.00    +0.000 A 
ATOM     28  N   UNL     1      55.312   2.876  18.459  0.00  0.00    +0.000 NA
ATOM     29  C   UNL     1      55.235   4.164  18.456  0.00  0.00    +0.000 A 
ATOM     30  N   UNL     1      54.097   4.874  18.159  0.00  0.00    +0.000 N 
ATOM     31  C   UNL     1      52.914   4.277  17.800  0.00  0.00    +0.000 A 
ATOM     32  O   UNL     1      51.930   4.942  17.480  0.00  0.00    +0.000 OA
ATOM     33  C   UNL     1      52.937   2.831  17.814  0.00  0.00    +0.000 A 
ATOM     34  H   UNL     1      54.110   5.884  18.158  0.00  0.00    +0.000 HD
ENDBRANCH  21  24
ENDBRANCH  19  20
ENDBRANCH   4  19
TORSDOF 8
ENDMDL
MODEL 5
REMARK VINA RESULT:    -6.900      4.783      6.112
REMARK INTER + INTRA:         -11.245
REMARK INTER:                  -9.945
REMARK INTRA:                  -1.300
REMARK UNBOUND:                -1.117
REMARK  Name = 
REMARK  9 active torsions:
REMARK  status: ('A' for Active; 'I' for Inactive)
REMARK    1  A    between atoms: C_1  and  C_2
REMARK    2  A    between atoms: C_2  and  N_3
REMARK    3  A    between atoms: N_3  and  C_4
REMARK    4  A    between atoms: N_3  and  C_25
REMARK    5  A    between atoms: C_4  and  C_5
REMARK    6  A    between atoms: C_8  and  C_9
REMARK    7  A    between atoms: C_9  and  N_10
REMARK    8  A    between atoms: C_11  and  C_13
REMARK    9  A    between atoms: C_25  and  C_26
REMARK                            x       y       z     vdW  Elec       q    Type
REMARK                         _______ _______ _______ _____ _____    ______ ____
ROOT
ATOM      1  C   UNL     1      46.471   5.716  12.361  0.00  0.00    +0.000 A 
ATOM      2  C   UNL     1      46.972   6.623  11.416  0.00  0.00    +0.000 A 
ATOM      3  C   UNL     1      47.976   7.540  11.766  0.00  0.00    +0.000 A 
ATOM      4  C   UNL     1      48.544   7.532  13.047  0.00  0.00    +0.000 A 
ATOM      5  C   UNL     1      48.128   6.547  13.952  0.00  0.00    +0.000 A 
ATOM      6  C   UNL     1      47.100   5.657  13.615  0.00  0.00    +0.000 A 
ENDROOT
BRANCH   1   7
ATOM      7  C   UNL     1      45.188   4.937  12.095  0.00  0.00    +0.000 C 
BRANCH   7   8
ATOM      8  N   UNL     1      44.539   5.129  10.782  0.00  0.00    +0.000 NA
BRANCH   8  10
ATOM      9  C   UNL     1      42.289   5.529  11.993  0.00  0.00    +0.000 C 
ATOM     10  C   UNL     1      43.305   5.943  10.924  0.00  0.00    +0.000 C 
ENDBRANCH   8  10
BRANCH   8  11
ATOM     11  C   UNL     1      44.268   3.826  10.143  0.00  0.00    +0.000 C 
BRANCH  11  12
ATOM     12  C   UNL     1      45.274   3.368   9.102  0.00  0.00    +0.000 A 
ATOM     13  C   UNL     1      45.563   2.018   8.940  0.00  0.00    +0.000 A 
ATOM     14  C   UNL     1      46.387   1.651   7.884  0.00  0.00    +0.000 A 
ATOM     15 CL   UNL     1      46.746  -0.010   7.615  0.00  0.00    +0.000 Cl
ATOM     16  C   UNL     1      46.904   2.610   7.025  0.00  0.00    +0.000 A 
ATOM     17  C   UNL     1      46.592   3.931   7.280  0.00  0.00    +0.000 A 
ATOM     18  N   UNL     1      45.794   4.327   8.293  0.00  0.00    +0.000 NA
ENDBRANCH  11  12
ENDBRANCH   8  11
ENDBRANCH   7   8
ENDBRANCH   1   7
BRANCH   4  19
ATOM     19  C   UNL     1      49.535   8.590  13.470  0.00  0.00    +0.000 C 
BRANCH  19  20
ATOM     20  N   UNL     1      50.361   9.035  12.364  0.00  0.00    +0.000 N 
ATOM     21  C   UNL     1      51.686   9.349  12.559  0.00  0.00    +0.000 C 
ATOM     22  O   UNL     1      52.221   9.230  13.656  0.00  0.00    +0.000 OA
ATOM     23  H   UNL     1      49.890   9.342  11.516  0.00  0.00    +0.000 HD
BRANCH  21  24
ATOM     24  C   UNL     1      52.456   9.779  11.382  0.00  0.00    +0.000 A 
ATOM     25  C   UNL     1      53.017  11.050  11.358  0.00  0.00    +0.000 A 
ATOM     26  S   UNL     1      53.898  11.390   9.940  0.00  0.00    +0.000 S 
ATOM     27  C   UNL     1      53.524   9.869   9.280  0.00  0.00    +0.000 A 
ATOM     28  N   UNL     1      53.949   9.522   8.036  0.00  0.00    +0.000 NA
ATOM     29  C   UNL     1      53.565   8.355   7.643  0.00  0.00    +0.000 A 
ATOM     30  N   UNL     1      52.797   7.496   8.391  0.00  0.00    +0.000 N 
ATOM     31  C   UNL     1      52.377   7.785   9.666  0.00  0.00    +0.000 A 
ATOM     32  O   UNL     1      51.742   6.970  10.334  0.00  0.00    +0.000 OA
ATOM     33  C   UNL     1      52.757   9.095  10.147  0.00  0.00    +0.000 A 
ATOM     34  H   UNL     1      52.545   6.587   8.030  0.00  0.00    +0.000 HD
ENDBRANCH  21  24
ENDBRANCH  19  20
ENDBRANCH   4  19
TORSDOF 8
ENDMDL
MODEL 6
REMARK VINA RESULT:    -6.881      3.951      9.146
REMARK INTER + INTRA:         -11.216
REMARK INTER:                  -9.528
REMARK INTRA:                  -1.688
REMARK UNBOUND:                -1.117
REMARK  Name = 
REMARK  9 active torsions:
REMARK  status: ('A' for Active; 'I' for Inactive)
REMARK    1  A    between atoms: C_1  and  C_2
REMARK    2  A    between atoms: C_2  and  N_3
REMARK    3  A    between atoms: N_3  and  C_4
REMARK    4  A    between atoms: N_3  and  C_25
REMARK    5  A    between atoms: C_4  and  C_5
REMARK    6  A    between atoms: C_8  and  C_9
REMARK    7  A    between atoms: C_9  and  N_10
REMARK    8  A    between atoms: C_11  and  C_13
REMARK    9  A    between atoms: C_25  and  C_26
REMARK                            x       y       z     vdW  Elec       q    Type
REMARK                         _______ _______ _______ _____ _____    ______ ____
ROOT
ATOM      1  C   UNL     1      49.166   7.955  16.446  0.00  0.00    +0.000 A 
ATOM      2  C   UNL     1      48.314   8.950  15.947  0.00  0.00    +0.000 A 
ATOM      3  C   UNL     1      47.828   8.884  14.632  0.00  0.00    +0.000 A 
ATOM      4  C   UNL     1      48.133   7.794  13.805  0.00  0.00    +0.000 A 
ATOM      5  C   UNL     1      48.885   6.742  14.344  0.00  0.00    +0.000 A 
ATOM      6  C   UNL     1      49.400   6.826  15.644  0.00  0.00    +0.000 A 
ENDROOT
BRANCH   1   7
ATOM      7  C   UNL     1      49.940   8.164  17.743  0.00  0.00    +0.000 C 
BRANCH   7   8
ATOM      8  N   UNL     1      49.287   7.739  18.997  0.00  0.00    +0.000 NA
BRANCH   8  10
ATOM      9  C   UNL     1      47.778   9.122  20.579  0.00  0.00    +0.000 C 
ATOM     10  C   UNL     1      49.144   8.889  19.927  0.00  0.00    +0.000 C 
ENDBRANCH   8  10
BRANCH   8  11
ATOM     11  C   UNL     1      50.028   6.622  19.615  0.00  0.00    +0.000 C 
BRANCH  11  12
ATOM     12  C   UNL     1      49.925   5.280  18.912  0.00  0.00    +0.000 A 
ATOM     13  C   UNL     1      48.685   4.722  18.626  0.00  0.00    +0.000 A 
ATOM     14  C   UNL     1      48.652   3.562  17.864  0.00  0.00    +0.000 A 
ATOM     15 CL   UNL     1      47.142   2.849  17.450  0.00  0.00    +0.000 Cl
ATOM     16  C   UNL     1      49.829   2.983  17.409  0.00  0.00    +0.000 A 
ATOM     17  C   UNL     1      51.017   3.586  17.767  0.00  0.00    +0.000 A 
ATOM     18  N   UNL     1      51.090   4.714  18.504  0.00  0.00    +0.000 NA
ENDBRANCH  11  12
ENDBRANCH   8  11
ENDBRANCH   7   8
ENDBRANCH   1   7
BRANCH   4  19
ATOM     19  C   UNL     1      47.718   7.773  12.354  0.00  0.00    +0.000 C 
BRANCH  19  20
ATOM     20  N   UNL     1      47.015   6.553  12.006  0.00  0.00    +0.000 N 
ATOM     21  C   UNL     1      45.669   6.423  12.255  0.00  0.00    +0.000 C 
ATOM     22  O   UNL     1      45.012   7.337  12.741  0.00  0.00    +0.000 OA
ATOM     23  H   UNL     1      47.574   5.726  11.810  0.00  0.00    +0.000 HD
BRANCH  21  24
ATOM     24  C   UNL     1      45.030   5.159  11.858  0.00  0.00    +0.000 A 
ATOM     25  C   UNL     1      44.329   4.420  12.804  0.00  0.00    +0.000 A 
ATOM     26  S   UNL     1      43.627   2.995  12.187  0.00  0.00    +0.000 S 
ATOM     27  C   UNL     1      44.274   3.284  10.642  0.00  0.00    +0.000 A 
ATOM     28  N   UNL     1      44.078   2.403   9.625  0.00  0.00    +0.000 NA
ATOM     29  C   UNL     1      44.653   2.725   8.516  0.00  0.00    +0.000 A 
ATOM     30  N   UNL     1      45.403   3.860   8.330  0.00  0.00    +0.000 N 
ATOM     31  C   UNL     1      45.597   4.799   9.314  0.00  0.00    +0.000 A 
ATOM     32  O   UNL     1      46.222   5.836   9.098  0.00  0.00    +0.000 OA
ATOM     33  C   UNL     1      44.996   4.474  10.589  0.00  0.00    +0.000 A 
ATOM     34  H   UNL     1      45.813   4.062   7.430  0.00  0.00    +0.000 HD
ENDBRANCH  21  24
ENDBRANCH  19  20
ENDBRANCH   4  19
TORSDOF 8
ENDMDL
MODEL 7
REMARK VINA RESULT:    -6.701      4.009      9.209
REMARK INTER + INTRA:         -10.952
REMARK INTER:                  -9.199
REMARK INTRA:                  -1.753
REMARK UNBOUND:                -1.117
REMARK  Name = 
REMARK  9 active torsions:
REMARK  status: ('A' for Active; 'I' for Inactive)
REMARK    1  A    between atoms: C_1  and  C_2
REMARK    2  A    between atoms: C_2  and  N_3
REMARK    3  A    between atoms: N_3  and  C_4
REMARK    4  A    between atoms: N_3  and  C_25
REMARK    5  A    between atoms: C_4  and  C_5
REMARK    6  A    between atoms: C_8  and  C_9
REMARK    7  A    between atoms: C_9  and  N_10
REMARK    8  A    between atoms: C_11  and  C_13
REMARK    9  A    between atoms: C_25  and  C_26
REMARK                            x       y       z     vdW  Elec       q    Type
REMARK                         _______ _______ _______ _____ _____    ______ ____
ROOT
ATOM      1  C   UNL     1      51.205   4.577  18.190  0.00  0.00    +0.000 A 
ATOM      2  C   UNL     1      50.108   5.435  18.348  0.00  0.00    +0.000 A 
ATOM      3  C   UNL     1      48.829   5.050  17.915  0.00  0.00    +0.000 A 
ATOM      4  C   UNL     1      48.605   3.778  17.372  0.00  0.00    +0.000 A 
ATOM      5  C   UNL     1      49.677   2.878  17.326  0.00  0.00    +0.000 A 
ATOM      6  C   UNL     1      50.961   3.275  17.723  0.00  0.00    +0.000 A 
ENDROOT
BRANCH   1   7
ATOM      7  C   UNL     1      52.630   5.088  18.364  0.00  0.00    +0.000 C 
BRANCH   7   8
ATOM      8  N   UNL     1      53.277   5.704  17.188  0.00  0.00    +0.000 NA
BRANCH   8  10
ATOM      9  C   UNL     1      54.934   3.747  17.528  0.00  0.00    +0.000 C 
ATOM     10  C   UNL     1      54.643   5.154  16.996  0.00  0.00    +0.000 C 
ENDBRANCH   8  10
BRANCH   8  11
ATOM     11  C   UNL     1      53.290   7.175  17.315  0.00  0.00    +0.000 C 
BRANCH  11  12
ATOM     12  C   UNL     1      52.140   7.914  16.655  0.00  0.00    +0.000 A 
ATOM     13  C   UNL     1      51.805   7.667  15.329  0.00  0.00    +0.000 A 
ATOM     14  C   UNL     1      50.662   8.272  14.822  0.00  0.00    +0.000 A 
ATOM     15 CL   UNL     1      50.181   7.970  13.198  0.00  0.00    +0.000 Cl
ATOM     16  C   UNL     1      49.887   9.100  15.622  0.00  0.00    +0.000 A 
ATOM     17  C   UNL     1      50.312   9.316  16.918  0.00  0.00    +0.000 A 
ATOM     18  N   UNL     1      51.414   8.746  17.448  0.00  0.00    +0.000 NA
ENDBRANCH  11  12
ENDBRANCH   8  11
ENDBRANCH   7   8
ENDBRANCH   1   7
BRANCH   4  19
ATOM     19  C   UNL     1      47.263   3.401  16.794  0.00  0.00    +0.000 C 
BRANCH  19  20
ATOM     20  N   UNL     1      46.770   4.398  15.863  0.00  0.00    +0.000 N 
ATOM     21  C   UNL     1      46.828   4.181  14.506  0.00  0.00    +0.000 C 
ATOM     22  O   UNL     1      47.259   3.131  14.039  0.00  0.00    +0.000 OA
ATOM     23  H   UNL     1      46.617   5.339  16.216  0.00  0.00    +0.000 HD
BRANCH  21  24
ATOM     24  C   UNL     1      46.295   5.236  13.632  0.00  0.00    +0.000 A 
ATOM     25  C   UNL     1      47.029   6.400  13.437  0.00  0.00    +0.000 A 
ATOM     26  S   UNL     1      46.291   7.515  12.381  0.00  0.00    +0.000 S 
ATOM     27  C   UNL     1      44.936   6.508  12.181  0.00  0.00    +0.000 A 
ATOM     28  N   UNL     1      43.885   6.894  11.411  0.00  0.00    +0.000 NA
ATOM     29  C   UNL     1      42.908   6.052  11.374  0.00  0.00    +0.000 A 
ATOM     30  N   UNL     1      42.893   4.849  12.035  0.00  0.00    +0.000 N 
ATOM     31  C   UNL     1      43.946   4.398  12.793  0.00  0.00    +0.000 A 
ATOM     32  O   UNL     1      43.927   3.288  13.323  0.00  0.00    +0.000 OA
ATOM     33  C   UNL     1      45.058   5.316  12.891  0.00  0.00    +0.000 A 
ATOM     34  H   UNL     1      42.101   4.227  11.950  0.00  0.00    +0.000 HD
ENDBRANCH  21  24
ENDBRANCH  19  20
ENDBRANCH   4  19
TORSDOF 8
ENDMDL
MODEL 8
REMARK VINA RESULT:    -6.410      5.778      8.824
REMARK INTER + INTRA:         -10.525
REMARK INTER:                  -9.320
REMARK INTRA:                  -1.205
REMARK UNBOUND:                -1.117
REMARK  Name = 
REMARK  9 active torsions:
REMARK  status: ('A' for Active; 'I' for Inactive)
REMARK    1  A    between atoms: C_1  and  C_2
REMARK    2  A    between atoms: C_2  and  N_3
REMARK    3  A    between atoms: N_3  and  C_4
REMARK    4  A    between atoms: N_3  and  C_25
REMARK    5  A    between atoms: C_4  and  C_5
REMARK    6  A    between atoms: C_8  and  C_9
REMARK    7  A    between atoms: C_9  and  N_10
REMARK    8  A    between atoms: C_11  and  C_13
REMARK    9  A    between atoms: C_25  and  C_26
REMARK                            x       y       z     vdW  Elec       q    Type
REMARK                         _______ _______ _______ _____ _____    ______ ____
ROOT
ATOM      1  C   UNL     1      50.355   9.090  11.358  0.00  0.00    +0.000 A 
ATOM      2  C   UNL     1      50.084   7.750  11.668  0.00  0.00    +0.000 A 
ATOM      3  C   UNL     1      48.847   7.378  12.217  0.00  0.00    +0.000 A 
ATOM      4  C   UNL     1      47.832   8.324  12.412  0.00  0.00    +0.000 A 
ATOM      5  C   UNL     1      48.061   9.639  11.991  0.00  0.00    +0.000 A 
ATOM      6  C   UNL     1      49.309  10.018  11.478  0.00  0.00    +0.000 A 
ENDROOT
BRANCH   1   7
ATOM      7  C   UNL     1      51.777   9.552  11.059  0.00  0.00    +0.000 C 
BRANCH   7   8
ATOM      8  N   UNL     1      52.669   8.597  10.370  0.00  0.00    +0.000 NA
BRANCH   8  10
ATOM      9  C   UNL     1      54.434   7.211  11.656  0.00  0.00    +0.000 C 
ATOM     10  C   UNL     1      53.992   8.543  11.042  0.00  0.00    +0.000 C 
ENDBRANCH   8  10
BRANCH   8  11
ATOM     11  C   UNL     1      52.792   8.942   8.940  0.00  0.00    +0.000 C 
BRANCH  11  12
ATOM     12  C   UNL     1      53.526   7.937   8.070  0.00  0.00    +0.000 A 
ATOM     13  C   UNL     1      53.070   6.629   7.957  0.00  0.00    +0.000 A 
ATOM     14  C   UNL     1      53.701   5.795   7.044  0.00  0.00    +0.000 A 
ATOM     15 CL   UNL     1      53.153   4.177   6.838  0.00  0.00    +0.000 Cl
ATOM     16  C   UNL     1      54.757   6.262   6.274  0.00  0.00    +0.000 A 
ATOM     17  C   UNL     1      55.166   7.566   6.474  0.00  0.00    +0.000 A 
ATOM     18  N   UNL     1      54.577   8.407   7.350  0.00  0.00    +0.000 NA
ENDBRANCH  11  12
ENDBRANCH   8  11
ENDBRANCH   7   8
ENDBRANCH   1   7
BRANCH   4  19
ATOM     19  C   UNL     1      46.546   7.957  13.113  0.00  0.00    +0.000 C 
BRANCH  19  20
ATOM     20  N   UNL     1      46.064   6.647  12.716  0.00  0.00    +0.000 N 
ATOM     21  C   UNL     1      45.043   6.522  11.803  0.00  0.00    +0.000 C 
ATOM     22  O   UNL     1      44.534   7.501  11.268  0.00  0.00    +0.000 OA
ATOM     23  H   UNL     1      46.319   5.854  13.299  0.00  0.00    +0.000 HD
BRANCH  21  24
ATOM     24  C   UNL     1      44.624   5.159  11.444  0.00  0.00    +0.000 A 
ATOM     25  C   UNL     1      43.857   4.421  12.338  0.00  0.00    +0.000 A 
ATOM     26  S   UNL     1      43.432   2.872  11.770  0.00  0.00    +0.000 S 
ATOM     27  C   UNL     1      44.298   3.106  10.327  0.00  0.00    +0.000 A 
ATOM     28  N   UNL     1      44.378   2.123   9.391  0.00  0.00    +0.000 NA
ATOM     29  C   UNL     1      45.095   2.419   8.361  0.00  0.00    +0.000 A 
ATOM     30  N   UNL     1      45.737   3.620   8.179  0.00  0.00    +0.000 N 
ATOM     31  C   UNL     1      45.655   4.656   9.076  0.00  0.00    +0.000 A 
ATOM     32  O   UNL     1      46.191   5.741   8.855  0.00  0.00    +0.000 OA
ATOM     33  C   UNL     1      44.883   4.368  10.265  0.00  0.00    +0.000 A 
ATOM     34  H   UNL     1      46.270   3.793   7.339  0.00  0.00    +0.000 HD
ENDBRANCH  21  24
ENDBRANCH  19  20
ENDBRANCH   4  19
TORSDOF 8
ENDMDL
MODEL 9
REMARK VINA RESULT:    -6.056      5.664      7.425
REMARK INTER + INTRA:         -10.006
REMARK INTER:                  -9.051
REMARK INTRA:                  -0.954
REMARK UNBOUND:                -1.117
REMARK  Name = 
REMARK  9 active torsions:
REMARK  status: ('A' for Active; 'I' for Inactive)
REMARK    1  A    between atoms: C_1  and  C_2
REMARK    2  A    between atoms: C_2  and  N_3
REMARK    3  A    between atoms: N_3  and  C_4
REMARK    4  A    between atoms: N_3  and  C_25
REMARK    5  A    between atoms: C_4  and  C_5
REMARK    6  A    between atoms: C_8  and  C_9
REMARK    7  A    between atoms: C_9  and  N_10
REMARK    8  A    between atoms: C_11  and  C_13
REMARK    9  A    between atoms: C_25  and  C_26
REMARK                            x       y       z     vdW  Elec       q    Type
REMARK                         _______ _______ _______ _____ _____    ______ ____
ROOT
ATOM      1  C   UNL     1      47.556   8.632  12.993  0.00  0.00    +0.000 A 
ATOM      2  C   UNL     1      48.452   7.939  13.819  0.00  0.00    +0.000 A 
ATOM      3  C   UNL     1      49.827   7.932  13.537  0.00  0.00    +0.000 A 
ATOM      4  C   UNL     1      50.345   8.664  12.460  0.00  0.00    +0.000 A 
ATOM      5  C   UNL     1      49.465   9.453  11.709  0.00  0.00    +0.000 A 
ATOM      6  C   UNL     1      48.088   9.430  11.968  0.00  0.00    +0.000 A 
ENDROOT
BRANCH   1   7
ATOM      7  C   UNL     1      46.053   8.401  13.101  0.00  0.00    +0.000 C 
BRANCH   7   8
ATOM      8  N   UNL     1      45.419   7.571  12.056  0.00  0.00    +0.000 NA
BRANCH   8  10
ATOM      9  C   UNL     1      44.470   9.877  11.367  0.00  0.00    +0.000 C 
ATOM     10  C   UNL     1      44.380   8.348  11.333  0.00  0.00    +0.000 C 
ENDBRANCH   8  10
BRANCH   8  11
ATOM     11  C   UNL     1      44.872   6.331  12.640  0.00  0.00    +0.000 C 
BRANCH  11  12
ATOM     12  C   UNL     1      44.581   5.203  11.666  0.00  0.00    +0.000 A 
ATOM     13  C   UNL     1      45.200   5.162  10.422  0.00  0.00    +0.000 A 
ATOM     14  C   UNL     1      44.999   4.038   9.631  0.00  0.00    +0.000 A 
ATOM     15 CL   UNL     1      45.772   3.919   8.098  0.00  0.00    +0.000 Cl
ATOM     16  C   UNL     1      44.198   2.996  10.076  0.00  0.00    +0.000 A 
ATOM     17  C   UNL     1      43.596   3.135  11.310  0.00  0.00    +0.000 A 
ATOM     18  N   UNL     1      43.768   4.209  12.109  0.00  0.00    +0.000 NA
ENDBRANCH  11  12
ENDBRANCH   8  11
ENDBRANCH   7   8
ENDBRANCH   1   7
BRANCH   4  19
ATOM     19  C   UNL     1      51.802   8.565  12.076  0.00  0.00    +0.000 C 
BRANCH  19  20
ATOM     20  N   UNL     1      51.975   8.174  10.690  0.00  0.00    +0.000 N 
ATOM     21  C   UNL     1      53.147   8.448  10.025  0.00  0.00    +0.000 C 
ATOM     22  O   UNL     1      54.093   8.993  10.583  0.00  0.00    +0.000 OA
ATOM     23  H   UNL     1      51.142   7.925  10.162  0.00  0.00    +0.000 HD
BRANCH  21  24
ATOM     24  C   UNL     1      53.246   8.005   8.626  0.00  0.00    +0.000 A 
ATOM     25  C   UNL     1      53.023   8.917   7.601  0.00  0.00    +0.000 A 
ATOM     26  S   UNL     1      53.198   8.259   6.039  0.00  0.00    +0.000 S 
ATOM     27  C   UNL     1      53.529   6.716   6.670  0.00  0.00    +0.000 A 
ATOM     28  N   UNL     1      53.741   5.654   5.847  0.00  0.00    +0.000 NA
ATOM     29  C   UNL     1      53.946   4.535   6.456  0.00  0.00    +0.000 A 
ATOM     30  N   UNL     1      53.967   4.385   7.821  0.00  0.00    +0.000 N 
ATOM     31  C   UNL     1      53.798   5.432   8.692  0.00  0.00    +0.000 A 
ATOM     32  O   UNL     1      53.883   5.276   9.909  0.00  0.00    +0.000 OA
ATOM     33  C   UNL     1      53.537   6.708   8.062  0.00  0.00    +0.000 A 
ATOM     34  H   UNL     1      54.150   3.481   8.234  0.00  0.00    +0.000 HD
ENDBRANCH  21  24
ENDBRANCH  19  20
ENDBRANCH   4  19
TORSDOF 8
ENDMDL
