MODEL 1
REMARK VINA RESULT:    -7.496      0.000      0.000
REMARK INTER + INTRA:         -10.395
REMARK INTER:                  -9.686
REMARK INTRA:                  -0.709
REMARK UNBOUND:                -0.709
REMARK  Name = 
REMARK  6 active torsions:
REMARK  status: ('A' for Active; 'I' for Inactive)
REMARK    1  A    between atoms: C_1  and  O_2
REMARK    2  A    between atoms: O_2  and  C_3
REMARK    3  A    between atoms: C_5  and  N_6
REMARK    4  A    between atoms: N_6  and  C_7
REMARK    5  A    between atoms: C_7  and  C_8
REMARK    6  A    between atoms: C_16  and  C_17
REMARK                            x       y       z     vdW  Elec       q    Type
REMARK                         _______ _______ _______ _____ _____    ______ ____
ROOT
ATOM      1  C   UNL     1      46.778   5.737  12.772  0.00  0.00    +0.000 A 
ATOM      2  C   UNL     1      46.157   5.914  11.534  0.00  0.00    +0.000 A 
ATOM      3  C   UNL     1      45.362   4.907  10.991  0.00  0.00    +0.000 A 
ATOM      4  N   UNL     1      45.133   3.759  11.646  0.00  0.00    +0.000 NA
ATOM      5  C   UNL     1      45.720   3.606  12.866  0.00  0.00    +0.000 A 
ATOM      6  C   UNL     1      46.559   4.541  13.466  0.00  0.00    +0.000 A 
ENDROOT
BRANCH   6   7
ATOM      7  C   UNL     1      47.146   4.186  14.787  0.00  0.00    +0.000 C 
ATOM      8  N   UNL     1      47.205   5.153  15.750  0.00  0.00    +0.000 N 
ATOM      9  O   UNL     1      47.572   3.061  15.011  0.00  0.00    +0.000 OA
ATOM     10  H   UNL     1      46.905   6.103  15.568  0.00  0.00    +0.000 HD
ATOM     11  H   UNL     1      47.635   4.928  16.637  0.00  0.00    +0.000 HD
ENDBRANCH   6   7
BRANCH   1  13
ATOM     12  C   UNL     1      48.772   7.017  12.516  0.00  0.00    +0.000 C 
ATOM     13  O   UNL     1      47.644   6.657  13.309  0.00  0.00    +0.000 OA
ENDBRANCH   1  13
BRANCH   3  14
ATOM     14  N   UNL     1      44.874   5.119   9.702  0.00  0.00    +0.000 N 
ATOM     15  H   UNL     1      44.349   5.985   9.649  0.00  0.00    +0.000 HD
BRANCH  14  16
ATOM     16  C   UNL     1      44.212   4.011   9.040  0.00  0.00    +0.000 C 
BRANCH  16  17
ATOM     17  C   UNL     1      45.283   3.203   8.356  0.00  0.00    +0.000 A 
ATOM     18  C   UNL     1      46.185   3.765   7.449  0.00  0.00    +0.000 A 
ATOM     19  C   UNL     1      47.189   2.973   6.897  0.00  0.00    +0.000 A 
ATOM     20  C   UNL     1      47.265   1.642   7.277  0.00  0.00    +0.000 A 
ATOM     21  N   UNL     1      46.423   1.066   8.159  0.00  0.00    +0.000 NA
ATOM     22  C   UNL     1      45.459   1.859   8.682  0.00  0.00    +0.000 A 
ENDBRANCH  16  17
ENDBRANCH  14  16
ENDBRANCH   3  14
TORSDOF 5
ENDMDL
MODEL 2
REMARK VINA RESULT:    -7.116      1.218      1.242
REMARK INTER + INTRA:          -9.904
REMARK INTER:                  -9.373
REMARK INTRA:                  -0.532
REMARK UNBOUND:                -0.709
REMARK  Name = 
REMARK  6 active torsions:
REMARK  status: ('A' for Active; 'I' for Inactive)
REMARK    1  A    between atoms: C_1  and  O_2
REMARK    2  A    between atoms: O_2  and  C_3
REMARK    3  A    between atoms: C_5  and  N_6
REMARK    4  A    between atoms: N_6  and  C_7
REMARK    5  A    between atoms: C_7  and  C_8
REMARK    6  A    between atoms: C_16  and  C_17
REMARK                            x       y       z     vdW  Elec       q    Type
REMARK                         _______ _______ _______ _____ _____    ______ ____
ROOT
ATOM      1  C   UNL     1      45.587   5.611  12.654  0.00  0.00    +0.000 A 
ATOM      2  C   UNL     1      44.908   5.240  11.491  0.00  0.00    +0.000 A 
ATOM      3  C   UNL     1      44.824   3.901  11.117  0.00  0.00    +0.000 A 
ATOM      4  N   UNL     1      45.349   2.924  11.872  0.00  0.00    +0.000 NA
ATOM      5  C   UNL     1      45.985   3.293  13.019  0.00  0.00    +0.000 A 
ATOM      6  C   UNL     1      46.151   4.606  13.448  0.00  0.00    +0.000 A 
ENDROOT
BRANCH   6   7
ATOM      7  C   UNL     1      46.911   4.824  14.709  0.00  0.00    +0.000 C 
ATOM      8  N   UNL     1      47.696   5.937  14.808  0.00  0.00    +0.000 N 
ATOM      9  O   UNL     1      46.843   4.029  15.637  0.00  0.00    +0.000 OA
ATOM     10  H   UNL     1      47.806   6.581  14.034  0.00  0.00    +0.000 HD
ATOM     11  H   UNL     1      48.242   6.073  15.649  0.00  0.00    +0.000 HD
ENDBRANCH   6   7
BRANCH   1  13
ATOM     12  C   UNL     1      45.642   7.900  11.991  0.00  0.00    +0.000 C 
ATOM     13  O   UNL     1      45.780   6.921  13.017  0.00  0.00    +0.000 OA
ENDBRANCH   1  13
BRANCH   3  14
ATOM     14  N   UNL     1      44.229   3.629   9.886  0.00  0.00    +0.000 N 
ATOM     15  H   UNL     1      44.041   2.637   9.782  0.00  0.00    +0.000 HD
BRANCH  14  16
ATOM     16  C   UNL     1      44.823   4.222   8.703  0.00  0.00    +0.000 C 
BRANCH  16  17
ATOM     17  C   UNL     1      45.668   3.157   8.054  0.00  0.00    +0.000 A 
ATOM     18  C   UNL     1      46.536   3.431   6.994  0.00  0.00    +0.000 A 
ATOM     19  C   UNL     1      47.334   2.412   6.477  0.00  0.00    +0.000 A 
ATOM     20  C   UNL     1      47.244   1.150   7.044  0.00  0.00    +0.000 A 
ATOM     21  N   UNL     1      46.428   0.850   8.075  0.00  0.00    +0.000 NA
ATOM     22  C   UNL     1      45.667   1.859   8.560  0.00  0.00    +0.000 A 
ENDBRANCH  16  17
ENDBRANCH  14  16
ENDBRANCH   3  14
TORSDOF 5
ENDMDL
MODEL 3
REMARK VINA RESULT:    -6.973      1.185      2.182
REMARK INTER + INTRA:          -9.720
REMARK INTER:                  -9.175
REMARK INTRA:                  -0.545
REMARK UNBOUND:                -0.709
REMARK  Name = 
REMARK  6 active torsions:
REMARK  status: ('A' for Active; 'I' for Inactive)
REMARK    1  A    between atoms: C_1  and  O_2
REMARK    2  A    between atoms: O_2  and  C_3
REMARK    3  A    between atoms: C_5  and  N_6
REMARK    4  A    between atoms: N_6  and  C_7
REMARK    5  A    between atoms: C_7  and  C_8
REMARK    6  A    between atoms: C_16  and  C_17
REMARK                            x       y       z     vdW  Elec       q    Type
REMARK                         _______ _______ _______ _____ _____    ______ ____
ROOT
ATOM      1  C   UNL     1      46.143   4.754  13.173  0.00  0.00    +0.000 A 
ATOM      2  C   UNL     1      45.388   4.019  12.256  0.00  0.00    +0.000 A 
ATOM      3  C   UNL     1      45.197   4.488  10.959  0.00  0.00    +0.000 A 
ATOM      4  N   UNL     1      45.759   5.629  10.532  0.00  0.00    +0.000 NA
ATOM      5  C   UNL     1      46.517   6.325  11.424  0.00  0.00    +0.000 A 
ATOM      6  C   UNL     1      46.728   5.953  12.749  0.00  0.00    +0.000 A 
ENDROOT
BRANCH   6   7
ATOM      7  C   UNL     1      47.554   6.859  13.592  0.00  0.00    +0.000 C 
ATOM      8  N   UNL     1      47.005   8.040  14.004  0.00  0.00    +0.000 N 
ATOM      9  O   UNL     1      48.699   6.564  13.909  0.00  0.00    +0.000 OA
ATOM     10  H   UNL     1      46.078   8.325  13.712  0.00  0.00    +0.000 HD
ATOM     11  H   UNL     1      47.573   8.675  14.548  0.00  0.00    +0.000 HD
ENDBRANCH   6   7
BRANCH   1  13
ATOM     12  C   UNL     1      47.331   3.465  14.788  0.00  0.00    +0.000 C 
ATOM     13  O   UNL     1      46.285   4.384  14.487  0.00  0.00    +0.000 OA
ENDBRANCH   1  13
BRANCH   3  14
ATOM     14  N   UNL     1      44.336   3.752  10.145  0.00  0.00    +0.000 N 
ATOM     15  H   UNL     1      44.369   2.766  10.378  0.00  0.00    +0.000 HD
BRANCH  14  16
ATOM     16  C   UNL     1      44.380   4.001   8.717  0.00  0.00    +0.000 C 
BRANCH  16  17
ATOM     17  C   UNL     1      45.418   3.075   8.140  0.00  0.00    +0.000 A 
ATOM     18  C   UNL     1      46.399   3.512   7.246  0.00  0.00    +0.000 A 
ATOM     19  C   UNL     1      47.367   2.616   6.795  0.00  0.00    +0.000 A 
ATOM     20  C   UNL     1      47.327   1.311   7.260  0.00  0.00    +0.000 A 
ATOM     21  N   UNL     1      46.405   0.856   8.133  0.00  0.00    +0.000 NA
ATOM     22  C   UNL     1      45.480   1.747   8.556  0.00  0.00    +0.000 A 
ENDBRANCH  16  17
ENDBRANCH  14  16
ENDBRANCH   3  14
TORSDOF 5
ENDMDL
MODEL 4
REMARK VINA RESULT:    -6.597      1.488      1.782
REMARK INTER + INTRA:          -9.233
REMARK INTER:                  -8.846
REMARK INTRA:                  -0.387
REMARK UNBOUND:                -0.709
REMARK  Name = 
REMARK  6 active torsions:
REMARK  status: ('A' for Active; 'I' for Inactive)
REMARK    1  A    between atoms: C_1  and  O_2
REMARK    2  A    between atoms: O_2  and  C_3
REMARK    3  A    between atoms: C_5  and  N_6
REMARK    4  A    between atoms: N_6  and  C_7
REMARK    5  A    between atoms: C_7  and  C_8
REMARK    6  A    between atoms: C_16  and  C_17
REMARK                            x       y       z     vdW  Elec       q    Type
REMARK                         _______ _______ _______ _____ _____    ______ ____
ROOT
ATOM      1  C   UNL     1      46.350   6.359  12.403  0.00  0.00    +0.000 A 
ATOM      2  C   UNL     1      45.449   5.926  11.427  0.00  0.00    +0.000 A 
ATOM      3  C   UNL     1      45.048   4.593  11.375  0.00  0.00    +0.000 A 
ATOM      4  N   UNL     1      45.474   3.693  12.275  0.00  0.00    +0.000 NA
ATOM      5  C   UNL     1      46.330   4.130  13.240  0.00  0.00    +0.000 A 
ATOM      6  C   UNL     1      46.814   5.431  13.344  0.00  0.00    +0.000 A 
ENDROOT
BRANCH   6   7
ATOM      7  C   UNL     1      47.777   5.719  14.441  0.00  0.00    +0.000 C 
ATOM      8  N   UNL     1      47.428   5.377  15.716  0.00  0.00    +0.000 N 
ATOM      9  O   UNL     1      48.855   6.253  14.216  0.00  0.00    +0.000 OA
ATOM     10  H   UNL     1      46.520   4.980  15.930  0.00  0.00    +0.000 HD
ATOM     11  H   UNL     1      48.063   5.602  16.470  0.00  0.00    +0.000 HD
ENDBRANCH   6   7
BRANCH   1  13
ATOM     12  C   UNL     1      45.946   8.668  12.834  0.00  0.00    +0.000 C 
ATOM     13  O   UNL     1      46.849   7.637  12.442  0.00  0.00    +0.000 OA
ENDBRANCH   1  13
BRANCH   3  14
ATOM     14  N   UNL     1      44.238   4.223  10.303  0.00  0.00    +0.000 N 
ATOM     15  H   UNL     1      43.286   4.545  10.435  0.00  0.00    +0.000 HD
BRANCH  14  16
ATOM     16  C   UNL     1      44.314   2.849   9.842  0.00  0.00    +0.000 C 
BRANCH  16  17
ATOM     17  C   UNL     1      45.356   2.806   8.755  0.00  0.00    +0.000 A 
ATOM     18  C   UNL     1      46.049   1.638   8.426  0.00  0.00    +0.000 A 
ATOM     19  C   UNL     1      46.958   1.652   7.370  0.00  0.00    +0.000 A 
ATOM     20  C   UNL     1      47.140   2.835   6.670  0.00  0.00    +0.000 A 
ATOM     21  N   UNL     1      46.481   3.978   6.949  0.00  0.00    +0.000 NA
ATOM     22  C   UNL     1      45.602   3.935   7.977  0.00  0.00    +0.000 A 
ENDBRANCH  16  17
ENDBRANCH  14  16
ENDBRANCH   3  14
TORSDOF 5
ENDMDL
MODEL 5
REMARK VINA RESULT:    -6.376      1.850      2.554
REMARK INTER + INTRA:          -8.948
REMARK INTER:                  -8.165
REMARK INTRA:                  -0.783
REMARK UNBOUND:                -0.709
REMARK  Name = 
REMARK  6 active torsions:
REMARK  status: ('A' for Active; 'I' for Inactive)
REMARK    1  A    between atoms: C_1  and  O_2
REMARK    2  A    between atoms: O_2  and  C_3
REMARK    3  A    between atoms: C_5  and  N_6
REMARK    4  A    between atoms: N_6  and  C_7
REMARK    5  A    between atoms: C_7  and  C_8
REMARK    6  A    between atoms: C_16  and  C_17
REMARK                            x       y       z     vdW  Elec       q    Type
REMARK                         _______ _______ _______ _____ _____    ______ ____
ROOT
ATOM      1  C   UNL     1      45.511   7.321  12.549  0.00  0.00    +0.000 A 
ATOM      2  C   UNL     1      44.672   6.339  12.016  0.00  0.00    +0.000 A 
ATOM      3  C   UNL     1      44.994   4.990  12.139  0.00  0.00    +0.000 A 
ATOM      4  N   UNL     1      46.087   4.583  12.802  0.00  0.00    +0.000 NA
ATOM      5  C   UNL     1      46.885   5.546  13.343  0.00  0.00    +0.000 A 
ATOM      6  C   UNL     1      46.663   6.916  13.234  0.00  0.00    +0.000 A 
ENDROOT
BRANCH   6   7
ATOM      7  C   UNL     1      47.665   7.825  13.855  0.00  0.00    +0.000 C 
ATOM      8  N   UNL     1      47.213   8.885  14.587  0.00  0.00    +0.000 N 
ATOM      9  O   UNL     1      48.866   7.636  13.714  0.00  0.00    +0.000 OA
ATOM     10  H   UNL     1      46.224   9.087  14.674  0.00  0.00    +0.000 HD
ATOM     11  H   UNL     1      47.888   9.526  14.981  0.00  0.00    +0.000 HD
ENDBRANCH   6   7
BRANCH   1  13
ATOM     12  C   UNL     1      44.448   9.042  11.289  0.00  0.00    +0.000 C 
ATOM     13  O   UNL     1      45.290   8.664  12.375  0.00  0.00    +0.000 OA
ENDBRANCH   1  13
BRANCH   3  14
ATOM     14  N   UNL     1      44.164   4.084  11.481  0.00  0.00    +0.000 N 
ATOM     15  H   UNL     1      44.494   3.132  11.599  0.00  0.00    +0.000 HD
BRANCH  14  16
ATOM     16  C   UNL     1      43.782   4.387  10.115  0.00  0.00    +0.000 C 
BRANCH  16  17
ATOM     17  C   UNL     1      44.712   3.614   9.216  0.00  0.00    +0.000 A 
ATOM     18  C   UNL     1      45.485   4.229   8.229  0.00  0.00    +0.000 A 
ATOM     19  C   UNL     1      46.370   3.463   7.470  0.00  0.00    +0.000 A 
ATOM     20  C   UNL     1      46.458   2.105   7.731  0.00  0.00    +0.000 A 
ATOM     21  N   UNL     1      45.739   1.478   8.684  0.00  0.00    +0.000 NA
ATOM     22  C   UNL     1      44.891   2.245   9.407  0.00  0.00    +0.000 A 
ENDBRANCH  16  17
ENDBRANCH  14  16
ENDBRANCH   3  14
TORSDOF 5
ENDMDL
MODEL 6
REMARK VINA RESULT:    -6.358      2.841      5.956
REMARK INTER + INTRA:          -8.926
REMARK INTER:                  -9.047
REMARK INTRA:                   0.121
REMARK UNBOUND:                -0.709
REMARK  Name = 
REMARK  6 active torsions:
REMARK  status: ('A' for Active; 'I' for Inactive)
REMARK    1  A    between atoms: C_1  and  O_2
REMARK    2  A    between atoms: O_2  and  C_3
REMARK    3  A    between atoms: C_5  and  N_6
REMARK    4  A    between atoms: N_6  and  C_7
REMARK    5  A    between atoms: C_7  and  C_8
REMARK    6  A    between atoms: C_16  and  C_17
REMARK                            x       y       z     vdW  Elec       q    Type
REMARK                         _______ _______ _______ _____ _____    ______ ____
ROOT
ATOM      1  C   UNL     1      46.336   3.335   7.725  0.00  0.00    +0.000 A 
ATOM      2  C   UNL     1      45.542   4.292   8.360  0.00  0.00    +0.000 A 
ATOM      3  C   UNL     1      44.575   3.908   9.287  0.00  0.00    +0.000 A 
ATOM      4  N   UNL     1      44.400   2.624   9.632  0.00  0.00    +0.000 NA
ATOM      5  C   UNL     1      45.198   1.699   9.028  0.00  0.00    +0.000 A 
ATOM      6  C   UNL     1      46.159   1.988   8.064  0.00  0.00    +0.000 A 
ENDROOT
BRANCH   6   7
ATOM      7  C   UNL     1      46.911   0.843   7.481  0.00  0.00    +0.000 C 
ATOM      8  N   UNL     1      46.401  -0.414   7.639  0.00  0.00    +0.000 N 
ATOM      9  O   UNL     1      47.962   1.014   6.879  0.00  0.00    +0.000 OA
ATOM     10  H   UNL     1      45.560  -0.583   8.177  0.00  0.00    +0.000 HD
ATOM     11  H   UNL     1      46.925  -1.199   7.276  0.00  0.00    +0.000 HD
ENDBRANCH   6   7
BRANCH   1  13
ATOM     12  C   UNL     1      46.778   3.544   5.393  0.00  0.00    +0.000 C 
ATOM     13  O   UNL     1      47.236   3.650   6.738  0.00  0.00    +0.000 OA
ENDBRANCH   1  13
BRANCH   3  14
ATOM     14  N   UNL     1      43.751   4.915   9.788  0.00  0.00    +0.000 N 
ATOM     15  H   UNL     1      44.077   5.831   9.500  0.00  0.00    +0.000 HD
BRANCH  14  16
ATOM     16  C   UNL     1      43.389   4.856  11.191  0.00  0.00    +0.000 C 
BRANCH  16  17
ATOM     17  C   UNL     1      44.656   5.050  11.982  0.00  0.00    +0.000 A 
ATOM     18  C   UNL     1      45.422   6.215  11.898  0.00  0.00    +0.000 A 
ATOM     19  C   UNL     1      46.552   6.355  12.701  0.00  0.00    +0.000 A 
ATOM     20  C   UNL     1      46.875   5.326  13.572  0.00  0.00    +0.000 A 
ATOM     21  N   UNL     1      46.154   4.193  13.692  0.00  0.00    +0.000 NA
ATOM     22  C   UNL     1      45.060   4.085  12.902  0.00  0.00    +0.000 A 
ENDBRANCH  16  17
ENDBRANCH  14  16
ENDBRANCH   3  14
TORSDOF 5
ENDMDL
MODEL 7
REMARK VINA RESULT:    -6.280      3.047      6.880
REMARK INTER + INTRA:          -8.825
REMARK INTER:                  -8.164
REMARK INTRA:                  -0.661
REMARK UNBOUND:                -0.709
REMARK  Name = 
REMARK  6 active torsions:
REMARK  status: ('A' for Active; 'I' for Inactive)
REMARK    1  A    between atoms: C_1  and  O_2
REMARK    2  A    between atoms: O_2  and  C_3
REMARK    3  A    between atoms: C_5  and  N_6
REMARK    4  A    between atoms: N_6  and  C_7
REMARK    5  A    between atoms: C_7  and  C_8
REMARK    6  A    between atoms: C_16  and  C_17
REMARK                            x       y       z     vdW  Elec       q    Type
REMARK                         _______ _______ _______ _____ _____    ______ ____
ROOT
ATOM      1  C   UNL     1      45.032   5.528  12.352  0.00  0.00    +0.000 A 
ATOM      2  C   UNL     1      45.855   5.743  13.460  0.00  0.00    +0.000 A 
ATOM      3  C   UNL     1      46.535   4.683  14.053  0.00  0.00    +0.000 A 
ATOM      4  N   UNL     1      46.461   3.436  13.564  0.00  0.00    +0.000 NA
ATOM      5  C   UNL     1      45.679   3.240  12.466  0.00  0.00    +0.000 A 
ATOM      6  C   UNL     1      44.934   4.231  11.834  0.00  0.00    +0.000 A 
ENDROOT
BRANCH   6   7
ATOM      7  C   UNL     1      44.102   3.825  10.668  0.00  0.00    +0.000 C 
ATOM      8  N   UNL     1      44.095   4.630   9.566  0.00  0.00    +0.000 N 
ATOM      9  O   UNL     1      43.434   2.799  10.692  0.00  0.00    +0.000 OA
ATOM     10  H   UNL     1      44.600   5.508   9.546  0.00  0.00    +0.000 HD
ATOM     11  H   UNL     1      43.504   4.378   8.784  0.00  0.00    +0.000 HD
ENDBRANCH   6   7
BRANCH   1  13
ATOM     12  C   UNL     1      44.930   7.741  11.473  0.00  0.00    +0.000 C 
ATOM     13  O   UNL     1      44.268   6.519  11.788  0.00  0.00    +0.000 OA
ENDBRANCH   1  13
BRANCH   3  14
ATOM     14  N   UNL     1      47.242   4.965  15.221  0.00  0.00    +0.000 N 
ATOM     15  H   UNL     1      48.214   5.170  15.020  0.00  0.00    +0.000 HD
BRANCH  14  16
ATOM     16  C   UNL     1      47.073   4.067  16.347  0.00  0.00    +0.000 C 
BRANCH  16  17
ATOM     17  C   UNL     1      48.452   3.687  16.819  0.00  0.00    +0.000 A 
ATOM     18  C   UNL     1      48.938   2.380  16.744  0.00  0.00    +0.000 A 
ATOM     19  C   UNL     1      50.245   2.107  17.144  0.00  0.00    +0.000 A 
ATOM     20  C   UNL     1      51.028   3.156  17.599  0.00  0.00    +0.000 A 
ATOM     21  N   UNL     1      50.600   4.432  17.674  0.00  0.00    +0.000 NA
ATOM     22  C   UNL     1      49.328   4.669  17.277  0.00  0.00    +0.000 A 
ENDBRANCH  16  17
ENDBRANCH  14  16
ENDBRANCH   3  14
TORSDOF 5
ENDMDL
MODEL 8
REMARK VINA RESULT:    -5.868      2.799      7.395
REMARK INTER + INTRA:          -8.292
REMARK INTER:                  -7.653
REMARK INTRA:                  -0.640
REMARK UNBOUND:                -0.709
REMARK  Name = 
REMARK  6 active torsions:
REMARK  status: ('A' for Active; 'I' for Inactive)
REMARK    1  A    between atoms: C_1  and  O_2
REMARK    2  A    between atoms: O_2  and  C_3
REMARK    3  A    between atoms: C_5  and  N_6
REMARK    4  A    between atoms: N_6  and  C_7
REMARK    5  A    between atoms: C_7  and  C_8
REMARK    6  A    between atoms: C_16  and  C_17
REMARK                            x       y       z     vdW  Elec       q    Type
REMARK                         _______ _______ _______ _____ _____    ______ ____
ROOT
ATOM      1  C   UNL     1      45.249   4.066  11.697  0.00  0.00    +0.000 A 
ATOM      2  C   UNL     1      45.645   4.272  13.020  0.00  0.00    +0.000 A 
ATOM      3  C   UNL     1      46.397   5.391  13.368  0.00  0.00    +0.000 A 
ATOM      4  N   UNL     1      46.731   6.325  12.465  0.00  0.00    +0.000 NA
ATOM      5  C   UNL     1      46.316   6.131  11.182  0.00  0.00    +0.000 A 
ATOM      6  C   UNL     1      45.598   5.024  10.738  0.00  0.00    +0.000 A 
ENDROOT
BRANCH   6   7
ATOM      7  C   UNL     1      45.265   4.959   9.288  0.00  0.00    +0.000 C 
ATOM      8  N   UNL     1      44.009   4.563   8.929  0.00  0.00    +0.000 N 
ATOM      9  O   UNL     1      46.093   5.247   8.434  0.00  0.00    +0.000 OA
ATOM     10  H   UNL     1      43.326   4.272   9.619  0.00  0.00    +0.000 HD
ATOM     11  H   UNL     1      43.788   4.483   7.946  0.00  0.00    +0.000 HD
ENDBRANCH   6   7
BRANCH   1  13
ATOM     12  C   UNL     1      43.332   2.666  11.897  0.00  0.00    +0.000 C 
ATOM     13  O   UNL     1      44.589   2.935  11.284  0.00  0.00    +0.000 OA
ENDBRANCH   1  13
BRANCH   3  14
ATOM     14  N   UNL     1      46.847   5.461  14.686  0.00  0.00    +0.000 N 
ATOM     15  H   UNL     1      47.619   6.112  14.775  0.00  0.00    +0.000 HD
BRANCH  14  16
ATOM     16  C   UNL     1      47.073   4.213  15.389  0.00  0.00    +0.000 C 
BRANCH  16  17
ATOM     17  C   UNL     1      47.841   4.545  16.642  0.00  0.00    +0.000 A 
ATOM     18  C   UNL     1      47.839   3.716  17.766  0.00  0.00    +0.000 A 
ATOM     19  C   UNL     1      48.619   4.053  18.871  0.00  0.00    +0.000 A 
ATOM     20  C   UNL     1      49.383   5.207  18.813  0.00  0.00    +0.000 A 
ATOM     21  N   UNL     1      49.422   6.026  17.742  0.00  0.00    +0.000 NA
ATOM     22  C   UNL     1      48.658   5.673  16.682  0.00  0.00    +0.000 A 
ENDBRANCH  16  17
ENDBRANCH  14  16
ENDBRANCH   3  14
TORSDOF 5
ENDMDL
MODEL 9
REMARK VINA RESULT:    -5.753      2.953      5.787
REMARK INTER + INTRA:          -8.143
REMARK INTER:                  -7.628
REMARK INTRA:                  -0.516
REMARK UNBOUND:                -0.709
REMARK  Name = 
REMARK  6 active torsions:
REMARK  status: ('A' for Active; 'I' for Inactive)
REMARK    1  A    between atoms: C_1  and  O_2
REMARK    2  A    between atoms: O_2  and  C_3
REMARK    3  A    between atoms: C_5  and  N_6
REMARK    4  A    between atoms: N_6  and  C_7
REMARK    5  A    between atoms: C_7  and  C_8
REMARK    6  A    between atoms: C_16  and  C_17
REMARK                            x       y       z     vdW  Elec       q    Type
REMARK                         _______ _______ _______ _____ _____    ______ ____
ROOT
ATOM      1  C   UNL     1      45.088   4.402  12.660  0.00  0.00    +0.000 A 
ATOM      2  C   UNL     1      45.299   5.720  13.070  0.00  0.00    +0.000 A 
ATOM      3  C   UNL     1      44.665   6.775  12.417  0.00  0.00    +0.000 A 
ATOM      4  N   UNL     1      43.806   6.565  11.408  0.00  0.00    +0.000 NA
ATOM      5  C   UNL     1      43.585   5.274  11.033  0.00  0.00    +0.000 A 
ATOM      6  C   UNL     1      44.203   4.164  11.601  0.00  0.00    +0.000 A 
ENDROOT
BRANCH   6   7
ATOM      7  C   UNL     1      43.870   2.829  11.034  0.00  0.00    +0.000 C 
ATOM      8  N   UNL     1      44.623   2.359   9.997  0.00  0.00    +0.000 N 
ATOM      9  O   UNL     1      42.943   2.164  11.478  0.00  0.00    +0.000 OA
ATOM     10  H   UNL     1      45.362   2.915   9.582  0.00  0.00    +0.000 HD
ATOM     11  H   UNL     1      44.380   1.468   9.585  0.00  0.00    +0.000 HD
ENDBRANCH   6   7
BRANCH   1  13
ATOM     12  C   UNL     1      47.001   3.615  13.843  0.00  0.00    +0.000 C 
ATOM     13  O   UNL     1      45.757   3.335  13.207  0.00  0.00    +0.000 OA
ENDBRANCH   1  13
BRANCH   3  14
ATOM     14  N   UNL     1      45.019   8.063  12.815  0.00  0.00    +0.000 N 
ATOM     15  H   UNL     1      44.197   8.625  13.006  0.00  0.00    +0.000 HD
BRANCH  14  16
ATOM     16  C   UNL     1      46.016   8.763  12.028  0.00  0.00    +0.000 C 
BRANCH  16  17
ATOM     17  C   UNL     1      47.366   8.335  12.544  0.00  0.00    +0.000 A 
ATOM     18  C   UNL     1      48.316   7.709  11.734  0.00  0.00    +0.000 A 
ATOM     19  C   UNL     1      49.567   7.392  12.260  0.00  0.00    +0.000 A 
ATOM     20  C   UNL     1      49.831   7.719  13.580  0.00  0.00    +0.000 A 
ATOM     21  N   UNL     1      48.945   8.335  14.390  0.00  0.00    +0.000 NA
ATOM     22  C   UNL     1      47.740   8.634  13.853  0.00  0.00    +0.000 A 
ENDBRANCH  16  17
ENDBRANCH  14  16
ENDBRANCH   3  14
TORSDOF 5
ENDMDL
