MODEL 1
REMARK VINA RESULT:    -7.871      0.000      0.000
REMARK INTER + INTRA:         -10.269
REMARK INTER:                  -9.942
REMARK INTRA:                  -0.328
REMARK UNBOUND:                -0.328
REMARK  Name = 
REMARK  5 active torsions:
REMARK  status: ('A' for Active; 'I' for Inactive)
REMARK    1  A    between atoms: N_1  and  C_2
REMARK    2  A    between atoms: C_2  and  C_3
REMARK    3  A    between atoms: C_3  and  C_4
REMARK    4  A    between atoms: C_7  and  C_8
REMARK    5  A    between atoms: C_8  and  N_9
REMARK                            x       y       z     vdW  Elec       q    Type
REMARK                         _______ _______ _______ _____ _____    ______ ____
ROOT
ATOM      1  C   UNL     1      46.110   2.242   7.790  0.00  0.00    +0.000 A 
ATOM      2  C   UNL     1      45.304   1.603   8.738  0.00  0.00    +0.000 A 
ATOM      3  C   UNL     1      44.519   2.350   9.623  0.00  0.00    +0.000 A 
ATOM      4  C   UNL     1      44.519   3.750   9.574  0.00  0.00    +0.000 A 
ATOM      5  C   UNL     1      45.299   4.384   8.597  0.00  0.00    +0.000 A 
ATOM      6  C   UNL     1      46.081   3.639   7.710  0.00  0.00    +0.000 A 
ENDROOT
BRANCH   1   7
ATOM      7  C   UNL     1      47.022   1.438   6.892  0.00  0.00    +0.000 C 
BRANCH   7   8
ATOM      8  C   UNL     1      48.285   2.196   6.475  0.00  0.00    +0.000 C 
BRANCH   8   9
ATOM      9  N   UNL     1      48.271   2.475   5.037  0.00  0.00    +0.000 NA
ATOM     10  H   UNL     1      47.475   2.003   4.609  0.00  0.00    +0.000 HD
ATOM     11  H   UNL     1      49.103   2.078   4.603  0.00  0.00    +0.000 HD
ENDBRANCH   8   9
ENDBRANCH   7   8
ENDBRANCH   1   7
BRANCH   4  12
ATOM     12  C   UNL     1      43.711   4.561  10.556  0.00  0.00    +0.000 C 
BRANCH  12  13
ATOM     13  N   UNL     1      44.552   5.314  11.486  0.00  0.00    +0.000 N 
ATOM     14  C   UNL     1      44.489   6.679  11.650  0.00  0.00    +0.000 A 
ATOM     15  C   UNL     1      45.330   7.027  12.680  0.00  0.00    +0.000 A 
ATOM     16  C   UNL     1      45.919   5.833  13.177  0.00  0.00    +0.000 A 
ATOM     17  C   UNL     1      46.819   5.556  14.214  0.00  0.00    +0.000 A 
ATOM     18  C   UNL     1      47.156   4.225  14.404  0.00  0.00    +0.000 A 
ATOM     19  N   UNL     1      46.684   3.201  13.662  0.00  0.00    +0.000 NA
ATOM     20  C   UNL     1      45.818   3.461  12.657  0.00  0.00    +0.000 A 
ATOM     21  C   UNL     1      45.424   4.774  12.412  0.00  0.00    +0.000 A 
ENDBRANCH  12  13
ENDBRANCH   4  12
TORSDOF 5
ENDMDL
MODEL 2
REMARK VINA RESULT:    -7.614      1.097      2.477
REMARK INTER + INTRA:          -9.944
REMARK INTER:                  -9.409
REMARK INTRA:                  -0.535
REMARK UNBOUND:                -0.328
REMARK  Name = 
REMARK  5 active torsions:
REMARK  status: ('A' for Active; 'I' for Inactive)
REMARK    1  A    between atoms: N_1  and  C_2
REMARK    2  A    between atoms: C_2  and  C_3
REMARK    3  A    between atoms: C_3  and  C_4
REMARK    4  A    between atoms: C_7  and  C_8
REMARK    5  A    between atoms: C_8  and  N_9
REMARK                            x       y       z     vdW  Elec       q    Type
REMARK                         _______ _______ _______ _____ _____    ______ ____
ROOT
ATOM      1  C   UNL     1      46.118   2.324   7.883  0.00  0.00    +0.000 A 
ATOM      2  C   UNL     1      45.301   1.707   8.836  0.00  0.00    +0.000 A 
ATOM      3  C   UNL     1      44.531   2.474   9.718  0.00  0.00    +0.000 A 
ATOM      4  C   UNL     1      44.557   3.873   9.659  0.00  0.00    +0.000 A 
ATOM      5  C   UNL     1      45.348   4.487   8.677  0.00  0.00    +0.000 A 
ATOM      6  C   UNL     1      46.115   3.721   7.794  0.00  0.00    +0.000 A 
ENDROOT
BRANCH   1   7
ATOM      7  C   UNL     1      47.012   1.497   6.989  0.00  0.00    +0.000 C 
BRANCH   7   8
ATOM      8  C   UNL     1      48.284   2.233   6.556  0.00  0.00    +0.000 C 
BRANCH   8   9
ATOM      9  N   UNL     1      48.279   2.468   5.110  0.00  0.00    +0.000 NA
ATOM     10  H   UNL     1      48.216   1.574   4.623  0.00  0.00    +0.000 HD
ATOM     11  H   UNL     1      49.166   2.883   4.828  0.00  0.00    +0.000 HD
ENDBRANCH   8   9
ENDBRANCH   7   8
ENDBRANCH   1   7
BRANCH   4  12
ATOM     12  C   UNL     1      43.766   4.706  10.637  0.00  0.00    +0.000 C 
BRANCH  12  13
ATOM     13  N   UNL     1      44.608   5.303  11.673  0.00  0.00    +0.000 N 
ATOM     14  C   UNL     1      45.367   4.577  12.563  0.00  0.00    +0.000 A 
ATOM     15  C   UNL     1      46.115   5.460  13.307  0.00  0.00    +0.000 A 
ATOM     16  C   UNL     1      45.816   6.771  12.849  0.00  0.00    +0.000 A 
ATOM     17  C   UNL     1      46.275   8.047  13.201  0.00  0.00    +0.000 A 
ATOM     18  C   UNL     1      45.739   9.114  12.497  0.00  0.00    +0.000 A 
ATOM     19  N   UNL     1      44.817   9.002  11.518  0.00  0.00    +0.000 NA
ATOM     20  C   UNL     1      44.367   7.774  11.176  0.00  0.00    +0.000 A 
ATOM     21  C   UNL     1      44.866   6.651  11.832  0.00  0.00    +0.000 A 
ENDBRANCH  12  13
ENDBRANCH   4  12
TORSDOF 5
ENDMDL
MODEL 3
REMARK VINA RESULT:    -6.749      1.336      1.928
REMARK INTER + INTRA:          -8.852
REMARK INTER:                  -8.439
REMARK INTRA:                  -0.413
REMARK UNBOUND:                -0.328
REMARK  Name = 
REMARK  5 active torsions:
REMARK  status: ('A' for Active; 'I' for Inactive)
REMARK    1  A    between atoms: N_1  and  C_2
REMARK    2  A    between atoms: C_2  and  C_3
REMARK    3  A    between atoms: C_3  and  C_4
REMARK    4  A    between atoms: C_7  and  C_8
REMARK    5  A    between atoms: C_8  and  N_9
REMARK                            x       y       z     vdW  Elec       q    Type
REMARK                         _______ _______ _______ _____ _____    ______ ____
ROOT
ATOM      1  C   UNL     1      45.710   3.076   8.145  0.00  0.00    +0.000 A 
ATOM      2  C   UNL     1      46.004   4.434   8.314  0.00  0.00    +0.000 A 
ATOM      3  C   UNL     1      45.522   5.134   9.424  0.00  0.00    +0.000 A 
ATOM      4  C   UNL     1      44.741   4.491  10.393  0.00  0.00    +0.000 A 
ATOM      5  C   UNL     1      44.481   3.121  10.240  0.00  0.00    +0.000 A 
ATOM      6  C   UNL     1      44.966   2.419   9.132  0.00  0.00    +0.000 A 
ENDROOT
BRANCH   1   7
ATOM      7  C   UNL     1      46.160   2.343   6.904  0.00  0.00    +0.000 C 
BRANCH   7   8
ATOM      8  C   UNL     1      47.514   2.824   6.372  0.00  0.00    +0.000 C 
BRANCH   8   9
ATOM      9  N   UNL     1      48.431   1.696   6.197  0.00  0.00    +0.000 NA
ATOM     10  H   UNL     1      48.273   1.270   5.284  0.00  0.00    +0.000 HD
ATOM     11  H   UNL     1      48.225   0.975   6.887  0.00  0.00    +0.000 HD
ENDBRANCH   8   9
ENDBRANCH   7   8
ENDBRANCH   1   7
BRANCH   4  12
ATOM     12  C   UNL     1      44.179   5.251  11.568  0.00  0.00    +0.000 C 
BRANCH  12  13
ATOM     13  N   UNL     1      45.039   6.360  11.979  0.00  0.00    +0.000 N 
ATOM     14  C   UNL     1      44.791   7.680  11.678  0.00  0.00    +0.000 A 
ATOM     15  C   UNL     1      45.733   8.451  12.320  0.00  0.00    +0.000 A 
ATOM     16  C   UNL     1      46.577   7.575  13.054  0.00  0.00    +0.000 A 
ATOM     17  C   UNL     1      47.675   7.774  13.901  0.00  0.00    +0.000 A 
ATOM     18  C   UNL     1      48.244   6.639  14.456  0.00  0.00    +0.000 A 
ATOM     19  N   UNL     1      47.818   5.378  14.228  0.00  0.00    +0.000 NA
ATOM     20  C   UNL     1      46.763   5.179  13.408  0.00  0.00    +0.000 A 
ATOM     21  C   UNL     1      46.131   6.272  12.822  0.00  0.00    +0.000 A 
ENDBRANCH  12  13
ENDBRANCH   4  12
TORSDOF 5
ENDMDL
MODEL 4
REMARK VINA RESULT:    -6.096      2.129      6.588
REMARK INTER + INTRA:          -8.027
REMARK INTER:                  -7.636
REMARK INTRA:                  -0.391
REMARK UNBOUND:                -0.328
REMARK  Name = 
REMARK  5 active torsions:
REMARK  status: ('A' for Active; 'I' for Inactive)
REMARK    1  A    between atoms: N_1  and  C_2
REMARK    2  A    between atoms: C_2  and  C_3
REMARK    3  A    between atoms: C_3  and  C_4
REMARK    4  A    between atoms: C_7  and  C_8
REMARK    5  A    between atoms: C_8  and  N_9
REMARK                            x       y       z     vdW  Elec       q    Type
REMARK                         _______ _______ _______ _____ _____    ______ ____
ROOT
ATOM      1  C   UNL     1      47.906   7.393  13.935  0.00  0.00    +0.000 A 
ATOM      2  C   UNL     1      47.659   6.080  13.521  0.00  0.00    +0.000 A 
ATOM      3  C   UNL     1      46.509   5.768  12.787  0.00  0.00    +0.000 A 
ATOM      4  C   UNL     1      45.586   6.765  12.447  0.00  0.00    +0.000 A 
ATOM      5  C   UNL     1      45.856   8.086  12.830  0.00  0.00    +0.000 A 
ATOM      6  C   UNL     1      47.007   8.399  13.561  0.00  0.00    +0.000 A 
ENDROOT
BRANCH   1   7
ATOM      7  C   UNL     1      49.103   7.713  14.799  0.00  0.00    +0.000 C 
BRANCH   7   8
ATOM      8  C   UNL     1      49.306   6.717  15.945  0.00  0.00    +0.000 C 
BRANCH   8   9
ATOM      9  N   UNL     1      48.306   6.923  16.995  0.00  0.00    +0.000 NA
ATOM     10  H   UNL     1      47.372   6.824  16.596  0.00  0.00    +0.000 HD
ATOM     11  H   UNL     1      48.366   7.879  17.343  0.00  0.00    +0.000 HD
ENDBRANCH   8   9
ENDBRANCH   7   8
ENDBRANCH   1   7
BRANCH   4  12
ATOM     12  C   UNL     1      44.322   6.428  11.696  0.00  0.00    +0.000 C 
BRANCH  12  13
ATOM     13  N   UNL     1      44.268   5.023  11.294  0.00  0.00    +0.000 N 
ATOM     14  C   UNL     1      43.558   4.055  11.967  0.00  0.00    +0.000 A 
ATOM     15  C   UNL     1      43.637   2.886  11.246  0.00  0.00    +0.000 A 
ATOM     16  C   UNL     1      44.407   3.149  10.082  0.00  0.00    +0.000 A 
ATOM     17  C   UNL     1      44.799   2.372   8.984  0.00  0.00    +0.000 A 
ATOM     18  C   UNL     1      45.560   3.006   8.015  0.00  0.00    +0.000 A 
ATOM     19  N   UNL     1      45.944   4.300   8.066  0.00  0.00    +0.000 NA
ATOM     20  C   UNL     1      45.573   5.054   9.125  0.00  0.00    +0.000 A 
ATOM     21  C   UNL     1      44.798   4.489  10.134  0.00  0.00    +0.000 A 
ENDBRANCH  12  13
ENDBRANCH   4  12
TORSDOF 5
ENDMDL
MODEL 5
REMARK VINA RESULT:    -5.702      2.863      4.450
REMARK INTER + INTRA:          -7.530
REMARK INTER:                  -7.054
REMARK INTRA:                  -0.476
REMARK UNBOUND:                -0.328
REMARK  Name = 
REMARK  5 active torsions:
REMARK  status: ('A' for Active; 'I' for Inactive)
REMARK    1  A    between atoms: N_1  and  C_2
REMARK    2  A    between atoms: C_2  and  C_3
REMARK    3  A    between atoms: C_3  and  C_4
REMARK    4  A    between atoms: C_7  and  C_8
REMARK    5  A    between atoms: C_8  and  N_9
REMARK                            x       y       z     vdW  Elec       q    Type
REMARK                         _______ _______ _______ _____ _____    ______ ____
ROOT
ATOM      1  C   UNL     1      44.919   3.500   9.912  0.00  0.00    +0.000 A 
ATOM      2  C   UNL     1      45.306   4.784   9.511  0.00  0.00    +0.000 A 
ATOM      3  C   UNL     1      45.546   5.784  10.459  0.00  0.00    +0.000 A 
ATOM      4  C   UNL     1      45.411   5.520  11.828  0.00  0.00    +0.000 A 
ATOM      5  C   UNL     1      45.061   4.222  12.227  0.00  0.00    +0.000 A 
ATOM      6  C   UNL     1      44.824   3.221  11.280  0.00  0.00    +0.000 A 
ENDROOT
BRANCH   1   7
ATOM      7  C   UNL     1      44.577   2.446   8.885  0.00  0.00    +0.000 C 
BRANCH   7   8
ATOM      8  C   UNL     1      45.773   1.574   8.490  0.00  0.00    +0.000 C 
BRANCH   8   9
ATOM      9  N   UNL     1      46.560   2.220   7.437  0.00  0.00    +0.000 NA
ATOM     10  H   UNL     1      46.641   1.588   6.641  0.00  0.00    +0.000 HD
ATOM     11  H   UNL     1      47.509   2.382   7.769  0.00  0.00    +0.000 HD
ENDBRANCH   8   9
ENDBRANCH   7   8
ENDBRANCH   1   7
BRANCH   4  12
ATOM     12  C   UNL     1      45.623   6.606  12.852  0.00  0.00    +0.000 C 
BRANCH  12  13
ATOM     13  N   UNL     1      46.870   7.340  12.640  0.00  0.00    +0.000 N 
ATOM     14  C   UNL     1      48.120   6.765  12.683  0.00  0.00    +0.000 A 
ATOM     15  C   UNL     1      49.043   7.718  12.323  0.00  0.00    +0.000 A 
ATOM     16  C   UNL     1      48.335   8.916  12.034  0.00  0.00    +0.000 A 
ATOM     17  C   UNL     1      48.725  10.191  11.603  0.00  0.00    +0.000 A 
ATOM     18  C   UNL     1      47.712  11.118  11.415  0.00  0.00    +0.000 A 
ATOM     19  N   UNL     1      46.401  10.875  11.625  0.00  0.00    +0.000 NA
ATOM     20  C   UNL     1      46.019   9.648  12.045  0.00  0.00    +0.000 A 
ATOM     21  C   UNL     1      46.978   8.660  12.245  0.00  0.00    +0.000 A 
ENDBRANCH  12  13
ENDBRANCH   4  12
TORSDOF 5
ENDMDL
MODEL 6
REMARK VINA RESULT:    -5.650      1.977      6.514
REMARK INTER + INTRA:          -7.464
REMARK INTER:                  -6.940
REMARK INTRA:                  -0.523
REMARK UNBOUND:                -0.328
REMARK  Name = 
REMARK  5 active torsions:
REMARK  status: ('A' for Active; 'I' for Inactive)
REMARK    1  A    between atoms: N_1  and  C_2
REMARK    2  A    between atoms: C_2  and  C_3
REMARK    3  A    between atoms: C_3  and  C_4
REMARK    4  A    between atoms: C_7  and  C_8
REMARK    5  A    between atoms: C_8  and  N_9
REMARK                            x       y       z     vdW  Elec       q    Type
REMARK                         _______ _______ _______ _____ _____    ______ ____
ROOT
ATOM      1  C   UNL     1      46.891   6.061  13.373  0.00  0.00    +0.000 A 
ATOM      2  C   UNL     1      46.243   4.830  13.523  0.00  0.00    +0.000 A 
ATOM      3  C   UNL     1      45.409   4.336  12.515  0.00  0.00    +0.000 A 
ATOM      4  C   UNL     1      45.210   5.061  11.332  0.00  0.00    +0.000 A 
ATOM      5  C   UNL     1      45.891   6.276  11.170  0.00  0.00    +0.000 A 
ATOM      6  C   UNL     1      46.727   6.768  12.176  0.00  0.00    +0.000 A 
ENDROOT
BRANCH   1   7
ATOM      7  C   UNL     1      47.722   6.632  14.497  0.00  0.00    +0.000 C 
BRANCH   7   8
ATOM      8  C   UNL     1      48.332   7.998  14.167  0.00  0.00    +0.000 C 
BRANCH   8   9
ATOM      9  N   UNL     1      47.650   9.062  14.907  0.00  0.00    +0.000 NA
ATOM     10  H   UNL     1      47.923   9.021  15.888  0.00  0.00    +0.000 HD
ATOM     11  H   UNL     1      46.644   8.904  14.885  0.00  0.00    +0.000 HD
ENDBRANCH   8   9
ENDBRANCH   7   8
ENDBRANCH   1   7
BRANCH   4  12
ATOM     12  C   UNL     1      44.275   4.556  10.261  0.00  0.00    +0.000 C 
BRANCH  12  13
ATOM     13  N   UNL     1      44.832   3.425   9.520  0.00  0.00    +0.000 N 
ATOM     14  C   UNL     1      44.477   2.113   9.735  0.00  0.00    +0.000 A 
ATOM     15  C   UNL     1      45.104   1.338   8.787  0.00  0.00    +0.000 A 
ATOM     16  C   UNL     1      45.858   2.206   7.952  0.00  0.00    +0.000 A 
ATOM     17  C   UNL     1      46.668   2.004   6.827  0.00  0.00    +0.000 A 
ATOM     18  C   UNL     1      47.241   3.134   6.265  0.00  0.00    +0.000 A 
ATOM     19  N   UNL     1      47.076   4.390   6.731  0.00  0.00    +0.000 NA
ATOM     20  C   UNL     1      46.299   4.591   7.819  0.00  0.00    +0.000 A 
ATOM     21  C   UNL     1      45.680   3.505   8.432  0.00  0.00    +0.000 A 
ENDBRANCH  12  13
ENDBRANCH   4  12
TORSDOF 5
ENDMDL
MODEL 7
REMARK VINA RESULT:    -5.351      3.335      6.000
REMARK INTER + INTRA:          -7.086
REMARK INTER:                  -6.735
REMARK INTRA:                  -0.351
REMARK UNBOUND:                -0.328
REMARK  Name = 
REMARK  5 active torsions:
REMARK  status: ('A' for Active; 'I' for Inactive)
REMARK    1  A    between atoms: N_1  and  C_2
REMARK    2  A    between atoms: C_2  and  C_3
REMARK    3  A    between atoms: C_3  and  C_4
REMARK    4  A    between atoms: C_7  and  C_8
REMARK    5  A    between atoms: C_8  and  N_9
REMARK                            x       y       z     vdW  Elec       q    Type
REMARK                         _______ _______ _______ _____ _____    ______ ____
ROOT
ATOM      1  C   UNL     1      49.237   8.319  12.274  0.00  0.00    +0.000 A 
ATOM      2  C   UNL     1      48.995   6.973  12.573  0.00  0.00    +0.000 A 
ATOM      3  C   UNL     1      47.686   6.480  12.625  0.00  0.00    +0.000 A 
ATOM      4  C   UNL     1      46.595   7.321  12.374  0.00  0.00    +0.000 A 
ATOM      5  C   UNL     1      46.844   8.659  12.037  0.00  0.00    +0.000 A 
ATOM      6  C   UNL     1      48.152   9.151  11.981  0.00  0.00    +0.000 A 
ENDROOT
BRANCH   1   7
ATOM      7  C   UNL     1      50.644   8.868  12.302  0.00  0.00    +0.000 C 
BRANCH   7   8
ATOM      8  C   UNL     1      51.597   8.145  11.345  0.00  0.00    +0.000 C 
BRANCH   8   9
ATOM      9  N   UNL     1      52.059   9.052  10.292  0.00  0.00    +0.000 NA
ATOM     10  H   UNL     1      53.046   9.264  10.437  0.00  0.00    +0.000 HD
ATOM     11  H   UNL     1      51.564   9.940  10.362  0.00  0.00    +0.000 HD
ENDBRANCH   8   9
ENDBRANCH   7   8
ENDBRANCH   1   7
BRANCH   4  12
ATOM     12  C   UNL     1      45.180   6.807  12.474  0.00  0.00    +0.000 C 
BRANCH  12  13
ATOM     13  N   UNL     1      45.070   5.397  12.102  0.00  0.00    +0.000 N 
ATOM     14  C   UNL     1      44.671   4.401  12.965  0.00  0.00    +0.000 A 
ATOM     15  C   UNL     1      44.569   3.230  12.251  0.00  0.00    +0.000 A 
ATOM     16  C   UNL     1      44.901   3.519  10.900  0.00  0.00    +0.000 A 
ATOM     17  C   UNL     1      44.952   2.751   9.729  0.00  0.00    +0.000 A 
ATOM     18  C   UNL     1      45.319   3.413   8.568  0.00  0.00    +0.000 A 
ATOM     19  N   UNL     1      45.632   4.724   8.500  0.00  0.00    +0.000 NA
ATOM     20  C   UNL     1      45.590   5.470   9.626  0.00  0.00    +0.000 A 
ATOM     21  C   UNL     1      45.218   4.878  10.830  0.00  0.00    +0.000 A 
ENDBRANCH  12  13
ENDBRANCH   4  12
TORSDOF 5
ENDMDL
MODEL 8
REMARK VINA RESULT:    -5.349      3.685      7.522
REMARK INTER + INTRA:          -7.084
REMARK INTER:                  -6.654
REMARK INTRA:                  -0.429
REMARK UNBOUND:                -0.328
REMARK  Name = 
REMARK  5 active torsions:
REMARK  status: ('A' for Active; 'I' for Inactive)
REMARK    1  A    between atoms: N_1  and  C_2
REMARK    2  A    between atoms: C_2  and  C_3
REMARK    3  A    between atoms: C_3  and  C_4
REMARK    4  A    between atoms: C_7  and  C_8
REMARK    5  A    between atoms: C_8  and  N_9
REMARK                            x       y       z     vdW  Elec       q    Type
REMARK                         _______ _______ _______ _____ _____    ______ ____
ROOT
ATOM      1  C   UNL     1      48.329   5.449  17.124  0.00  0.00    +0.000 A 
ATOM      2  C   UNL     1      48.863   6.544  16.435  0.00  0.00    +0.000 A 
ATOM      3  C   UNL     1      48.643   6.698  15.062  0.00  0.00    +0.000 A 
ATOM      4  C   UNL     1      47.880   5.764  14.351  0.00  0.00    +0.000 A 
ATOM      5  C   UNL     1      47.315   4.689  15.052  0.00  0.00    +0.000 A 
ATOM      6  C   UNL     1      47.531   4.537  16.425  0.00  0.00    +0.000 A 
ENDROOT
BRANCH   1   7
ATOM      7  C   UNL     1      48.639   5.239  18.587  0.00  0.00    +0.000 C 
BRANCH   7   8
ATOM      8  C   UNL     1      48.700   3.762  18.988  0.00  0.00    +0.000 C 
BRANCH   8   9
ATOM      9  N   UNL     1      48.388   3.598  20.410  0.00  0.00    +0.000 NA
ATOM     10  H   UNL     1      47.745   2.816  20.527  0.00  0.00    +0.000 HD
ATOM     11  H   UNL     1      47.897   4.423  20.751  0.00  0.00    +0.000 HD
ENDBRANCH   8   9
ENDBRANCH   7   8
ENDBRANCH   1   7
BRANCH   4  12
ATOM     12  C   UNL     1      47.678   5.900  12.862  0.00  0.00    +0.000 C 
BRANCH  12  13
ATOM     13  N   UNL     1      46.306   6.267  12.515  0.00  0.00    +0.000 N 
ATOM     14  C   UNL     1      45.875   7.562  12.338  0.00  0.00    +0.000 A 
ATOM     15  C   UNL     1      44.570   7.525  11.906  0.00  0.00    +0.000 A 
ATOM     16  C   UNL     1      44.190   6.160  11.799  0.00  0.00    +0.000 A 
ATOM     17  C   UNL     1      43.016   5.511  11.395  0.00  0.00    +0.000 A 
ATOM     18  C   UNL     1      43.036   4.125  11.415  0.00  0.00    +0.000 A 
ATOM     19  N   UNL     1      44.093   3.378  11.800  0.00  0.00    +0.000 NA
ATOM     20  C   UNL     1      45.227   3.999  12.195  0.00  0.00    +0.000 A 
ATOM     21  C   UNL     1      45.288   5.390  12.190  0.00  0.00    +0.000 A 
ENDBRANCH  12  13
ENDBRANCH   4  12
TORSDOF 5
ENDMDL
MODEL 9
REMARK VINA RESULT:    -5.152      4.102      6.088
REMARK INTER + INTRA:          -6.835
REMARK INTER:                  -6.313
REMARK INTRA:                  -0.522
REMARK UNBOUND:                -0.328
REMARK  Name = 
REMARK  5 active torsions:
REMARK  status: ('A' for Active; 'I' for Inactive)
REMARK    1  A    between atoms: N_1  and  C_2
REMARK    2  A    between atoms: C_2  and  C_3
REMARK    3  A    between atoms: C_3  and  C_4
REMARK    4  A    between atoms: C_7  and  C_8
REMARK    5  A    between atoms: C_8  and  N_9
REMARK                            x       y       z     vdW  Elec       q    Type
REMARK                         _______ _______ _______ _____ _____    ______ ____
ROOT
ATOM      1  C   UNL     1      45.360   5.175  12.156  0.00  0.00    +0.000 A 
ATOM      2  C   UNL     1      45.970   4.687  13.316  0.00  0.00    +0.000 A 
ATOM      3  C   UNL     1      47.143   5.273  13.804  0.00  0.00    +0.000 A 
ATOM      4  C   UNL     1      47.726   6.363  13.146  0.00  0.00    +0.000 A 
ATOM      5  C   UNL     1      47.090   6.874  12.005  0.00  0.00    +0.000 A 
ATOM      6  C   UNL     1      45.915   6.291  11.519  0.00  0.00    +0.000 A 
ENDROOT
BRANCH   1   7
ATOM      7  C   UNL     1      44.142   4.488  11.583  0.00  0.00    +0.000 C 
BRANCH   7   8
ATOM      8  C   UNL     1      42.839   5.251  11.840  0.00  0.00    +0.000 C 
BRANCH   8   9
ATOM      9  N   UNL     1      42.620   5.434  13.276  0.00  0.00    +0.000 NA
ATOM     10  H   UNL     1      43.508   5.650  13.729  0.00  0.00    +0.000 HD
ATOM     11  H   UNL     1      42.298   4.559  13.688  0.00  0.00    +0.000 HD
ENDBRANCH   8   9
ENDBRANCH   7   8
ENDBRANCH   1   7
BRANCH   4  12
ATOM     12  C   UNL     1      49.016   6.970  13.640  0.00  0.00    +0.000 C 
BRANCH  12  13
ATOM     13  N   UNL     1      48.840   7.725  14.880  0.00  0.00    +0.000 N 
ATOM     14  C   UNL     1      48.338   9.005  14.939  0.00  0.00    +0.000 A 
ATOM     15  C   UNL     1      48.202   9.352  16.263  0.00  0.00    +0.000 A 
ATOM     16  C   UNL     1      48.620   8.242  17.044  0.00  0.00    +0.000 A 
ATOM     17  C   UNL     1      48.684   7.997  18.422  0.00  0.00    +0.000 A 
ATOM     18  C   UNL     1      49.150   6.751  18.810  0.00  0.00    +0.000 A 
ATOM     19  N   UNL     1      49.545   5.781  17.958  0.00  0.00    +0.000 NA
ATOM     20  C   UNL     1      49.490   6.012  16.627  0.00  0.00    +0.000 A 
ATOM     21  C   UNL     1      49.021   7.237  16.160  0.00  0.00    +0.000 A 
ENDBRANCH  12  13
ENDBRANCH   4  12
TORSDOF 5
ENDMDL
