MODEL 1
REMARK VINA RESULT:    -7.790      0.000      0.000
REMARK INTER + INTRA:          -9.568
REMARK INTER:                  -9.157
REMARK INTRA:                  -0.411
REMARK UNBOUND:                -0.411
REMARK  Name = 
REMARK  3 active torsions:
REMARK  status: ('A' for Active; 'I' for Inactive)
REMARK    1  A    between atoms: C_2  and  C_4
REMARK    2  A    between atoms: N_8  and  C_9
REMARK    3  A    between atoms: C_9  and  C_10
REMARK                            x       y       z     vdW  Elec       q    Type
REMARK                         _______ _______ _______ _____ _____    ______ ____
ROOT
ATOM      1  C   UNL     1      46.406   4.839  13.323  0.00  0.00    +0.000 A 
ATOM      2  C   UNL     1      46.621   5.906  12.456  0.00  0.00    +0.000 A 
ATOM      3  C   UNL     1      46.026   5.878  11.198  0.00  0.00    +0.000 A 
ATOM      4  C   UNL     1      45.266   4.776  10.809  0.00  0.00    +0.000 A 
ATOM      5  N   UNL     1      44.754   4.788   9.517  0.00  0.00    +0.000 N 
ATOM      6  N   UNL     1      45.071   3.726  11.629  0.00  0.00    +0.000 NA
ATOM      7  C   UNL     1      45.639   3.777  12.864  0.00  0.00    +0.000 A 
ATOM      8  H   UNL     1      44.084   5.539   9.391  0.00  0.00    +0.000 HD
ENDROOT
BRANCH   1  10
ATOM      9  N   UNL     1      47.686   5.883  15.100  0.00  0.00    +0.000 N 
ATOM     10  C   UNL     1      46.974   4.792  14.686  0.00  0.00    +0.000 C 
ATOM     11  O   UNL     1      46.789   3.834  15.423  0.00  0.00    +0.000 OA
ATOM     12  H   UNL     1      47.982   5.885  16.068  0.00  0.00    +0.000 HD
ATOM     13  H   UNL     1      47.654   6.771  14.621  0.00  0.00    +0.000 HD
ENDBRANCH   1  10
BRANCH   5  14
ATOM     14  C   UNL     1      44.300   3.525   8.960  0.00  0.00    +0.000 C 
BRANCH  14  15
ATOM     15  C   UNL     1      45.465   2.915   8.206  0.00  0.00    +0.000 A 
ATOM     16  C   UNL     1      45.790   1.561   8.406  0.00  0.00    +0.000 A 
ATOM     17  C   UNL     1      46.858   0.973   7.730  0.00  0.00    +0.000 A 
ATOM     18  C   UNL     1      47.608   1.727   6.836  0.00  0.00    +0.000 A 
ATOM     19  C   UNL     1      47.297   3.071   6.621  0.00  0.00    +0.000 A 
ATOM     20  C   UNL     1      46.229   3.666   7.304  0.00  0.00    +0.000 A 
ENDBRANCH  14  15
ENDBRANCH   5  14
TORSDOF 3
ENDMDL
MODEL 2
REMARK VINA RESULT:    -7.730      2.915      6.179
REMARK INTER + INTRA:          -9.497
REMARK INTER:                  -9.133
REMARK INTRA:                  -0.364
REMARK UNBOUND:                -0.411
REMARK  Name = 
REMARK  3 active torsions:
REMARK  status: ('A' for Active; 'I' for Inactive)
REMARK    1  A    between atoms: C_2  and  C_4
REMARK    2  A    between atoms: N_8  and  C_9
REMARK    3  A    between atoms: C_9  and  C_10
REMARK                            x       y       z     vdW  Elec       q    Type
REMARK                         _______ _______ _______ _____ _____    ______ ____
ROOT
ATOM      1  C   UNL     1      46.551   2.623   7.410  0.00  0.00    +0.000 A 
ATOM      2  C   UNL     1      46.014   1.678   8.278  0.00  0.00    +0.000 A 
ATOM      3  C   UNL     1      45.104   2.096   9.245  0.00  0.00    +0.000 A 
ATOM      4  C   UNL     1      44.776   3.447   9.358  0.00  0.00    +0.000 A 
ATOM      5  N   UNL     1      43.909   3.801  10.385  0.00  0.00    +0.000 N 
ATOM      6  N   UNL     1      45.307   4.375   8.540  0.00  0.00    +0.000 NA
ATOM      7  C   UNL     1      46.178   3.949   7.585  0.00  0.00    +0.000 A 
ATOM      8  H   UNL     1      42.992   3.390  10.253  0.00  0.00    +0.000 HD
ENDROOT
BRANCH   1  10
ATOM      9  N   UNL     1      47.479   3.043   5.208  0.00  0.00    +0.000 N 
ATOM     10  C   UNL     1      47.503   2.271   6.336  0.00  0.00    +0.000 C 
ATOM     11  O   UNL     1      48.297   1.350   6.462  0.00  0.00    +0.000 OA
ATOM     12  H   UNL     1      48.202   2.859   4.524  0.00  0.00    +0.000 HD
ATOM     13  H   UNL     1      47.017   3.939   5.168  0.00  0.00    +0.000 HD
ENDBRANCH   1  10
BRANCH   5  14
ATOM     14  C   UNL     1      43.852   5.202  10.766  0.00  0.00    +0.000 C 
BRANCH  14  15
ATOM     15  C   UNL     1      45.021   5.469  11.692  0.00  0.00    +0.000 A 
ATOM     16  C   UNL     1      45.172   4.702  12.861  0.00  0.00    +0.000 A 
ATOM     17  C   UNL     1      46.235   4.926  13.735  0.00  0.00    +0.000 A 
ATOM     18  C   UNL     1      47.169   5.913  13.445  0.00  0.00    +0.000 A 
ATOM     19  C   UNL     1      47.039   6.681  12.287  0.00  0.00    +0.000 A 
ATOM     20  C   UNL     1      45.968   6.462  11.412  0.00  0.00    +0.000 A 
ENDBRANCH  14  15
ENDBRANCH   5  14
TORSDOF 3
ENDMDL
MODEL 3
REMARK VINA RESULT:    -7.453      1.888      2.352
REMARK INTER + INTRA:          -9.171
REMARK INTER:                  -8.912
REMARK INTRA:                  -0.259
REMARK UNBOUND:                -0.411
REMARK  Name = 
REMARK  3 active torsions:
REMARK  status: ('A' for Active; 'I' for Inactive)
REMARK    1  A    between atoms: C_2  and  C_4
REMARK    2  A    between atoms: N_8  and  C_9
REMARK    3  A    between atoms: C_9  and  C_10
REMARK                            x       y       z     vdW  Elec       q    Type
REMARK                         _______ _______ _______ _____ _____    ______ ____
ROOT
ATOM      1  C   UNL     1      45.644   6.653  12.431  0.00  0.00    +0.000 A 
ATOM      2  C   UNL     1      45.730   5.514  13.225  0.00  0.00    +0.000 A 
ATOM      3  C   UNL     1      45.560   4.267  12.629  0.00  0.00    +0.000 A 
ATOM      4  C   UNL     1      45.267   4.177  11.269  0.00  0.00    +0.000 A 
ATOM      5  N   UNL     1      45.048   2.904  10.754  0.00  0.00    +0.000 N 
ATOM      6  N   UNL     1      45.156   5.273  10.494  0.00  0.00    +0.000 NA
ATOM      7  C   UNL     1      45.348   6.484  11.085  0.00  0.00    +0.000 A 
ATOM      8  H   UNL     1      45.885   2.334  10.810  0.00  0.00    +0.000 HD
ENDROOT
BRANCH   1  10
ATOM      9  N   UNL     1      44.842   8.923  12.728  0.00  0.00    +0.000 N 
ATOM     10  C   UNL     1      45.836   8.016  12.967  0.00  0.00    +0.000 C 
ATOM     11  O   UNL     1      46.825   8.312  13.622  0.00  0.00    +0.000 OA
ATOM     12  H   UNL     1      44.934   9.822  13.186  0.00  0.00    +0.000 HD
ATOM     13  H   UNL     1      43.922   8.656  12.408  0.00  0.00    +0.000 HD
ENDBRANCH   1  10
BRANCH   5  14
ATOM     14  C   UNL     1      44.378   2.803   9.469  0.00  0.00    +0.000 C 
BRANCH  14  15
ATOM     15  C   UNL     1      45.443   2.561   8.419  0.00  0.00    +0.000 A 
ATOM     16  C   UNL     1      46.066   1.303   8.336  0.00  0.00    +0.000 A 
ATOM     17  C   UNL     1      47.052   1.051   7.384  0.00  0.00    +0.000 A 
ATOM     18  C   UNL     1      47.419   2.051   6.491  0.00  0.00    +0.000 A 
ATOM     19  C   UNL     1      46.808   3.304   6.554  0.00  0.00    +0.000 A 
ATOM     20  C   UNL     1      45.823   3.561   7.515  0.00  0.00    +0.000 A 
ENDBRANCH  14  15
ENDBRANCH   5  14
TORSDOF 3
ENDMDL
MODEL 4
REMARK VINA RESULT:    -6.264      3.035      7.155
REMARK INTER + INTRA:          -7.773
REMARK INTER:                  -7.489
REMARK INTRA:                  -0.284
REMARK UNBOUND:                -0.411
REMARK  Name = 
REMARK  3 active torsions:
REMARK  status: ('A' for Active; 'I' for Inactive)
REMARK    1  A    between atoms: C_2  and  C_4
REMARK    2  A    between atoms: N_8  and  C_9
REMARK    3  A    between atoms: C_9  and  C_10
REMARK                            x       y       z     vdW  Elec       q    Type
REMARK                         _______ _______ _______ _____ _____    ______ ____
ROOT
ATOM      1  C   UNL     1      45.233   4.368  11.546  0.00  0.00    +0.000 A 
ATOM      2  C   UNL     1      45.595   5.658  11.923  0.00  0.00    +0.000 A 
ATOM      3  C   UNL     1      46.257   5.840  13.134  0.00  0.00    +0.000 A 
ATOM      4  C   UNL     1      46.510   4.748  13.964  0.00  0.00    +0.000 A 
ATOM      5  N   UNL     1      47.119   5.012  15.186  0.00  0.00    +0.000 N 
ATOM      6  N   UNL     1      46.143   3.499  13.621  0.00  0.00    +0.000 NA
ATOM      7  C   UNL     1      45.517   3.332  12.424  0.00  0.00    +0.000 A 
ATOM      8  H   UNL     1      48.055   5.380  15.060  0.00  0.00    +0.000 HD
ENDROOT
BRANCH   1  10
ATOM      9  N   UNL     1      44.781   4.932   9.229  0.00  0.00    +0.000 N 
ATOM     10  C   UNL     1      44.552   4.073  10.268  0.00  0.00    +0.000 C 
ATOM     11  O   UNL     1      43.839   3.089  10.136  0.00  0.00    +0.000 OA
ATOM     12  H   UNL     1      44.394   4.665   8.333  0.00  0.00    +0.000 HD
ATOM     13  H   UNL     1      45.537   5.602   9.229  0.00  0.00    +0.000 HD
ENDBRANCH   1  10
BRANCH   5  14
ATOM     14  C   UNL     1      47.047   3.985  16.210  0.00  0.00    +0.000 C 
BRANCH  14  15
ATOM     15  C   UNL     1      48.455   3.751  16.719  0.00  0.00    +0.000 A 
ATOM     16  C   UNL     1      48.980   2.446  16.737  0.00  0.00    +0.000 A 
ATOM     17  C   UNL     1      50.270   2.198  17.203  0.00  0.00    +0.000 A 
ATOM     18  C   UNL     1      51.058   3.254  17.646  0.00  0.00    +0.000 A 
ATOM     19  C   UNL     1      50.556   4.556  17.631  0.00  0.00    +0.000 A 
ATOM     20  C   UNL     1      49.257   4.806  17.170  0.00  0.00    +0.000 A 
ENDBRANCH  14  15
ENDBRANCH   5  14
TORSDOF 3
ENDMDL
MODEL 5
REMARK VINA RESULT:    -5.724      3.381      6.044
REMARK INTER + INTRA:          -7.139
REMARK INTER:                  -6.887
REMARK INTRA:                  -0.252
REMARK UNBOUND:                -0.411
REMARK  Name = 
REMARK  3 active torsions:
REMARK  status: ('A' for Active; 'I' for Inactive)
REMARK    1  A    between atoms: C_2  and  C_4
REMARK    2  A    between atoms: N_8  and  C_9
REMARK    3  A    between atoms: C_9  and  C_10
REMARK                            x       y       z     vdW  Elec       q    Type
REMARK                         _______ _______ _______ _____ _____    ______ ____
ROOT
ATOM      1  C   UNL     1      44.546   4.014  11.651  0.00  0.00    +0.000 A 
ATOM      2  C   UNL     1      45.305   3.941  12.815  0.00  0.00    +0.000 A 
ATOM      3  C   UNL     1      45.837   5.113  13.343  0.00  0.00    +0.000 A 
ATOM      4  C   UNL     1      45.642   6.327  12.684  0.00  0.00    +0.000 A 
ATOM      5  N   UNL     1      46.255   7.448  13.234  0.00  0.00    +0.000 N 
ATOM      6  N   UNL     1      44.931   6.408  11.544  0.00  0.00    +0.000 NA
ATOM      7  C   UNL     1      44.397   5.257  11.052  0.00  0.00    +0.000 A 
ATOM      8  H   UNL     1      45.879   7.662  14.151  0.00  0.00    +0.000 HD
ENDROOT
BRANCH   1  10
ATOM      9  N   UNL     1      44.534   2.306   9.928  0.00  0.00    +0.000 N 
ATOM     10  C   UNL     1      43.919   2.828  11.031  0.00  0.00    +0.000 C 
ATOM     11  O   UNL     1      42.913   2.317  11.502  0.00  0.00    +0.000 OA
ATOM     12  H   UNL     1      44.157   1.436   9.573  0.00  0.00    +0.000 HD
ATOM     13  H   UNL     1      45.477   2.547   9.661  0.00  0.00    +0.000 HD
ENDBRANCH   1  10
BRANCH   5  14
ATOM     14  C   UNL     1      46.393   8.622  12.390  0.00  0.00    +0.000 C 
BRANCH  14  15
ATOM     15  C   UNL     1      47.861   8.759  12.039  0.00  0.00    +0.000 A 
ATOM     16  C   UNL     1      48.639   7.604  11.837  0.00  0.00    +0.000 A 
ATOM     17  C   UNL     1      49.992   7.696  11.517  0.00  0.00    +0.000 A 
ATOM     18  C   UNL     1      50.585   8.946  11.382  0.00  0.00    +0.000 A 
ATOM     19  C   UNL     1      49.828  10.104  11.573  0.00  0.00    +0.000 A 
ATOM     20  C   UNL     1      48.470  10.012  11.902  0.00  0.00    +0.000 A 
ENDBRANCH  14  15
ENDBRANCH   5  14
TORSDOF 3
ENDMDL
MODEL 6
REMARK VINA RESULT:    -5.685      3.875      5.939
REMARK INTER + INTRA:          -7.093
REMARK INTER:                  -6.851
REMARK INTRA:                  -0.242
REMARK UNBOUND:                -0.411
REMARK  Name = 
REMARK  3 active torsions:
REMARK  status: ('A' for Active; 'I' for Inactive)
REMARK    1  A    between atoms: C_2  and  C_4
REMARK    2  A    between atoms: N_8  and  C_9
REMARK    3  A    between atoms: C_9  and  C_10
REMARK                            x       y       z     vdW  Elec       q    Type
REMARK                         _______ _______ _______ _____ _____    ______ ____
ROOT
ATOM      1  C   UNL     1      48.953   4.519  18.211  0.00  0.00    +0.000 A 
ATOM      2  C   UNL     1      48.095   3.427  18.119  0.00  0.00    +0.000 A 
ATOM      3  C   UNL     1      47.395   3.223  16.934  0.00  0.00    +0.000 A 
ATOM      4  C   UNL     1      47.527   4.127  15.880  0.00  0.00    +0.000 A 
ATOM      5  N   UNL     1      46.750   3.895  14.750  0.00  0.00    +0.000 N 
ATOM      6  N   UNL     1      48.334   5.201  15.965  0.00  0.00    +0.000 NA
ATOM      7  C   UNL     1      49.030   5.375  17.121  0.00  0.00    +0.000 A 
ATOM      8  H   UNL     1      47.010   3.026  14.294  0.00  0.00    +0.000 HD
ENDROOT
BRANCH   1  10
ATOM      9  N   UNL     1      49.274   4.339  20.609  0.00  0.00    +0.000 N 
ATOM     10  C   UNL     1      49.757   4.803  19.417  0.00  0.00    +0.000 C 
ATOM     11  O   UNL     1      50.822   5.398  19.351  0.00  0.00    +0.000 OA
ATOM     12  H   UNL     1      49.880   4.447  21.412  0.00  0.00    +0.000 HD
ATOM     13  H   UNL     1      48.539   3.649  20.670  0.00  0.00    +0.000 HD
ENDBRANCH   1  10
BRANCH   5  14
ATOM     14  C   UNL     1      46.574   4.994  13.816  0.00  0.00    +0.000 C 
BRANCH  14  15
ATOM     15  C   UNL     1      45.332   4.700  12.998  0.00  0.00    +0.000 A 
ATOM     16  C   UNL     1      44.318   5.670  12.901  0.00  0.00    +0.000 A 
ATOM     17  C   UNL     1      43.163   5.429  12.159  0.00  0.00    +0.000 A 
ATOM     18  C   UNL     1      43.011   4.218  11.494  0.00  0.00    +0.000 A 
ATOM     19  C   UNL     1      44.009   3.246  11.575  0.00  0.00    +0.000 A 
ATOM     20  C   UNL     1      45.167   3.484  12.325  0.00  0.00    +0.000 A 
ENDBRANCH  14  15
ENDBRANCH   5  14
TORSDOF 3
ENDMDL
MODEL 7
REMARK VINA RESULT:    -5.402      2.885      6.232
REMARK INTER + INTRA:          -6.760
REMARK INTER:                  -6.350
REMARK INTRA:                  -0.410
REMARK UNBOUND:                -0.411
REMARK  Name = 
REMARK  3 active torsions:
REMARK  status: ('A' for Active; 'I' for Inactive)
REMARK    1  A    between atoms: C_2  and  C_4
REMARK    2  A    between atoms: N_8  and  C_9
REMARK    3  A    between atoms: C_9  and  C_10
REMARK                            x       y       z     vdW  Elec       q    Type
REMARK                         _______ _______ _______ _____ _____    ______ ____
ROOT
ATOM      1  C   UNL     1      44.944   3.740  10.210  0.00  0.00    +0.000 A 
ATOM      2  C   UNL     1      45.057   3.302  11.526  0.00  0.00    +0.000 A 
ATOM      3  C   UNL     1      45.206   4.247  12.537  0.00  0.00    +0.000 A 
ATOM      4  C   UNL     1      45.280   5.603  12.219  0.00  0.00    +0.000 A 
ATOM      5  N   UNL     1      45.491   6.486  13.273  0.00  0.00    +0.000 N 
ATOM      6  N   UNL     1      45.197   6.038  10.948  0.00  0.00    +0.000 NA
ATOM      7  C   UNL     1      45.029   5.105   9.973  0.00  0.00    +0.000 A 
ATOM      8  H   UNL     1      44.711   6.481  13.921  0.00  0.00    +0.000 HD
ENDROOT
BRANCH   1  10
ATOM      9  N   UNL     1      44.289   3.350   7.907  0.00  0.00    +0.000 N 
ATOM     10  C   UNL     1      44.758   2.814   9.074  0.00  0.00    +0.000 C 
ATOM     11  O   UNL     1      45.038   1.628   9.163  0.00  0.00    +0.000 OA
ATOM     12  H   UNL     1      44.263   2.730   7.107  0.00  0.00    +0.000 HD
ATOM     13  H   UNL     1      44.278   4.343   7.727  0.00  0.00    +0.000 HD
ENDBRANCH   1  10
BRANCH   5  14
ATOM     14  C   UNL     1      45.950   7.826  12.948  0.00  0.00    +0.000 C 
BRANCH  14  15
ATOM     15  C   UNL     1      47.465   7.806  12.971  0.00  0.00    +0.000 A 
ATOM     16  C   UNL     1      48.139   7.610  14.190  0.00  0.00    +0.000 A 
ATOM     17  C   UNL     1      49.532   7.591  14.245  0.00  0.00    +0.000 A 
ATOM     18  C   UNL     1      50.270   7.754  13.079  0.00  0.00    +0.000 A 
ATOM     19  C   UNL     1      49.618   7.944  11.859  0.00  0.00    +0.000 A 
ATOM     20  C   UNL     1      48.219   7.971  11.803  0.00  0.00    +0.000 A 
ENDBRANCH  14  15
ENDBRANCH   5  14
TORSDOF 3
ENDMDL
MODEL 8
REMARK VINA RESULT:    -4.949      4.215      6.572
REMARK INTER + INTRA:          -6.228
REMARK INTER:                  -5.892
REMARK INTRA:                  -0.336
REMARK UNBOUND:                -0.411
REMARK  Name = 
REMARK  3 active torsions:
REMARK  status: ('A' for Active; 'I' for Inactive)
REMARK    1  A    between atoms: C_2  and  C_4
REMARK    2  A    between atoms: N_8  and  C_9
REMARK    3  A    between atoms: C_9  and  C_10
REMARK                            x       y       z     vdW  Elec       q    Type
REMARK                         _______ _______ _______ _____ _____    ______ ____
ROOT
ATOM      1  C   UNL     1      51.038   3.927  17.779  0.00  0.00    +0.000 A 
ATOM      2  C   UNL     1      50.786   5.282  17.590  0.00  0.00    +0.000 A 
ATOM      3  C   UNL     1      49.590   5.664  16.989  0.00  0.00    +0.000 A 
ATOM      4  C   UNL     1      48.688   4.694  16.550  0.00  0.00    +0.000 A 
ATOM      5  N   UNL     1      47.543   5.145  15.902  0.00  0.00    +0.000 N 
ATOM      6  N   UNL     1      48.932   3.379  16.704  0.00  0.00    +0.000 NA
ATOM      7  C   UNL     1      50.094   3.021  17.315  0.00  0.00    +0.000 A 
ATOM      8  H   UNL     1      46.956   5.689  16.526  0.00  0.00    +0.000 HD
ENDROOT
BRANCH   1  10
ATOM      9  N   UNL     1      52.421   2.071  18.507  0.00  0.00    +0.000 N 
ATOM     10  C   UNL     1      52.267   3.427  18.431  0.00  0.00    +0.000 C 
ATOM     11  O   UNL     1      53.121   4.191  18.856  0.00  0.00    +0.000 OA
ATOM     12  H   UNL     1      53.310   1.739  18.861  0.00  0.00    +0.000 HD
ATOM     13  H   UNL     1      51.867   1.425  17.963  0.00  0.00    +0.000 HD
ENDBRANCH   1  10
BRANCH   5  14
ATOM     14  C   UNL     1      46.794   4.185  15.111  0.00  0.00    +0.000 C 
BRANCH  14  15
ATOM     15  C   UNL     1      46.517   4.823  13.765  0.00  0.00    +0.000 A 
ATOM     16  C   UNL     1      47.206   5.992  13.394  0.00  0.00    +0.000 A 
ATOM     17  C   UNL     1      46.970   6.605  12.164  0.00  0.00    +0.000 A 
ATOM     18  C   UNL     1      46.051   6.050  11.282  0.00  0.00    +0.000 A 
ATOM     19  C   UNL     1      45.361   4.887  11.631  0.00  0.00    +0.000 A 
ATOM     20  C   UNL     1      45.591   4.275  12.868  0.00  0.00    +0.000 A 
ENDBRANCH  14  15
ENDBRANCH   5  14
TORSDOF 3
ENDMDL
