MODEL 1
REMARK VINA RESULT:    -8.597      0.000      0.000
REMARK INTER + INTRA:         -11.721
REMARK INTER:                 -11.109
REMARK INTRA:                  -0.612
REMARK UNBOUND:                -0.612
REMARK  Name = 
REMARK  5 active torsions:
REMARK  status: ('A' for Active; 'I' for Inactive)
REMARK    1  A    between atoms: C_2  and  C_4
REMARK    2  A    between atoms: C_7  and  N_8
REMARK    3  A    between atoms: N_8  and  C_9
REMARK    4  A    between atoms: C_9  and  C_10
REMARK    5  A    between atoms: C_14  and  C_15
REMARK                            x       y       z     vdW  Elec       q    Type
REMARK                         _______ _______ _______ _____ _____    ______ ____
ROOT
ATOM      1  C   UNL     1      43.818   4.690  11.318  0.00  0.00    +0.000 C 
ENDROOT
BRANCH   1   2
ATOM      2  C   UNL     1      45.006   5.466  11.844  0.00  0.00    +0.000 A 
ATOM      3  C   UNL     1      45.414   6.665  11.254  0.00  0.00    +0.000 A 
ATOM      4  C   UNL     1      46.483   7.378  11.794  0.00  0.00    +0.000 A 
ATOM      5  C   UNL     1      47.147   6.904  12.931  0.00  0.00    +0.000 A 
ATOM      6  C   UNL     1      46.758   5.710  13.564  0.00  0.00    +0.000 A 
ATOM      7  C   UNL     1      45.686   5.003  12.990  0.00  0.00    +0.000 A 
BRANCH   6   8
ATOM      8  C   UNL     1      47.421   5.235  14.798  0.00  0.00    +0.000 A 
ATOM      9  C   UNL     1      48.463   5.951  15.404  0.00  0.00    +0.000 A 
ATOM     10  N   UNL     1      49.110   5.592  16.544  0.00  0.00    +0.000 NA
ATOM     11  C   UNL     1      48.690   4.452  17.135  0.00  0.00    +0.000 A 
ATOM     12  C   UNL     1      47.670   3.670  16.631  0.00  0.00    +0.000 A 
ATOM     13  F   UNL     1      47.292   2.552  17.264  0.00  0.00    +0.000 F 
ATOM     14  C   UNL     1      47.033   4.057  15.456  0.00  0.00    +0.000 A 
ENDBRANCH   6   8
ENDBRANCH   1   2
BRANCH   1  15
ATOM     15  N   UNL     1      43.826   4.751   9.862  0.00  0.00    +0.000 N 
ATOM     16  H   UNL     1      42.899   4.618   9.469  0.00  0.00    +0.000 HD
BRANCH  15  20
ATOM     17  C   UNL     1      46.395   2.281   7.827  0.00  0.00    +0.000 A 
ATOM     18  C   UNL     1      46.423   3.649   7.621  0.00  0.00    +0.000 A 
ATOM     19  N   UNL     1      45.620   4.508   8.305  0.00  0.00    +0.000 NA
ATOM     20  C   UNL     1      44.781   3.964   9.213  0.00  0.00    +0.000 A 
ATOM     21  C   UNL     1      44.786   2.576   9.418  0.00  0.00    +0.000 A 
ATOM     22  N   UNL     1      45.579   1.700   8.747  0.00  0.00    +0.000 NA
BRANCH  17  24
ATOM     23  N   UNL     1      48.295   1.991   6.355  0.00  0.00    +0.000 N 
ATOM     24  C   UNL     1      47.245   1.388   6.994  0.00  0.00    +0.000 C 
ATOM     25  O   UNL     1      47.031   0.185   6.897  0.00  0.00    +0.000 OA
ATOM     26  H   UNL     1      48.935   1.429   5.813  0.00  0.00    +0.000 HD
ATOM     27  H   UNL     1      48.471   2.980   6.492  0.00  0.00    +0.000 HD
ENDBRANCH  17  24
ENDBRANCH  15  20
ENDBRANCH   1  15
TORSDOF 5
ENDMDL
MODEL 2
REMARK VINA RESULT:    -8.512      2.738      3.806
REMARK INTER + INTRA:         -11.613
REMARK INTER:                 -11.036
REMARK INTRA:                  -0.577
REMARK UNBOUND:                -0.612
REMARK  Name = 
REMARK  5 active torsions:
REMARK  status: ('A' for Active; 'I' for Inactive)
REMARK    1  A    between atoms: C_2  and  C_4
REMARK    2  A    between atoms: C_7  and  N_8
REMARK    3  A    between atoms: N_8  and  C_9
REMARK    4  A    between atoms: C_9  and  C_10
REMARK    5  A    between atoms: C_14  and  C_15
REMARK                            x       y       z     vdW  Elec       q    Type
REMARK                         _______ _______ _______ _____ _____    ______ ____
ROOT
ATOM      1  C   UNL     1      43.534   4.547  11.158  0.00  0.00    +0.000 C 
ENDROOT
BRANCH   1   2
ATOM      2  C   UNL     1      44.777   4.872  11.960  0.00  0.00    +0.000 A 
ATOM      3  C   UNL     1      45.325   3.954  12.859  0.00  0.00    +0.000 A 
ATOM      4  C   UNL     1      46.497   4.268  13.545  0.00  0.00    +0.000 A 
ATOM      5  C   UNL     1      47.133   5.495  13.333  0.00  0.00    +0.000 A 
ATOM      6  C   UNL     1      46.623   6.440  12.426  0.00  0.00    +0.000 A 
ATOM      7  C   UNL     1      45.432   6.104  11.758  0.00  0.00    +0.000 A 
BRANCH   6   8
ATOM      8  C   UNL     1      47.324   7.715  12.158  0.00  0.00    +0.000 A 
ATOM      9  C   UNL     1      46.697   8.958  12.329  0.00  0.00    +0.000 A 
ATOM     10  N   UNL     1      47.276  10.169  12.121  0.00  0.00    +0.000 NA
ATOM     11  C   UNL     1      48.568  10.154  11.728  0.00  0.00    +0.000 A 
ATOM     12  C   UNL     1      49.286   8.991  11.533  0.00  0.00    +0.000 A 
ATOM     13  F   UNL     1      50.568   9.038  11.149  0.00  0.00    +0.000 F 
ATOM     14  C   UNL     1      48.664   7.765  11.743  0.00  0.00    +0.000 A 
ENDBRANCH   6   8
ENDBRANCH   1   2
BRANCH   1  15
ATOM     15  N   UNL     1      43.801   4.819   9.751  0.00  0.00    +0.000 N 
ATOM     16  H   UNL     1      42.947   4.865   9.203  0.00  0.00    +0.000 HD
BRANCH  15  20
ATOM     17  C   UNL     1      46.406   2.314   7.805  0.00  0.00    +0.000 A 
ATOM     18  C   UNL     1      46.472   3.684   7.616  0.00  0.00    +0.000 A 
ATOM     19  N   UNL     1      45.657   4.552   8.274  0.00  0.00    +0.000 NA
ATOM     20  C   UNL     1      44.767   4.017   9.137  0.00  0.00    +0.000 A 
ATOM     21  C   UNL     1      44.733   2.628   9.326  0.00  0.00    +0.000 A 
ATOM     22  N   UNL     1      45.537   1.741   8.681  0.00  0.00    +0.000 NA
BRANCH  17  24
ATOM     23  N   UNL     1      48.287   2.020   6.311  0.00  0.00    +0.000 N 
ATOM     24  C   UNL     1      47.273   1.412   7.001  0.00  0.00    +0.000 C 
ATOM     25  O   UNL     1      47.104   0.198   6.970  0.00  0.00    +0.000 OA
ATOM     26  H   UNL     1      48.938   1.455   5.785  0.00  0.00    +0.000 HD
ATOM     27  H   UNL     1      48.428   3.021   6.393  0.00  0.00    +0.000 HD
ENDBRANCH  17  24
ENDBRANCH  15  20
ENDBRANCH   1  15
TORSDOF 5
ENDMDL
MODEL 3
REMARK VINA RESULT:    -8.169      3.119      4.507
REMARK INTER + INTRA:         -11.168
REMARK INTER:                 -10.442
REMARK INTRA:                  -0.727
REMARK UNBOUND:                -0.612
REMARK  Name = 
REMARK  5 active torsions:
REMARK  status: ('A' for Active; 'I' for Inactive)
REMARK    1  A    between atoms: C_2  and  C_4
REMARK    2  A    between atoms: C_7  and  N_8
REMARK    3  A    between atoms: N_8  and  C_9
REMARK    4  A    between atoms: C_9  and  C_10
REMARK    5  A    between atoms: C_14  and  C_15
REMARK                            x       y       z     vdW  Elec       q    Type
REMARK                         _______ _______ _______ _____ _____    ______ ____
ROOT
ATOM      1  C   UNL     1      44.137   3.144  11.870  0.00  0.00    +0.000 C 
ENDROOT
BRANCH   1   2
ATOM      2  C   UNL     1      45.074   4.205  12.408  0.00  0.00    +0.000 A 
ATOM      3  C   UNL     1      46.195   3.869  13.171  0.00  0.00    +0.000 A 
ATOM      4  C   UNL     1      47.062   4.869  13.609  0.00  0.00    +0.000 A 
ATOM      5  C   UNL     1      46.819   6.208  13.285  0.00  0.00    +0.000 A 
ATOM      6  C   UNL     1      45.710   6.586  12.507  0.00  0.00    +0.000 A 
ATOM      7  C   UNL     1      44.844   5.559  12.090  0.00  0.00    +0.000 A 
BRANCH   6   8
ATOM      8  C   UNL     1      45.482   7.994  12.115  0.00  0.00    +0.000 A 
ATOM      9  C   UNL     1      46.355   9.022  12.498  0.00  0.00    +0.000 A 
ATOM     10  N   UNL     1      46.224  10.333  12.165  0.00  0.00    +0.000 NA
ATOM     11  C   UNL     1      45.165  10.650  11.389  0.00  0.00    +0.000 A 
ATOM     12  C   UNL     1      44.245   9.719  10.949  0.00  0.00    +0.000 A 
ATOM     13  F   UNL     1      43.217  10.091  10.175  0.00  0.00    +0.000 F 
ATOM     14  C   UNL     1      44.398   8.386  11.314  0.00  0.00    +0.000 A 
ENDBRANCH   6   8
ENDBRANCH   1   2
BRANCH   1  15
ATOM     15  N   UNL     1      43.704   3.534  10.535  0.00  0.00    +0.000 N 
ATOM     16  H   UNL     1      42.742   3.265  10.351  0.00  0.00    +0.000 HD
BRANCH  15  20
ATOM     17  C   UNL     1      46.405   2.685   7.563  0.00  0.00    +0.000 A 
ATOM     18  C   UNL     1      45.906   1.677   8.370  0.00  0.00    +0.000 A 
ATOM     19  N   UNL     1      44.977   1.907   9.337  0.00  0.00    +0.000 NA
ATOM     20  C   UNL     1      44.551   3.181   9.480  0.00  0.00    +0.000 A 
ATOM     21  C   UNL     1      45.056   4.181   8.637  0.00  0.00    +0.000 A 
ATOM     22  N   UNL     1      45.983   3.974   7.664  0.00  0.00    +0.000 NA
BRANCH  17  24
ATOM     23  N   UNL     1      47.409   3.075   5.395  0.00  0.00    +0.000 N 
ATOM     24  C   UNL     1      47.473   2.381   6.574  0.00  0.00    +0.000 C 
ATOM     25  O   UNL     1      48.367   1.574   6.804  0.00  0.00    +0.000 OA
ATOM     26  H   UNL     1      48.134   2.947   4.704  0.00  0.00    +0.000 HD
ATOM     27  H   UNL     1      46.683   3.769   5.254  0.00  0.00    +0.000 HD
ENDBRANCH  17  24
ENDBRANCH  15  20
ENDBRANCH   1  15
TORSDOF 5
ENDMDL
MODEL 4
REMARK VINA RESULT:    -7.892      2.139      2.621
REMARK INTER + INTRA:         -10.811
REMARK INTER:                 -10.167
REMARK INTRA:                  -0.644
REMARK UNBOUND:                -0.612
REMARK  Name = 
REMARK  5 active torsions:
REMARK  status: ('A' for Active; 'I' for Inactive)
REMARK    1  A    between atoms: C_2  and  C_4
REMARK    2  A    between atoms: C_7  and  N_8
REMARK    3  A    between atoms: N_8  and  C_9
REMARK    4  A    between atoms: C_9  and  C_10
REMARK    5  A    between atoms: C_14  and  C_15
REMARK                            x       y       z     vdW  Elec       q    Type
REMARK                         _______ _______ _______ _____ _____    ______ ____
ROOT
ATOM      1  C   UNL     1      44.029   4.872  11.302  0.00  0.00    +0.000 C 
ENDROOT
BRANCH   1   2
ATOM      2  C   UNL     1      44.727   6.181  11.609  0.00  0.00    +0.000 A 
ATOM      3  C   UNL     1      44.175   7.408  11.233  0.00  0.00    +0.000 A 
ATOM      4  C   UNL     1      44.822   8.594  11.574  0.00  0.00    +0.000 A 
ATOM      5  C   UNL     1      46.018   8.565  12.298  0.00  0.00    +0.000 A 
ATOM      6  C   UNL     1      46.599   7.352  12.707  0.00  0.00    +0.000 A 
ATOM      7  C   UNL     1      45.934   6.169  12.338  0.00  0.00    +0.000 A 
BRANCH   6   8
ATOM      8  C   UNL     1      47.835   7.320  13.521  0.00  0.00    +0.000 A 
ATOM      9  C   UNL     1      48.028   6.377  14.540  0.00  0.00    +0.000 A 
ATOM     10  N   UNL     1      49.138   6.271  15.317  0.00  0.00    +0.000 NA
ATOM     11  C   UNL     1      50.132   7.150  15.063  0.00  0.00    +0.000 A 
ATOM     12  C   UNL     1      50.053   8.117  14.081  0.00  0.00    +0.000 A 
ATOM     13  F   UNL     1      51.073   8.958  13.869  0.00  0.00    +0.000 F 
ATOM     14  C   UNL     1      48.900   8.209  13.308  0.00  0.00    +0.000 A 
ENDBRANCH   6   8
ENDBRANCH   1   2
BRANCH   1  15
ATOM     15  N   UNL     1      43.860   4.759   9.859  0.00  0.00    +0.000 N 
ATOM     16  H   UNL     1      42.929   4.439   9.608  0.00  0.00    +0.000 HD
BRANCH  15  20
ATOM     17  C   UNL     1      46.548   2.525   7.708  0.00  0.00    +0.000 A 
ATOM     18  C   UNL     1      46.485   3.898   7.546  0.00  0.00    +0.000 A 
ATOM     19  N   UNL     1      45.640   4.681   8.270  0.00  0.00    +0.000 NA
ATOM     20  C   UNL     1      44.852   4.056   9.171  0.00  0.00    +0.000 A 
ATOM     21  C   UNL     1      44.949   2.666   9.331  0.00  0.00    +0.000 A 
ATOM     22  N   UNL     1      45.786   1.864   8.620  0.00  0.00    +0.000 NA
BRANCH  17  24
ATOM     23  N   UNL     1      48.570   2.347   6.390  0.00  0.00    +0.000 N 
ATOM     24  C   UNL     1      47.439   1.716   6.834  0.00  0.00    +0.000 C 
ATOM     25  O   UNL     1      47.189   0.552   6.543  0.00  0.00    +0.000 OA
ATOM     26  H   UNL     1      49.238   1.834   5.832  0.00  0.00    +0.000 HD
ATOM     27  H   UNL     1      48.771   3.295   6.686  0.00  0.00    +0.000 HD
ENDBRANCH  17  24
ENDBRANCH  15  20
ENDBRANCH   1  15
TORSDOF 5
ENDMDL
MODEL 5
REMARK VINA RESULT:    -7.723      3.509      7.515
REMARK INTER + INTRA:         -10.592
REMARK INTER:                 -10.216
REMARK INTRA:                  -0.376
REMARK UNBOUND:                -0.612
REMARK  Name = 
REMARK  5 active torsions:
REMARK  status: ('A' for Active; 'I' for Inactive)
REMARK    1  A    between atoms: C_2  and  C_4
REMARK    2  A    between atoms: C_7  and  N_8
REMARK    3  A    between atoms: N_8  and  C_9
REMARK    4  A    between atoms: C_9  and  C_10
REMARK    5  A    between atoms: C_14  and  C_15
REMARK                            x       y       z     vdW  Elec       q    Type
REMARK                         _______ _______ _______ _____ _____    ______ ____
ROOT
ATOM      1  C   UNL     1      46.116   7.168  12.226  0.00  0.00    +0.000 C 
ENDROOT
BRANCH   1   2
ATOM      2  C   UNL     1      45.238   6.168  11.505  0.00  0.00    +0.000 A 
ATOM      3  C   UNL     1      43.862   6.104  11.737  0.00  0.00    +0.000 A 
ATOM      4  C   UNL     1      43.077   5.204  11.020  0.00  0.00    +0.000 A 
ATOM      5  C   UNL     1      43.657   4.366  10.062  0.00  0.00    +0.000 A 
ATOM      6  C   UNL     1      45.036   4.409   9.788  0.00  0.00    +0.000 A 
ATOM      7  C   UNL     1      45.807   5.316  10.535  0.00  0.00    +0.000 A 
BRANCH   6   8
ATOM      8  C   UNL     1      45.643   3.564   8.736  0.00  0.00    +0.000 A 
ATOM      9  C   UNL     1      46.226   4.115   7.586  0.00  0.00    +0.000 A 
ATOM     10  N   UNL     1      46.818   3.410   6.586  0.00  0.00    +0.000 NA
ATOM     11  C   UNL     1      46.848   2.069   6.737  0.00  0.00    +0.000 A 
ATOM     12  C   UNL     1      46.310   1.419   7.830  0.00  0.00    +0.000 A 
ATOM     13  F   UNL     1      46.375   0.084   7.929  0.00  0.00    +0.000 F 
ATOM     14  C   UNL     1      45.701   2.165   8.833  0.00  0.00    +0.000 A 
ENDBRANCH   6   8
ENDBRANCH   1   2
BRANCH   1  15
ATOM     15  N   UNL     1      47.382   6.527  12.558  0.00  0.00    +0.000 N 
ATOM     16  H   UNL     1      47.723   5.940  11.803  0.00  0.00    +0.000 HD
BRANCH  15  20
ATOM     17  C   UNL     1      47.663   4.348  16.025  0.00  0.00    +0.000 A 
ATOM     18  C   UNL     1      48.359   5.536  15.882  0.00  0.00    +0.000 A 
ATOM     19  N   UNL     1      48.260   6.311  14.768  0.00  0.00    +0.000 NA
ATOM     20  C   UNL     1      47.440   5.870  13.790  0.00  0.00    +0.000 A 
ATOM     21  C   UNL     1      46.730   4.673  13.968  0.00  0.00    +0.000 A 
ATOM     22  N   UNL     1      46.812   3.883  15.071  0.00  0.00    +0.000 NA
BRANCH  17  24
ATOM     23  N   UNL     1      46.772   2.830  17.686  0.00  0.00    +0.000 N 
ATOM     24  C   UNL     1      47.871   3.509  17.235  0.00  0.00    +0.000 C 
ATOM     25  O   UNL     1      48.962   3.415  17.786  0.00  0.00    +0.000 OA
ATOM     26  H   UNL     1      46.862   2.206  18.475  0.00  0.00    +0.000 HD
ATOM     27  H   UNL     1      45.894   2.893  17.181  0.00  0.00    +0.000 HD
ENDBRANCH  17  24
ENDBRANCH  15  20
ENDBRANCH   1  15
TORSDOF 5
ENDMDL
MODEL 6
REMARK VINA RESULT:    -7.562      3.876      8.434
REMARK INTER + INTRA:         -10.385
REMARK INTER:                  -9.907
REMARK INTRA:                  -0.478
REMARK UNBOUND:                -0.612
REMARK  Name = 
REMARK  5 active torsions:
REMARK  status: ('A' for Active; 'I' for Inactive)
REMARK    1  A    between atoms: C_2  and  C_4
REMARK    2  A    between atoms: C_7  and  N_8
REMARK    3  A    between atoms: N_8  and  C_9
REMARK    4  A    between atoms: C_9  and  C_10
REMARK    5  A    between atoms: C_14  and  C_15
REMARK                            x       y       z     vdW  Elec       q    Type
REMARK                         _______ _______ _______ _____ _____    ______ ____
ROOT
ATOM      1  C   UNL     1      46.045   5.320  13.934  0.00  0.00    +0.000 C 
ENDROOT
BRANCH   1   2
ATOM      2  C   UNL     1      45.123   5.066  12.761  0.00  0.00    +0.000 A 
ATOM      3  C   UNL     1      43.795   5.498  12.770  0.00  0.00    +0.000 A 
ATOM      4  C   UNL     1      42.988   5.289  11.653  0.00  0.00    +0.000 A 
ATOM      5  C   UNL     1      43.503   4.654  10.518  0.00  0.00    +0.000 A 
ATOM      6  C   UNL     1      44.838   4.217  10.462  0.00  0.00    +0.000 A 
ATOM      7  C   UNL     1      45.626   4.428  11.608  0.00  0.00    +0.000 A 
BRANCH   6   8
ATOM      8  C   UNL     1      45.401   3.596   9.243  0.00  0.00    +0.000 A 
ATOM      9  C   UNL     1      45.788   4.359   8.132  0.00  0.00    +0.000 A 
ATOM     10  N   UNL     1      46.327   3.867   6.986  0.00  0.00    +0.000 NA
ATOM     11  C   UNL     1      46.509   2.529   6.937  0.00  0.00    +0.000 A 
ATOM     12  C   UNL     1      46.170   1.682   7.974  0.00  0.00    +0.000 A 
ATOM     13  F   UNL     1      46.380   0.363   7.871  0.00  0.00    +0.000 F 
ATOM     14  C   UNL     1      45.610   2.213   9.131  0.00  0.00    +0.000 A 
ENDBRANCH   6   8
ENDBRANCH   1   2
BRANCH   1  15
ATOM     15  N   UNL     1      46.410   4.041  14.530  0.00  0.00    +0.000 N 
ATOM     16  H   UNL     1      45.616   3.412  14.598  0.00  0.00    +0.000 HD
BRANCH  15  20
ATOM     17  C   UNL     1      48.399   4.484  18.093  0.00  0.00    +0.000 A 
ATOM     18  C   UNL     1      47.534   3.421  17.896  0.00  0.00    +0.000 A 
ATOM     19  N   UNL     1      46.888   3.212  16.717  0.00  0.00    +0.000 NA
ATOM     20  C   UNL     1      47.130   4.097  15.726  0.00  0.00    +0.000 A 
ATOM     21  C   UNL     1      48.026   5.154  15.943  0.00  0.00    +0.000 A 
ATOM     22  N   UNL     1      48.683   5.382  17.112  0.00  0.00    +0.000 NA
BRANCH  17  24
ATOM     23  N   UNL     1      48.605   3.849  20.419  0.00  0.00    +0.000 N 
ATOM     24  C   UNL     1      49.016   4.700  19.429  0.00  0.00    +0.000 C 
ATOM     25  O   UNL     1      49.853   5.572  19.629  0.00  0.00    +0.000 OA
ATOM     26  H   UNL     1      49.024   3.916  21.336  0.00  0.00    +0.000 HD
ATOM     27  H   UNL     1      47.945   3.109  20.211  0.00  0.00    +0.000 HD
ENDBRANCH  17  24
ENDBRANCH  15  20
ENDBRANCH   1  15
TORSDOF 5
ENDMDL
MODEL 7
REMARK VINA RESULT:    -7.394      3.930      7.177
REMARK INTER + INTRA:         -10.168
REMARK INTER:                  -9.455
REMARK INTRA:                  -0.712
REMARK UNBOUND:                -0.612
REMARK  Name = 
REMARK  5 active torsions:
REMARK  status: ('A' for Active; 'I' for Inactive)
REMARK    1  A    between atoms: C_2  and  C_4
REMARK    2  A    between atoms: C_7  and  N_8
REMARK    3  A    between atoms: N_8  and  C_9
REMARK    4  A    between atoms: C_9  and  C_10
REMARK    5  A    between atoms: C_14  and  C_15
REMARK                            x       y       z     vdW  Elec       q    Type
REMARK                         _______ _______ _______ _____ _____    ______ ____
ROOT
ATOM      1  C   UNL     1      44.136   7.095  11.401  0.00  0.00    +0.000 C 
ENDROOT
BRANCH   1   2
ATOM      2  C   UNL     1      44.078   5.600  11.169  0.00  0.00    +0.000 A 
ATOM      3  C   UNL     1      43.227   4.779  11.913  0.00  0.00    +0.000 A 
ATOM      4  C   UNL     1      43.164   3.414  11.640  0.00  0.00    +0.000 A 
ATOM      5  C   UNL     1      43.943   2.860  10.619  0.00  0.00    +0.000 A 
ATOM      6  C   UNL     1      44.801   3.654   9.837  0.00  0.00    +0.000 A 
ATOM      7  C   UNL     1      44.856   5.025  10.143  0.00  0.00    +0.000 A 
BRANCH   6   8
ATOM      8  C   UNL     1      45.584   3.081   8.720  0.00  0.00    +0.000 A 
ATOM      9  C   UNL     1      46.118   3.882   7.700  0.00  0.00    +0.000 A 
ATOM     10  N   UNL     1      46.860   3.435   6.653  0.00  0.00    +0.000 NA
ATOM     11  C   UNL     1      47.102   2.107   6.616  0.00  0.00    +0.000 A 
ATOM     12  C   UNL     1      46.631   1.225   7.568  0.00  0.00    +0.000 A 
ATOM     13  F   UNL     1      46.908  -0.082   7.482  0.00  0.00    +0.000 F 
ATOM     14  C   UNL     1      45.865   1.709   8.623  0.00  0.00    +0.000 A 
ENDBRANCH   6   8
ENDBRANCH   1   2
BRANCH   1  15
ATOM     15  N   UNL     1      44.764   7.345  12.692  0.00  0.00    +0.000 N 
ATOM     16  H   UNL     1      44.242   8.017  13.246  0.00  0.00    +0.000 HD
BRANCH  15  20
ATOM     17  C   UNL     1      48.807   7.993  12.410  0.00  0.00    +0.000 A 
ATOM     18  C   UNL     1      47.910   9.019  12.163  0.00  0.00    +0.000 A 
ATOM     19  N   UNL     1      46.565   8.859  12.288  0.00  0.00    +0.000 NA
ATOM     20  C   UNL     1      46.130   7.639  12.671  0.00  0.00    +0.000 A 
ATOM     21  C   UNL     1      47.059   6.622  12.934  0.00  0.00    +0.000 A 
ATOM     22  N   UNL     1      48.407   6.759  12.817  0.00  0.00    +0.000 NA
BRANCH  17  24
ATOM     23  N   UNL     1      50.894   7.259  11.429  0.00  0.00    +0.000 N 
ATOM     24  C   UNL     1      50.261   8.210  12.183  0.00  0.00    +0.000 C 
ATOM     25  O   UNL     1      50.853   9.186  12.628  0.00  0.00    +0.000 OA
ATOM     26  H   UNL     1      51.871   7.377  11.201  0.00  0.00    +0.000 HD
ATOM     27  H   UNL     1      50.366   6.487  11.038  0.00  0.00    +0.000 HD
ENDBRANCH  17  24
ENDBRANCH  15  20
ENDBRANCH   1  15
TORSDOF 5
ENDMDL
MODEL 8
REMARK VINA RESULT:    -7.287      4.133      7.642
REMARK INTER + INTRA:         -10.030
REMARK INTER:                  -9.405
REMARK INTRA:                  -0.624
REMARK UNBOUND:                -0.612
REMARK  Name = 
REMARK  5 active torsions:
REMARK  status: ('A' for Active; 'I' for Inactive)
REMARK    1  A    between atoms: C_2  and  C_4
REMARK    2  A    between atoms: C_7  and  N_8
REMARK    3  A    between atoms: N_8  and  C_9
REMARK    4  A    between atoms: C_9  and  C_10
REMARK    5  A    between atoms: C_14  and  C_15
REMARK                            x       y       z     vdW  Elec       q    Type
REMARK                         _______ _______ _______ _____ _____    ______ ____
ROOT
ATOM      1  C   UNL     1      43.766   6.504  11.438  0.00  0.00    +0.000 C 
ENDROOT
BRANCH   1   2
ATOM      2  C   UNL     1      43.883   5.018  11.172  0.00  0.00    +0.000 A 
ATOM      3  C   UNL     1      43.185   4.083  11.939  0.00  0.00    +0.000 A 
ATOM      4  C   UNL     1      43.279   2.726  11.636  0.00  0.00    +0.000 A 
ATOM      5  C   UNL     1      44.064   2.294  10.562  0.00  0.00    +0.000 A 
ATOM      6  C   UNL     1      44.771   3.204   9.757  0.00  0.00    +0.000 A 
ATOM      7  C   UNL     1      44.670   4.566  10.093  0.00  0.00    +0.000 A 
BRANCH   6   8
ATOM      8  C   UNL     1      45.557   2.756   8.586  0.00  0.00    +0.000 A 
ATOM      9  C   UNL     1      46.029   1.441   8.468  0.00  0.00    +0.000 A 
ATOM     10  N   UNL     1      46.741   0.949   7.420  0.00  0.00    +0.000 NA
ATOM     11  C   UNL     1      46.994   1.812   6.412  0.00  0.00    +0.000 A 
ATOM     12  C   UNL     1      46.574   3.127   6.419  0.00  0.00    +0.000 A 
ATOM     13  F   UNL     1      46.849   3.936   5.387  0.00  0.00    +0.000 F 
ATOM     14  C   UNL     1      45.857   3.607   7.510  0.00  0.00    +0.000 A 
ENDBRANCH   6   8
ENDBRANCH   1   2
BRANCH   1  15
ATOM     15  N   UNL     1      44.939   7.173  10.890  0.00  0.00    +0.000 N 
ATOM     16  H   UNL     1      45.233   6.766  10.007  0.00  0.00    +0.000 HD
BRANCH  15  20
ATOM     17  C   UNL     1      47.912   7.613  13.685  0.00  0.00    +0.000 A 
ATOM     18  C   UNL     1      48.048   6.704  12.650  0.00  0.00    +0.000 A 
ATOM     19  N   UNL     1      47.107   6.557  11.678  0.00  0.00    +0.000 NA
ATOM     20  C   UNL     1      46.016   7.349  11.762  0.00  0.00    +0.000 A 
ATOM     21  C   UNL     1      45.912   8.276  12.810  0.00  0.00    +0.000 A 
ATOM     22  N   UNL     1      46.839   8.441  13.791  0.00  0.00    +0.000 NA
BRANCH  17  24
ATOM     23  N   UNL     1      50.209   7.313  14.389  0.00  0.00    +0.000 N 
ATOM     24  C   UNL     1      48.941   7.673  14.758  0.00  0.00    +0.000 C 
ATOM     25  O   UNL     1      48.676   8.039  15.898  0.00  0.00    +0.000 OA
ATOM     26  H   UNL     1      50.959   7.379  15.061  0.00  0.00    +0.000 HD
ATOM     27  H   UNL     1      50.404   7.058  13.427  0.00  0.00    +0.000 HD
ENDBRANCH  17  24
ENDBRANCH  15  20
ENDBRANCH   1  15
TORSDOF 5
ENDMDL
MODEL 9
REMARK VINA RESULT:    -7.037      4.256      7.805
REMARK INTER + INTRA:          -9.706
REMARK INTER:                  -9.054
REMARK INTRA:                  -0.651
REMARK UNBOUND:                -0.612
REMARK  Name = 
REMARK  5 active torsions:
REMARK  status: ('A' for Active; 'I' for Inactive)
REMARK    1  A    between atoms: C_2  and  C_4
REMARK    2  A    between atoms: C_7  and  N_8
REMARK    3  A    between atoms: N_8  and  C_9
REMARK    4  A    between atoms: C_9  and  C_10
REMARK    5  A    between atoms: C_14  and  C_15
REMARK                            x       y       z     vdW  Elec       q    Type
REMARK                         _______ _______ _______ _____ _____    ______ ____
ROOT
ATOM      1  C   UNL     1      48.789   6.562  15.886  0.00  0.00    +0.000 C 
ENDROOT
BRANCH   1   2
ATOM      2  C   UNL     1      48.325   6.708  14.452  0.00  0.00    +0.000 A 
ATOM      3  C   UNL     1      49.003   7.527  13.546  0.00  0.00    +0.000 A 
ATOM      4  C   UNL     1      48.577   7.600  12.221  0.00  0.00    +0.000 A 
ATOM      5  C   UNL     1      47.475   6.853  11.790  0.00  0.00    +0.000 A 
ATOM      6  C   UNL     1      46.775   6.006  12.666  0.00  0.00    +0.000 A 
ATOM      7  C   UNL     1      47.217   5.961  14.000  0.00  0.00    +0.000 A 
BRANCH   6   8
ATOM      8  C   UNL     1      45.645   5.172  12.201  0.00  0.00    +0.000 A 
ATOM      9  C   UNL     1      44.905   4.366  13.078  0.00  0.00    +0.000 A 
ATOM     10  N   UNL     1      43.847   3.587  12.732  0.00  0.00    +0.000 NA
ATOM     11  C   UNL     1      43.485   3.614  11.431  0.00  0.00    +0.000 A 
ATOM     12  C   UNL     1      44.137   4.374  10.480  0.00  0.00    +0.000 A 
ATOM     13  F   UNL     1      43.730   4.366   9.204  0.00  0.00    +0.000 F 
ATOM     14  C   UNL     1      45.225   5.153  10.861  0.00  0.00    +0.000 A 
ENDBRANCH   6   8
ENDBRANCH   1   2
BRANCH   1  15
ATOM     15  N   UNL     1      48.237   5.329  16.433  0.00  0.00    +0.000 N 
ATOM     16  H   UNL     1      47.532   5.507  17.141  0.00  0.00    +0.000 HD
BRANCH  15  20
ATOM     17  C   UNL     1      50.962   2.407  17.374  0.00  0.00    +0.000 A 
ATOM     18  C   UNL     1      51.260   3.742  17.585  0.00  0.00    +0.000 A 
ATOM     19  N   UNL     1      50.371   4.739  17.329  0.00  0.00    +0.000 NA
ATOM     20  C   UNL     1      49.162   4.369  16.854  0.00  0.00    +0.000 A 
ATOM     21  C   UNL     1      48.877   3.008  16.667  0.00  0.00    +0.000 A 
ATOM     22  N   UNL     1      49.749   1.995  16.917  0.00  0.00    +0.000 NA
BRANCH  17  24
ATOM     23  N   UNL     1      51.557   0.179  18.111  0.00  0.00    +0.000 N 
ATOM     24  C   UNL     1      52.003   1.370  17.604  0.00  0.00    +0.000 C 
ATOM     25  O   UNL     1      53.185   1.560  17.340  0.00  0.00    +0.000 OA
ATOM     26  H   UNL     1      52.210  -0.580  18.243  0.00  0.00    +0.000 HD
ATOM     27  H   UNL     1      50.566   0.038  18.275  0.00  0.00    +0.000 HD
ENDBRANCH  17  24
ENDBRANCH  15  20
ENDBRANCH   1  15
TORSDOF 5
ENDMDL
