MODEL 1
REMARK VINA RESULT:    -6.191      0.000      0.000
REMARK INTER + INTRA:          -8.604
REMARK INTER:                  -8.000
REMARK INTRA:                  -0.603
REMARK UNBOUND:                -0.603
REMARK  Name = 
REMARK  8 active torsions:
REMARK  status: ('A' for Active; 'I' for Inactive)
REMARK    1  A    between atoms: C_1  and  C_2
REMARK    2  A    between atoms: C_2  and  C_3
REMARK    3  A    between atoms: C_2  and  C_4
REMARK    4  A    between atoms: C_2  and  C_5
REMARK    5  A    between atoms: C_9  and  C_10
REMARK    6  A    between atoms: N_16  and  C_17
REMARK    7  A    between atoms: C_17  and  C_18
REMARK    8  A    between atoms: C_22  and  C_23
REMARK                            x       y       z     vdW  Elec       q    Type
REMARK                         _______ _______ _______ _____ _____    ______ ____
ROOT
ATOM      1  C   UNL     1      45.422   4.684  12.500  0.00  0.00    +0.000 A 
ATOM      2  N   UNL     1      45.419   4.010  13.645  0.00  0.00    +0.000 NA
ATOM      3  C   UNL     1      46.433   4.515  14.409  0.00  0.00    +0.000 A 
ATOM      4  C   UNL     1      46.884   4.165  15.686  0.00  0.00    +0.000 A 
ATOM      5  C   UNL     1      47.976   4.880  16.199  0.00  0.00    +0.000 A 
ATOM      6  C   UNL     1      48.531   5.898  15.417  0.00  0.00    +0.000 A 
ATOM      7  N   UNL     1      48.119   6.272  14.173  0.00  0.00    +0.000 NA
ATOM      8  C   UNL     1      47.078   5.535  13.736  0.00  0.00    +0.000 A 
ATOM      9  N   UNL     1      46.453   5.618  12.510  0.00  0.00    +0.000 N 
ENDROOT
BRANCH   5  10
ATOM     10  C   UNL     1      48.593   4.615  17.523  0.00  0.00    +0.000 C 
ATOM     11  N   UNL     1      47.835   4.031  18.499  0.00  0.00    +0.000 N 
ATOM     12  O   UNL     1      49.761   4.906  17.746  0.00  0.00    +0.000 OA
ATOM     13  H   UNL     1      46.875   3.740  18.403  0.00  0.00    +0.000 HD
ATOM     14  H   UNL     1      48.295   3.845  19.382  0.00  0.00    +0.000 HD
ENDBRANCH   5  10
BRANCH   1  16
ATOM     15  C   UNL     1      43.844   2.995  11.525  0.00  0.00    +0.000 C 
ATOM     16  C   UNL     1      44.408   4.431  11.383  0.00  0.00    +0.000 C 
ATOM     17  C   UNL     1      45.047   4.509   9.989  0.00  0.00    +0.000 C 
ATOM     18  C   UNL     1      43.206   5.388  11.482  0.00  0.00    +0.000 C 
ENDBRANCH   1  16
BRANCH   9  19
ATOM     19  C   UNL     1      46.832   6.606  11.511  0.00  0.00    +0.000 C 
BRANCH  19  20
ATOM     20  C   UNL     1      46.194   7.967  11.683  0.00  0.00    +0.000 A 
ATOM     21  C   UNL     1      46.978   9.036  12.158  0.00  0.00    +0.000 A 
ATOM     22  C   UNL     1      46.465  10.333  12.229  0.00  0.00    +0.000 A 
ATOM     23  C   UNL     1      45.164  10.589  11.809  0.00  0.00    +0.000 A 
ATOM     24  C   UNL     1      44.363   9.539  11.348  0.00  0.00    +0.000 A 
ATOM     25  C   UNL     1      44.875   8.239  11.288  0.00  0.00    +0.000 A 
BRANCH  24  26
ATOM     26  C   UNL     1      43.025   9.796  10.919  0.00  0.00    +0.000 C 
ATOM     27  N   UNL     1      41.935  10.007  10.576  0.00  0.00    +0.000 NA
ENDBRANCH  24  26
ENDBRANCH  19  20
ENDBRANCH   9  19
TORSDOF 5
ENDMDL
MODEL 2
REMARK VINA RESULT:    -6.171      3.709      6.243
REMARK INTER + INTRA:          -8.578
REMARK INTER:                  -8.067
REMARK INTRA:                  -0.511
REMARK UNBOUND:                -0.603
REMARK  Name = 
REMARK  8 active torsions:
REMARK  status: ('A' for Active; 'I' for Inactive)
REMARK    1  A    between atoms: C_1  and  C_2
REMARK    2  A    between atoms: C_2  and  C_3
REMARK    3  A    between atoms: C_2  and  C_4
REMARK    4  A    between atoms: C_2  and  C_5
REMARK    5  A    between atoms: C_9  and  C_10
REMARK    6  A    between atoms: N_16  and  C_17
REMARK    7  A    between atoms: C_17  and  C_18
REMARK    8  A    between atoms: C_22  and  C_23
REMARK                            x       y       z     vdW  Elec       q    Type
REMARK                         _______ _______ _______ _____ _____    ______ ____
ROOT
ATOM      1  C   UNL     1      44.449   4.089  11.143  0.00  0.00    +0.000 A 
ATOM      2  N   UNL     1      44.846   2.870  10.794  0.00  0.00    +0.000 NA
ATOM      3  C   UNL     1      45.486   2.987   9.592  0.00  0.00    +0.000 A 
ATOM      4  C   UNL     1      46.080   2.024   8.769  0.00  0.00    +0.000 A 
ATOM      5  C   UNL     1      46.654   2.471   7.570  0.00  0.00    +0.000 A 
ATOM      6  C   UNL     1      46.611   3.838   7.281  0.00  0.00    +0.000 A 
ATOM      7  N   UNL     1      46.048   4.807   8.057  0.00  0.00    +0.000 NA
ATOM      8  C   UNL     1      45.503   4.306   9.184  0.00  0.00    +0.000 A 
ATOM      9  N   UNL     1      44.814   4.999  10.157  0.00  0.00    +0.000 N 
ENDROOT
BRANCH   5  10
ATOM     10  C   UNL     1      47.298   1.576   6.575  0.00  0.00    +0.000 C 
ATOM     11  N   UNL     1      48.232   2.098   5.724  0.00  0.00    +0.000 N 
ATOM     12  O   UNL     1      47.009   0.388   6.514  0.00  0.00    +0.000 OA
ATOM     13  H   UNL     1      48.547   3.055   5.713  0.00  0.00    +0.000 HD
ATOM     14  H   UNL     1      48.665   1.454   5.075  0.00  0.00    +0.000 HD
ENDBRANCH   5  10
BRANCH   1  16
ATOM     15  C   UNL     1      42.493   5.286  12.160  0.00  0.00    +0.000 C 
ATOM     16  C   UNL     1      43.716   4.381  12.453  0.00  0.00    +0.000 C 
ATOM     17  C   UNL     1      44.594   5.151  13.451  0.00  0.00    +0.000 C 
ATOM     18  C   UNL     1      43.169   3.093  13.095  0.00  0.00    +0.000 C 
ENDBRANCH   1  16
BRANCH   9  19
ATOM     19  C   UNL     1      44.637   6.443  10.103  0.00  0.00    +0.000 C 
BRANCH  19  20
ATOM     20  C   UNL     1      45.424   7.224  11.132  0.00  0.00    +0.000 A 
ATOM     21  C   UNL     1      44.806   8.305  11.790  0.00  0.00    +0.000 A 
ATOM     22  C   UNL     1      45.452   8.987  12.824  0.00  0.00    +0.000 A 
ATOM     23  C   UNL     1      46.721   8.588  13.231  0.00  0.00    +0.000 A 
ATOM     24  C   UNL     1      47.358   7.526  12.581  0.00  0.00    +0.000 A 
ATOM     25  C   UNL     1      46.714   6.853  11.539  0.00  0.00    +0.000 A 
BRANCH  24  26
ATOM     26  C   UNL     1      48.663   7.116  12.993  0.00  0.00    +0.000 C 
ATOM     27  N   UNL     1      49.723   6.783  13.334  0.00  0.00    +0.000 NA
ENDBRANCH  24  26
ENDBRANCH  19  20
ENDBRANCH   9  19
TORSDOF 5
ENDMDL
MODEL 3
REMARK VINA RESULT:    -6.044      3.345      6.132
REMARK INTER + INTRA:          -8.415
REMARK INTER:                  -7.518
REMARK INTRA:                  -0.896
REMARK UNBOUND:                -0.603
REMARK  Name = 
REMARK  8 active torsions:
REMARK  status: ('A' for Active; 'I' for Inactive)
REMARK    1  A    between atoms: C_1  and  C_2
REMARK    2  A    between atoms: C_2  and  C_3
REMARK    3  A    between atoms: C_2  and  C_4
REMARK    4  A    between atoms: C_2  and  C_5
REMARK    5  A    between atoms: C_9  and  C_10
REMARK    6  A    between atoms: N_16  and  C_17
REMARK    7  A    between atoms: C_17  and  C_18
REMARK    8  A    between atoms: C_22  and  C_23
REMARK                            x       y       z     vdW  Elec       q    Type
REMARK                         _______ _______ _______ _____ _____    ______ ____
ROOT
ATOM      1  C   UNL     1      47.953   6.738  14.283  0.00  0.00    +0.000 A 
ATOM      2  N   UNL     1      47.521   5.482  14.338  0.00  0.00    +0.000 NA
ATOM      3  C   UNL     1      46.713   5.290  13.252  0.00  0.00    +0.000 A 
ATOM      4  C   UNL     1      45.989   4.170  12.831  0.00  0.00    +0.000 A 
ATOM      5  C   UNL     1      45.232   4.298  11.657  0.00  0.00    +0.000 A 
ATOM      6  C   UNL     1      45.261   5.521  10.978  0.00  0.00    +0.000 A 
ATOM      7  N   UNL     1      45.956   6.632  11.351  0.00  0.00    +0.000 NA
ATOM      8  C   UNL     1      46.647   6.443  12.493  0.00  0.00    +0.000 A 
ATOM      9  N   UNL     1      47.410   7.371  13.170  0.00  0.00    +0.000 N 
ENDROOT
BRANCH   5  10
ATOM     10  C   UNL     1      44.387   3.216  11.093  0.00  0.00    +0.000 C 
ATOM     11  N   UNL     1      44.911   2.407  10.123  0.00  0.00    +0.000 N 
ATOM     12  O   UNL     1      43.241   3.038  11.486  0.00  0.00    +0.000 OA
ATOM     13  H   UNL     1      45.846   2.465   9.751  0.00  0.00    +0.000 HD
ATOM     14  H   UNL     1      44.313   1.667   9.778  0.00  0.00    +0.000 HD
ENDBRANCH   5  10
BRANCH   1  16
ATOM     15  C   UNL     1      48.919   6.435  16.578  0.00  0.00    +0.000 C 
ATOM     16  C   UNL     1      48.912   7.332  15.315  0.00  0.00    +0.000 C 
ATOM     17  C   UNL     1      48.475   8.729  15.780  0.00  0.00    +0.000 C 
ATOM     18  C   UNL     1      50.359   7.365  14.790  0.00  0.00    +0.000 C 
ENDBRANCH   1  16
BRANCH   9  19
ATOM     19  C   UNL     1      47.615   8.721  12.668  0.00  0.00    +0.000 C 
BRANCH  19  20
ATOM     20  C   UNL     1      49.009   9.010  12.154  0.00  0.00    +0.000 A 
ATOM     21  C   UNL     1      49.631  10.223  12.508  0.00  0.00    +0.000 A 
ATOM     22  C   UNL     1      50.955  10.487  12.150  0.00  0.00    +0.000 A 
ATOM     23  C   UNL     1      51.687   9.535  11.449  0.00  0.00    +0.000 A 
ATOM     24  C   UNL     1      51.083   8.330  11.075  0.00  0.00    +0.000 A 
ATOM     25  C   UNL     1      49.755   8.073  11.424  0.00  0.00    +0.000 A 
BRANCH  24  26
ATOM     26  C   UNL     1      51.831   7.351  10.350  0.00  0.00    +0.000 C 
ATOM     27  N   UNL     1      52.443   6.556   9.764  0.00  0.00    +0.000 NA
ENDBRANCH  24  26
ENDBRANCH  19  20
ENDBRANCH   9  19
TORSDOF 5
ENDMDL
MODEL 4
REMARK VINA RESULT:    -5.970      1.977      4.504
REMARK INTER + INTRA:          -8.319
REMARK INTER:                  -7.958
REMARK INTRA:                  -0.361
REMARK UNBOUND:                -0.603
REMARK  Name = 
REMARK  8 active torsions:
REMARK  status: ('A' for Active; 'I' for Inactive)
REMARK    1  A    between atoms: C_1  and  C_2
REMARK    2  A    between atoms: C_2  and  C_3
REMARK    3  A    between atoms: C_2  and  C_4
REMARK    4  A    between atoms: C_2  and  C_5
REMARK    5  A    between atoms: C_9  and  C_10
REMARK    6  A    between atoms: N_16  and  C_17
REMARK    7  A    between atoms: C_17  and  C_18
REMARK    8  A    between atoms: C_22  and  C_23
REMARK                            x       y       z     vdW  Elec       q    Type
REMARK                         _______ _______ _______ _____ _____    ______ ____
ROOT
ATOM      1  C   UNL     1      48.449   8.103  13.423  0.00  0.00    +0.000 A 
ATOM      2  N   UNL     1      48.806   7.988  14.698  0.00  0.00    +0.000 NA
ATOM      3  C   UNL     1      48.417   6.744  15.111  0.00  0.00    +0.000 A 
ATOM      4  C   UNL     1      48.528   6.111  16.354  0.00  0.00    +0.000 A 
ATOM      5  C   UNL     1      48.010   4.812  16.461  0.00  0.00    +0.000 A 
ATOM      6  C   UNL     1      47.435   4.230  15.328  0.00  0.00    +0.000 A 
ATOM      7  N   UNL     1      47.312   4.809  14.100  0.00  0.00    +0.000 NA
ATOM      8  C   UNL     1      47.815   6.060  14.073  0.00  0.00    +0.000 A 
ATOM      9  N   UNL     1      47.809   6.939  13.010  0.00  0.00    +0.000 N 
ENDROOT
BRANCH   5  10
ATOM     10  C   UNL     1      48.023   4.016  17.714  0.00  0.00    +0.000 C 
ATOM     11  N   UNL     1      47.146   2.975  17.844  0.00  0.00    +0.000 N 
ATOM     12  O   UNL     1      48.805   4.275  18.620  0.00  0.00    +0.000 OA
ATOM     13  H   UNL     1      46.482   2.676  17.148  0.00  0.00    +0.000 HD
ATOM     14  H   UNL     1      47.199   2.441  18.703  0.00  0.00    +0.000 HD
ENDBRANCH   5  10
BRANCH   1  16
ATOM     15  C   UNL     1      49.414  10.417  13.487  0.00  0.00    +0.000 C 
ATOM     16  C   UNL     1      48.741   9.350  12.588  0.00  0.00    +0.000 C 
ATOM     17  C   UNL     1      47.459   9.995  12.039  0.00  0.00    +0.000 C 
ATOM     18  C   UNL     1      49.728   9.049  11.446  0.00  0.00    +0.000 C 
ENDBRANCH   1  16
BRANCH   9  19
ATOM     19  C   UNL     1      47.278   6.575  11.705  0.00  0.00    +0.000 C 
BRANCH  19  20
ATOM     20  C   UNL     1      45.792   6.287  11.675  0.00  0.00    +0.000 A 
ATOM     21  C   UNL     1      44.891   7.359  11.527  0.00  0.00    +0.000 A 
ATOM     22  C   UNL     1      43.520   7.135  11.383  0.00  0.00    +0.000 A 
ATOM     23  C   UNL     1      43.027   5.834  11.367  0.00  0.00    +0.000 A 
ATOM     24  C   UNL     1      43.904   4.757  11.527  0.00  0.00    +0.000 A 
ATOM     25  C   UNL     1      45.275   4.983  11.682  0.00  0.00    +0.000 A 
BRANCH  24  26
ATOM     26  C   UNL     1      43.402   3.419  11.515  0.00  0.00    +0.000 C 
ATOM     27  N   UNL     1      42.991   2.331  11.510  0.00  0.00    +0.000 NA
ENDBRANCH  24  26
ENDBRANCH  19  20
ENDBRANCH   9  19
TORSDOF 5
ENDMDL
MODEL 5
REMARK VINA RESULT:    -5.787      3.182      8.235
REMARK INTER + INTRA:          -8.082
REMARK INTER:                  -7.400
REMARK INTRA:                  -0.683
REMARK UNBOUND:                -0.603
REMARK  Name = 
REMARK  8 active torsions:
REMARK  status: ('A' for Active; 'I' for Inactive)
REMARK    1  A    between atoms: C_1  and  C_2
REMARK    2  A    between atoms: C_2  and  C_3
REMARK    3  A    between atoms: C_2  and  C_4
REMARK    4  A    between atoms: C_2  and  C_5
REMARK    5  A    between atoms: C_9  and  C_10
REMARK    6  A    between atoms: N_16  and  C_17
REMARK    7  A    between atoms: C_17  and  C_18
REMARK    8  A    between atoms: C_22  and  C_23
REMARK                            x       y       z     vdW  Elec       q    Type
REMARK                         _______ _______ _______ _____ _____    ______ ____
ROOT
ATOM      1  C   UNL     1      49.056   6.924  15.186  0.00  0.00    +0.000 A 
ATOM      2  N   UNL     1      48.736   7.195  13.924  0.00  0.00    +0.000 NA
ATOM      3  C   UNL     1      47.721   6.346  13.579  0.00  0.00    +0.000 A 
ATOM      4  C   UNL     1      47.024   6.189  12.376  0.00  0.00    +0.000 A 
ATOM      5  C   UNL     1      46.026   5.204  12.337  0.00  0.00    +0.000 A 
ATOM      6  C   UNL     1      45.783   4.458  13.495  0.00  0.00    +0.000 A 
ATOM      7  N   UNL     1      46.435   4.584  14.685  0.00  0.00    +0.000 NA
ATOM      8  C   UNL     1      47.388   5.536  14.647  0.00  0.00    +0.000 A 
ATOM      9  N   UNL     1      48.261   5.884  15.656  0.00  0.00    +0.000 N 
ENDROOT
BRANCH   5  10
ATOM     10  C   UNL     1      45.216   4.892  11.133  0.00  0.00    +0.000 C 
ATOM     11  N   UNL     1      44.906   5.902  10.266  0.00  0.00    +0.000 N 
ATOM     12  O   UNL     1      44.831   3.751  10.908  0.00  0.00    +0.000 OA
ATOM     13  H   UNL     1      45.193   6.864  10.357  0.00  0.00    +0.000 HD
ATOM     14  H   UNL     1      44.371   5.648   9.445  0.00  0.00    +0.000 HD
ENDBRANCH   5  10
BRANCH   1  16
ATOM     15  C   UNL     1      50.359   9.066  15.278  0.00  0.00    +0.000 C 
ATOM     16  C   UNL     1      50.137   7.688  15.951  0.00  0.00    +0.000 C 
ATOM     17  C   UNL     1      51.493   6.967  15.917  0.00  0.00    +0.000 C 
ATOM     18  C   UNL     1      49.711   7.970  17.403  0.00  0.00    +0.000 C 
ENDBRANCH   1  16
BRANCH   9  19
ATOM     19  C   UNL     1      48.210   5.266  16.973  0.00  0.00    +0.000 C 
BRANCH  19  20
ATOM     20  C   UNL     1      49.136   4.084  17.162  0.00  0.00    +0.000 A 
ATOM     21  C   UNL     1      48.733   2.818  16.695  0.00  0.00    +0.000 A 
ATOM     22  C   UNL     1      49.596   1.721  16.748  0.00  0.00    +0.000 A 
ATOM     23  C   UNL     1      50.883   1.873  17.253  0.00  0.00    +0.000 A 
ATOM     24  C   UNL     1      51.297   3.118  17.737  0.00  0.00    +0.000 A 
ATOM     25  C   UNL     1      50.428   4.213  17.693  0.00  0.00    +0.000 A 
BRANCH  24  26
ATOM     26  C   UNL     1      52.617   3.279  18.260  0.00  0.00    +0.000 C 
ATOM     27  N   UNL     1      53.691   3.404  18.685  0.00  0.00    +0.000 NA
ENDBRANCH  24  26
ENDBRANCH  19  20
ENDBRANCH   9  19
TORSDOF 5
ENDMDL
MODEL 6
REMARK VINA RESULT:    -5.718      3.277      6.934
REMARK INTER + INTRA:          -7.993
REMARK INTER:                  -7.109
REMARK INTRA:                  -0.884
REMARK UNBOUND:                -0.603
REMARK  Name = 
REMARK  8 active torsions:
REMARK  status: ('A' for Active; 'I' for Inactive)
REMARK    1  A    between atoms: C_1  and  C_2
REMARK    2  A    between atoms: C_2  and  C_3
REMARK    3  A    between atoms: C_2  and  C_4
REMARK    4  A    between atoms: C_2  and  C_5
REMARK    5  A    between atoms: C_9  and  C_10
REMARK    6  A    between atoms: N_16  and  C_17
REMARK    7  A    between atoms: C_17  and  C_18
REMARK    8  A    between atoms: C_22  and  C_23
REMARK                            x       y       z     vdW  Elec       q    Type
REMARK                         _______ _______ _______ _____ _____    ______ ____
ROOT
ATOM      1  C   UNL     1      47.794   4.764  16.095  0.00  0.00    +0.000 A 
ATOM      2  N   UNL     1      46.779   4.240  15.416  0.00  0.00    +0.000 NA
ATOM      3  C   UNL     1      46.696   4.921  14.233  0.00  0.00    +0.000 A 
ATOM      4  C   UNL     1      45.808   4.795  13.160  0.00  0.00    +0.000 A 
ATOM      5  C   UNL     1      45.984   5.667  12.076  0.00  0.00    +0.000 A 
ATOM      6  C   UNL     1      47.035   6.588  12.127  0.00  0.00    +0.000 A 
ATOM      7  N   UNL     1      47.924   6.739  13.149  0.00  0.00    +0.000 NA
ATOM      8  C   UNL     1      47.687   5.881  14.162  0.00  0.00    +0.000 A 
ATOM      9  N   UNL     1      48.363   5.800  15.362  0.00  0.00    +0.000 N 
ENDROOT
BRANCH   5  10
ATOM     10  C   UNL     1      45.111   5.683  10.875  0.00  0.00    +0.000 C 
ATOM     11  N   UNL     1      45.686   5.570   9.640  0.00  0.00    +0.000 N 
ATOM     12  O   UNL     1      43.895   5.789  10.978  0.00  0.00    +0.000 OA
ATOM     13  H   UNL     1      46.670   5.459   9.457  0.00  0.00    +0.000 HD
ATOM     14  H   UNL     1      45.058   5.562   8.846  0.00  0.00    +0.000 HD
ENDBRANCH   5  10
BRANCH   1  16
ATOM     15  C   UNL     1      47.594   2.857  17.713  0.00  0.00    +0.000 C 
ATOM     16  C   UNL     1      48.230   4.248  17.468  0.00  0.00    +0.000 C 
ATOM     17  C   UNL     1      47.743   5.153  18.609  0.00  0.00    +0.000 C 
ATOM     18  C   UNL     1      49.755   4.055  17.542  0.00  0.00    +0.000 C 
ENDBRANCH   1  16
BRANCH   9  19
ATOM     19  C   UNL     1      49.510   6.642  15.664  0.00  0.00    +0.000 C 
BRANCH  19  20
ATOM     20  C   UNL     1      49.235   7.783  16.619  0.00  0.00    +0.000 A 
ATOM     21  C   UNL     1      48.269   8.747  16.273  0.00  0.00    +0.000 A 
ATOM     22  C   UNL     1      47.902   9.755  17.167  0.00  0.00    +0.000 A 
ATOM     23  C   UNL     1      48.481   9.807  18.431  0.00  0.00    +0.000 A 
ATOM     24  C   UNL     1      49.454   8.868  18.788  0.00  0.00    +0.000 A 
ATOM     25  C   UNL     1      49.828   7.866  17.888  0.00  0.00    +0.000 A 
BRANCH  24  26
ATOM     26  C   UNL     1      50.055   8.920  20.084  0.00  0.00    +0.000 C 
ATOM     27  N   UNL     1      50.540   8.966  21.139  0.00  0.00    +0.000 NA
ENDBRANCH  24  26
ENDBRANCH  19  20
ENDBRANCH   9  19
TORSDOF 5
ENDMDL
MODEL 7
REMARK VINA RESULT:    -5.628      3.293      7.550
REMARK INTER + INTRA:          -7.877
REMARK INTER:                  -7.249
REMARK INTRA:                  -0.628
REMARK UNBOUND:                -0.603
REMARK  Name = 
REMARK  8 active torsions:
REMARK  status: ('A' for Active; 'I' for Inactive)
REMARK    1  A    between atoms: C_1  and  C_2
REMARK    2  A    between atoms: C_2  and  C_3
REMARK    3  A    between atoms: C_2  and  C_4
REMARK    4  A    between atoms: C_2  and  C_5
REMARK    5  A    between atoms: C_9  and  C_10
REMARK    6  A    between atoms: N_16  and  C_17
REMARK    7  A    between atoms: C_17  and  C_18
REMARK    8  A    between atoms: C_22  and  C_23
REMARK                            x       y       z     vdW  Elec       q    Type
REMARK                         _______ _______ _______ _____ _____    ______ ____
ROOT
ATOM      1  C   UNL     1      47.917   4.455  16.239  0.00  0.00    +0.000 A 
ATOM      2  N   UNL     1      47.175   3.913  15.280  0.00  0.00    +0.000 NA
ATOM      3  C   UNL     1      47.028   4.859  14.304  0.00  0.00    +0.000 A 
ATOM      4  C   UNL     1      46.334   4.828  13.090  0.00  0.00    +0.000 A 
ATOM      5  C   UNL     1      46.368   5.988  12.302  0.00  0.00    +0.000 A 
ATOM      6  C   UNL     1      47.098   7.086  12.767  0.00  0.00    +0.000 A 
ATOM      7  N   UNL     1      47.790   7.155  13.939  0.00  0.00    +0.000 NA
ATOM      8  C   UNL     1      47.702   6.014  14.651  0.00  0.00    +0.000 A 
ATOM      9  N   UNL     1      48.239   5.765  15.897  0.00  0.00    +0.000 N 
ENDROOT
BRANCH   5  10
ATOM     10  C   UNL     1      45.663   6.128  11.003  0.00  0.00    +0.000 C 
ATOM     11  N   UNL     1      44.552   6.922  10.937  0.00  0.00    +0.000 N 
ATOM     12  O   UNL     1      46.064   5.551  10.000  0.00  0.00    +0.000 OA
ATOM     13  H   UNL     1      44.160   7.449  11.701  0.00  0.00    +0.000 HD
ATOM     14  H   UNL     1      44.111   7.011  10.030  0.00  0.00    +0.000 HD
ENDBRANCH   5  10
BRANCH   1  16
ATOM     15  C   UNL     1      47.270   2.610  17.810  0.00  0.00    +0.000 C 
ATOM     16  C   UNL     1      48.332   3.695  17.500  0.00  0.00    +0.000 C 
ATOM     17  C   UNL     1      48.392   4.606  18.734  0.00  0.00    +0.000 C 
ATOM     18  C   UNL     1      49.669   2.960  17.303  0.00  0.00    +0.000 C 
ENDBRANCH   1  16
BRANCH   9  19
ATOM     19  C   UNL     1      49.057   6.742  16.599  0.00  0.00    +0.000 C 
BRANCH  19  20
ATOM     20  C   UNL     1      50.536   6.684  16.285  0.00  0.00    +0.000 A 
ATOM     21  C   UNL     1      51.067   7.564  15.322  0.00  0.00    +0.000 A 
ATOM     22  C   UNL     1      52.441   7.624  15.078  0.00  0.00    +0.000 A 
ATOM     23  C   UNL     1      53.311   6.818  15.804  0.00  0.00    +0.000 A 
ATOM     24  C   UNL     1      52.803   5.926  16.754  0.00  0.00    +0.000 A 
ATOM     25  C   UNL     1      51.427   5.860  16.990  0.00  0.00    +0.000 A 
BRANCH  24  26
ATOM     26  C   UNL     1      53.693   5.094  17.500  0.00  0.00    +0.000 C 
ATOM     27  N   UNL     1      54.414   4.417  18.111  0.00  0.00    +0.000 NA
ENDBRANCH  24  26
ENDBRANCH  19  20
ENDBRANCH   9  19
TORSDOF 5
ENDMDL
MODEL 8
REMARK VINA RESULT:    -5.506      2.161      4.394
REMARK INTER + INTRA:          -7.719
REMARK INTER:                  -7.270
REMARK INTRA:                  -0.449
REMARK UNBOUND:                -0.603
REMARK  Name = 
REMARK  8 active torsions:
REMARK  status: ('A' for Active; 'I' for Inactive)
REMARK    1  A    between atoms: C_1  and  C_2
REMARK    2  A    between atoms: C_2  and  C_3
REMARK    3  A    between atoms: C_2  and  C_4
REMARK    4  A    between atoms: C_2  and  C_5
REMARK    5  A    between atoms: C_9  and  C_10
REMARK    6  A    between atoms: N_16  and  C_17
REMARK    7  A    between atoms: C_17  and  C_18
REMARK    8  A    between atoms: C_22  and  C_23
REMARK                            x       y       z     vdW  Elec       q    Type
REMARK                         _______ _______ _______ _____ _____    ______ ____
ROOT
ATOM      1  C   UNL     1      49.439   8.158  14.362  0.00  0.00    +0.000 A 
ATOM      2  N   UNL     1      49.480   7.775  15.634  0.00  0.00    +0.000 NA
ATOM      3  C   UNL     1      48.792   6.597  15.719  0.00  0.00    +0.000 A 
ATOM      4  C   UNL     1      48.512   5.773  16.814  0.00  0.00    +0.000 A 
ATOM      5  C   UNL     1      47.758   4.615  16.570  0.00  0.00    +0.000 A 
ATOM      6  C   UNL     1      47.352   4.351  15.258  0.00  0.00    +0.000 A 
ATOM      7  N   UNL     1      47.609   5.123  14.165  0.00  0.00    +0.000 NA
ATOM      8  C   UNL     1      48.322   6.225  14.474  0.00  0.00    +0.000 A 
ATOM      9  N   UNL     1      48.707   7.237  13.620  0.00  0.00    +0.000 N 
ENDROOT
BRANCH   5  10
ATOM     10  C   UNL     1      47.352   3.653  17.624  0.00  0.00    +0.000 C 
ATOM     11  N   UNL     1      47.982   3.696  18.837  0.00  0.00    +0.000 N 
ATOM     12  O   UNL     1      46.464   2.833  17.424  0.00  0.00    +0.000 OA
ATOM     13  H   UNL     1      48.707   4.345  19.099  0.00  0.00    +0.000 HD
ATOM     14  H   UNL     1      47.663   3.039  19.538  0.00  0.00    +0.000 HD
ENDBRANCH   5  10
BRANCH   1  16
ATOM     15  C   UNL     1      51.023   9.067  12.642  0.00  0.00    +0.000 C 
ATOM     16  C   UNL     1      50.127   9.426  13.854  0.00  0.00    +0.000 C 
ATOM     17  C   UNL     1      51.054  10.047  14.908  0.00  0.00    +0.000 C 
ATOM     18  C   UNL     1      49.104  10.463  13.354  0.00  0.00    +0.000 C 
ENDBRANCH   1  16
BRANCH   9  19
ATOM     19  C   UNL     1      48.421   7.199  12.194  0.00  0.00    +0.000 C 
BRANCH  19  20
ATOM     20  C   UNL     1      46.970   7.418  11.825  0.00  0.00    +0.000 A 
ATOM     21  C   UNL     1      46.186   6.312  11.443  0.00  0.00    +0.000 A 
ATOM     22  C   UNL     1      44.818   6.446  11.200  0.00  0.00    +0.000 A 
ATOM     23  C   UNL     1      44.203   7.685  11.352  0.00  0.00    +0.000 A 
ATOM     24  C   UNL     1      44.967   8.799  11.716  0.00  0.00    +0.000 A 
ATOM     25  C   UNL     1      46.339   8.665  11.948  0.00  0.00    +0.000 A 
BRANCH  24  26
ATOM     26  C   UNL     1      44.340  10.074  11.870  0.00  0.00    +0.000 C 
ATOM     27  N   UNL     1      43.828  11.110  11.990  0.00  0.00    +0.000 NA
ENDBRANCH  24  26
ENDBRANCH  19  20
ENDBRANCH   9  19
TORSDOF 5
ENDMDL
MODEL 9
REMARK VINA RESULT:    -5.307      3.224      7.002
REMARK INTER + INTRA:          -7.462
REMARK INTER:                  -6.865
REMARK INTRA:                  -0.597
REMARK UNBOUND:                -0.603
REMARK  Name = 
REMARK  8 active torsions:
REMARK  status: ('A' for Active; 'I' for Inactive)
REMARK    1  A    between atoms: C_1  and  C_2
REMARK    2  A    between atoms: C_2  and  C_3
REMARK    3  A    between atoms: C_2  and  C_4
REMARK    4  A    between atoms: C_2  and  C_5
REMARK    5  A    between atoms: C_9  and  C_10
REMARK    6  A    between atoms: N_16  and  C_17
REMARK    7  A    between atoms: C_17  and  C_18
REMARK    8  A    between atoms: C_22  and  C_23
REMARK                            x       y       z     vdW  Elec       q    Type
REMARK                         _______ _______ _______ _____ _____    ______ ____
ROOT
ATOM      1  C   UNL     1      47.976   4.491  16.238  0.00  0.00    +0.000 A 
ATOM      2  N   UNL     1      47.287   3.932  15.249  0.00  0.00    +0.000 NA
ATOM      3  C   UNL     1      47.101   4.895  14.298  0.00  0.00    +0.000 A 
ATOM      4  C   UNL     1      46.433   4.857  13.069  0.00  0.00    +0.000 A 
ATOM      5  C   UNL     1      46.410   6.039  12.314  0.00  0.00    +0.000 A 
ATOM      6  C   UNL     1      47.061   7.166  12.824  0.00  0.00    +0.000 A 
ATOM      7  N   UNL     1      47.726   7.243  14.011  0.00  0.00    +0.000 NA
ATOM      8  C   UNL     1      47.695   6.079  14.690  0.00  0.00    +0.000 A 
ATOM      9  N   UNL     1      48.223   5.827  15.939  0.00  0.00    +0.000 N 
ENDROOT
BRANCH   5  10
ATOM     10  C   UNL     1      45.722   6.173  11.005  0.00  0.00    +0.000 C 
ATOM     11  N   UNL     1      44.583   6.925  10.932  0.00  0.00    +0.000 N 
ATOM     12  O   UNL     1      46.163   5.628  10.001  0.00  0.00    +0.000 OA
ATOM     13  H   UNL     1      44.158   7.425  11.697  0.00  0.00    +0.000 HD
ATOM     14  H   UNL     1      44.154   7.012  10.019  0.00  0.00    +0.000 HD
ENDBRANCH   5  10
BRANCH   1  16
ATOM     15  C   UNL     1      47.389   2.594  17.771  0.00  0.00    +0.000 C 
ATOM     16  C   UNL     1      48.413   3.722  17.486  0.00  0.00    +0.000 C 
ATOM     17  C   UNL     1      48.438   4.610  18.738  0.00  0.00    +0.000 C 
ATOM     18  C   UNL     1      49.776   3.037  17.280  0.00  0.00    +0.000 C 
ENDBRANCH   1  16
BRANCH   9  19
ATOM     19  C   UNL     1      48.965   6.832  16.685  0.00  0.00    +0.000 C 
BRANCH  19  20
ATOM     20  C   UNL     1      50.440   6.915  16.356  0.00  0.00    +0.000 A 
ATOM     21  C   UNL     1      51.344   6.090  17.052  0.00  0.00    +0.000 A 
ATOM     22  C   UNL     1      52.697   6.051  16.710  0.00  0.00    +0.000 A 
ATOM     23  C   UNL     1      53.169   6.823  15.653  0.00  0.00    +0.000 A 
ATOM     24  C   UNL     1      52.290   7.661  14.959  0.00  0.00    +0.000 A 
ATOM     25  C   UNL     1      50.938   7.707  15.310  0.00  0.00    +0.000 A 
BRANCH  24  26
ATOM     26  C   UNL     1      52.771   8.460  13.876  0.00  0.00    +0.000 C 
ATOM     27  N   UNL     1      53.166   9.108  12.996  0.00  0.00    +0.000 NA
ENDBRANCH  24  26
ENDBRANCH  19  20
ENDBRANCH   9  19
TORSDOF 5
ENDMDL
