MODEL 1
REMARK VINA RESULT:    -8.787      0.000      0.000
REMARK INTER + INTRA:         -12.533
REMARK INTER:                 -11.869
REMARK INTRA:                  -0.664
REMARK UNBOUND:                -0.664
REMARK  Name = 
REMARK  7 active torsions:
REMARK  status: ('A' for Active; 'I' for Inactive)
REMARK    1  A    between atoms: C_1  and  C_2
REMARK    2  A    between atoms: C_6  and  C_7
REMARK    3  A    between atoms: N_9  and  C_10
REMARK    4  A    between atoms: C_10  and  C_11
REMARK    5  A    between atoms: C_14  and  C_15
REMARK    6  A    between atoms: C_15  and  N_16
REMARK    7  A    between atoms: C_17  and  C_19
REMARK                            x       y       z     vdW  Elec       q    Type
REMARK                         _______ _______ _______ _____ _____    ______ ____
ROOT
ATOM      1  C   UNL     1      44.593   5.805  11.449  0.00  0.00    +0.000 A 
ATOM      2  C   UNL     1      45.600   5.204  12.220  0.00  0.00    +0.000 A 
ATOM      3  C   UNL     1      46.518   5.979  12.952  0.00  0.00    +0.000 A 
ATOM      4  C   UNL     1      46.454   7.380  12.941  0.00  0.00    +0.000 A 
ATOM      5  C   UNL     1      45.441   7.980  12.179  0.00  0.00    +0.000 A 
ATOM      6  C   UNL     1      44.522   7.206  11.451  0.00  0.00    +0.000 A 
ENDROOT
BRANCH   1   7
ATOM      7  C   UNL     1      43.612   4.979  10.637  0.00  0.00    +0.000 C 
BRANCH   7  10
ATOM      8  C   UNL     1      45.255   4.257   8.910  0.00  0.00    +0.000 C 
ATOM      9  O   UNL     1      45.616   5.403   8.677  0.00  0.00    +0.000 OA
ATOM     10  N   UNL     1      44.274   3.956   9.854  0.00  0.00    +0.000 N 
ATOM     11  H   UNL     1      44.165   2.999  10.145  0.00  0.00    +0.000 HD
BRANCH   8  17
ATOM     12  C   UNL     1      47.886   2.514   5.015  0.00  0.00    +0.000 C 
ATOM     13  C   UNL     1      47.145   2.244   6.292  0.00  0.00    +0.000 A 
ATOM     14  C   UNL     1      47.024   0.940   6.784  0.00  0.00    +0.000 A 
ATOM     15  C   UNL     1      46.334   0.702   7.972  0.00  0.00    +0.000 A 
ATOM     16  C   UNL     1      45.760   1.764   8.682  0.00  0.00    +0.000 A 
ATOM     17  C   UNL     1      45.872   3.081   8.205  0.00  0.00    +0.000 A 
ATOM     18  C   UNL     1      46.563   3.308   7.006  0.00  0.00    +0.000 A 
ENDBRANCH   8  17
ENDBRANCH   7  10
ENDBRANCH   1   7
BRANCH   4  19
ATOM     19  C   UNL     1      47.445   8.229  13.714  0.00  0.00    +0.000 C 
BRANCH  19  20
ATOM     20  N   UNL     1      47.873   7.599  14.940  0.00  0.00    +0.000 N 
ATOM     21  C   UNL     1      49.121   7.040  15.092  0.00  0.00    +0.000 C 
ATOM     22  O   UNL     1      49.964   7.044  14.203  0.00  0.00    +0.000 OA
ATOM     23  H   UNL     1      47.134   7.256  15.542  0.00  0.00    +0.000 HD
BRANCH  21  24
ATOM     24  C   UNL     1      49.400   6.489  16.429  0.00  0.00    +0.000 A 
ATOM     25  C   UNL     1      50.301   7.124  17.275  0.00  0.00    +0.000 A 
ATOM     26  S   UNL     1      50.478   6.352  18.786  0.00  0.00    +0.000 S 
ATOM     27  C   UNL     1      49.390   5.118  18.347  0.00  0.00    +0.000 A 
ATOM     28  N   UNL     1      49.110   4.090  19.196  0.00  0.00    +0.000 NA
ATOM     29  C   UNL     1      48.286   3.217  18.724  0.00  0.00    +0.000 A 
ATOM     30  N   UNL     1      47.706   3.280  17.484  0.00  0.00    +0.000 N 
ATOM     31  C   UNL     1      47.917   4.324  16.618  0.00  0.00    +0.000 A 
ATOM     32  O   UNL     1      47.311   4.398  15.555  0.00  0.00    +0.000 OA
ATOM     33  C   UNL     1      48.874   5.313  17.082  0.00  0.00    +0.000 A 
ATOM     34  H   UNL     1      47.044   2.579  17.182  0.00  0.00    +0.000 HD
ENDBRANCH  21  24
ENDBRANCH  19  20
ENDBRANCH   4  19
TORSDOF 6
ENDMDL
MODEL 2
REMARK VINA RESULT:    -8.533      0.941      1.441
REMARK INTER + INTRA:         -12.189
REMARK INTER:                 -11.154
REMARK INTRA:                  -1.035
REMARK UNBOUND:                -0.664
REMARK  Name = 
REMARK  7 active torsions:
REMARK  status: ('A' for Active; 'I' for Inactive)
REMARK    1  A    between atoms: C_1  and  C_2
REMARK    2  A    between atoms: C_6  and  C_7
REMARK    3  A    between atoms: N_9  and  C_10
REMARK    4  A    between atoms: C_10  and  C_11
REMARK    5  A    between atoms: C_14  and  C_15
REMARK    6  A    between atoms: C_15  and  N_16
REMARK    7  A    between atoms: C_17  and  C_19
REMARK                            x       y       z     vdW  Elec       q    Type
REMARK                         _______ _______ _______ _____ _____    ______ ____
ROOT
ATOM      1  C   UNL     1      45.088   6.655  11.454  0.00  0.00    +0.000 A 
ATOM      2  C   UNL     1      46.236   6.050  11.988  0.00  0.00    +0.000 A 
ATOM      3  C   UNL     1      47.086   6.749  12.865  0.00  0.00    +0.000 A 
ATOM      4  C   UNL     1      46.813   8.072  13.239  0.00  0.00    +0.000 A 
ATOM      5  C   UNL     1      45.660   8.673  12.713  0.00  0.00    +0.000 A 
ATOM      6  C   UNL     1      44.808   7.974  11.841  0.00  0.00    +0.000 A 
ENDROOT
BRANCH   1   7
ATOM      7  C   UNL     1      44.175   5.919  10.489  0.00  0.00    +0.000 C 
BRANCH   7  10
ATOM      8  C   UNL     1      44.762   3.743   9.431  0.00  0.00    +0.000 C 
ATOM      9  O   UNL     1      43.994   3.111  10.146  0.00  0.00    +0.000 OA
ATOM     10  N   UNL     1      44.917   5.124   9.532  0.00  0.00    +0.000 N 
ATOM     11  H   UNL     1      45.400   5.609   8.794  0.00  0.00    +0.000 HD
BRANCH   8  17
ATOM     12  C   UNL     1      46.764  -0.484   7.626  0.00  0.00    +0.000 C 
ATOM     13  C   UNL     1      46.559   0.998   7.503  0.00  0.00    +0.000 A 
ATOM     14  C   UNL     1      47.126   1.711   6.442  0.00  0.00    +0.000 A 
ATOM     15  C   UNL     1      46.926   3.087   6.338  0.00  0.00    +0.000 A 
ATOM     16  C   UNL     1      46.156   3.765   7.291  0.00  0.00    +0.000 A 
ATOM     17  C   UNL     1      45.576   3.066   8.364  0.00  0.00    +0.000 A 
ATOM     18  C   UNL     1      45.788   1.683   8.461  0.00  0.00    +0.000 A 
ENDBRANCH   8  17
ENDBRANCH   7  10
ENDBRANCH   1   7
BRANCH   4  19
ATOM     19  C   UNL     1      47.729   8.841  14.172  0.00  0.00    +0.000 C 
BRANCH  19  20
ATOM     20  N   UNL     1      48.082   8.084  15.347  0.00  0.00    +0.000 N 
ATOM     21  C   UNL     1      49.320   7.509  15.518  0.00  0.00    +0.000 C 
ATOM     22  O   UNL     1      50.217   7.605  14.689  0.00  0.00    +0.000 OA
ATOM     23  H   UNL     1      47.308   7.681  15.863  0.00  0.00    +0.000 HD
BRANCH  21  24
ATOM     24  C   UNL     1      49.517   6.819  16.803  0.00  0.00    +0.000 A 
ATOM     25  C   UNL     1      50.298   7.396  17.797  0.00  0.00    +0.000 A 
ATOM     26  S   UNL     1      50.392   6.459  19.220  0.00  0.00    +0.000 S 
ATOM     27  C   UNL     1      49.429   5.229  18.543  0.00  0.00    +0.000 A 
ATOM     28  N   UNL     1      49.145   4.094  19.239  0.00  0.00    +0.000 NA
ATOM     29  C   UNL     1      48.424   3.239  18.595  0.00  0.00    +0.000 A 
ATOM     30  N   UNL     1      47.951   3.418  17.322  0.00  0.00    +0.000 N 
ATOM     31  C   UNL     1      48.168   4.569  16.604  0.00  0.00    +0.000 A 
ATOM     32  O   UNL     1      47.652   4.736  15.504  0.00  0.00    +0.000 OA
ATOM     33  C   UNL     1      49.014   5.545  17.266  0.00  0.00    +0.000 A 
ATOM     34  H   UNL     1      47.364   2.724  16.881  0.00  0.00    +0.000 HD
ENDBRANCH  21  24
ENDBRANCH  19  20
ENDBRANCH   4  19
TORSDOF 6
ENDMDL
MODEL 3
REMARK VINA RESULT:    -7.821      2.001      3.819
REMARK INTER + INTRA:         -11.229
REMARK INTER:                 -10.083
REMARK INTRA:                  -1.146
REMARK UNBOUND:                -0.664
REMARK  Name = 
REMARK  7 active torsions:
REMARK  status: ('A' for Active; 'I' for Inactive)
REMARK    1  A    between atoms: C_1  and  C_2
REMARK    2  A    between atoms: C_6  and  C_7
REMARK    3  A    between atoms: N_9  and  C_10
REMARK    4  A    between atoms: C_10  and  C_11
REMARK    5  A    between atoms: C_14  and  C_15
REMARK    6  A    between atoms: C_15  and  N_16
REMARK    7  A    between atoms: C_17  and  C_19
REMARK                            x       y       z     vdW  Elec       q    Type
REMARK                         _______ _______ _______ _____ _____    ______ ____
ROOT
ATOM      1  C   UNL     1      44.855   4.818  11.673  0.00  0.00    +0.000 A 
ATOM      2  C   UNL     1      45.208   3.658  12.380  0.00  0.00    +0.000 A 
ATOM      3  C   UNL     1      46.011   3.725  13.533  0.00  0.00    +0.000 A 
ATOM      4  C   UNL     1      46.482   4.953  14.019  0.00  0.00    +0.000 A 
ATOM      5  C   UNL     1      46.120   6.112  13.319  0.00  0.00    +0.000 A 
ATOM      6  C   UNL     1      45.314   6.047  12.169  0.00  0.00    +0.000 A 
ENDROOT
BRANCH   1   7
ATOM      7  C   UNL     1      44.008   4.757  10.414  0.00  0.00    +0.000 C 
BRANCH   7  10
ATOM      8  C   UNL     1      45.670   4.343   8.607  0.00  0.00    +0.000 C 
ATOM      9  O   UNL     1      46.172   5.454   8.721  0.00  0.00    +0.000 OA
ATOM     10  N   UNL     1      44.602   3.917   9.395  0.00  0.00    +0.000 N 
ATOM     11  H   UNL     1      44.369   2.938   9.399  0.00  0.00    +0.000 HD
BRANCH   8  17
ATOM     12  C   UNL     1      46.808  -0.424   7.552  0.00  0.00    +0.000 C 
ATOM     13  C   UNL     1      46.761   1.013   7.123  0.00  0.00    +0.000 A 
ATOM     14  C   UNL     1      47.213   1.394   5.855  0.00  0.00    +0.000 A 
ATOM     15  C   UNL     1      47.163   2.732   5.467  0.00  0.00    +0.000 A 
ATOM     16  C   UNL     1      46.658   3.704   6.341  0.00  0.00    +0.000 A 
ATOM     17  C   UNL     1      46.198   3.341   7.617  0.00  0.00    +0.000 A 
ATOM     18  C   UNL     1      46.258   1.993   7.999  0.00  0.00    +0.000 A 
ENDBRANCH   8  17
ENDBRANCH   7  10
ENDBRANCH   1   7
BRANCH   4  19
ATOM     19  C   UNL     1      47.360   5.038  15.253  0.00  0.00    +0.000 C 
BRANCH  19  20
ATOM     20  N   UNL     1      48.019   6.315  15.375  0.00  0.00    +0.000 N 
ATOM     21  C   UNL     1      49.208   6.478  16.047  0.00  0.00    +0.000 C 
ATOM     22  O   UNL     1      49.801   5.549  16.583  0.00  0.00    +0.000 OA
ATOM     23  H   UNL     1      47.424   7.130  15.280  0.00  0.00    +0.000 HD
BRANCH  21  24
ATOM     24  C   UNL     1      49.758   7.843  16.023  0.00  0.00    +0.000 A 
ATOM     25  C   UNL     1      50.104   8.481  17.207  0.00  0.00    +0.000 A 
ATOM     26  S   UNL     1      50.743  10.047  16.978  0.00  0.00    +0.000 S 
ATOM     27  C   UNL     1      50.539   9.944  15.290  0.00  0.00    +0.000 A 
ATOM     28  N   UNL     1      50.865  10.987  14.477  0.00  0.00    +0.000 NA
ATOM     29  C   UNL     1      50.639  10.778  13.224  0.00  0.00    +0.000 A 
ATOM     30  N   UNL     1      50.124   9.618  12.706  0.00  0.00    +0.000 N 
ATOM     31  C   UNL     1      49.832   8.524  13.482  0.00  0.00    +0.000 A 
ATOM     32  O   UNL     1      49.462   7.470  12.977  0.00  0.00    +0.000 OA
ATOM     33  C   UNL     1      50.025   8.722  14.908  0.00  0.00    +0.000 A 
ATOM     34  H   UNL     1      49.997   9.504  11.711  0.00  0.00    +0.000 HD
ENDBRANCH  21  24
ENDBRANCH  19  20
ENDBRANCH   4  19
TORSDOF 6
ENDMDL
MODEL 4
REMARK VINA RESULT:    -7.787      5.177      9.867
REMARK INTER + INTRA:         -11.182
REMARK INTER:                 -10.298
REMARK INTRA:                  -0.884
REMARK UNBOUND:                -0.664
REMARK  Name = 
REMARK  7 active torsions:
REMARK  status: ('A' for Active; 'I' for Inactive)
REMARK    1  A    between atoms: C_1  and  C_2
REMARK    2  A    between atoms: C_6  and  C_7
REMARK    3  A    between atoms: N_9  and  C_10
REMARK    4  A    between atoms: C_10  and  C_11
REMARK    5  A    between atoms: C_14  and  C_15
REMARK    6  A    between atoms: C_15  and  N_16
REMARK    7  A    between atoms: C_17  and  C_19
REMARK                            x       y       z     vdW  Elec       q    Type
REMARK                         _______ _______ _______ _____ _____    ______ ____
ROOT
ATOM      1  C   UNL     1      51.420   3.191  17.651  0.00  0.00    +0.000 A 
ATOM      2  C   UNL     1      50.763   4.420  17.820  0.00  0.00    +0.000 A 
ATOM      3  C   UNL     1      49.382   4.545  17.588  0.00  0.00    +0.000 A 
ATOM      4  C   UNL     1      48.611   3.446  17.185  0.00  0.00    +0.000 A 
ATOM      5  C   UNL     1      49.265   2.215  17.027  0.00  0.00    +0.000 A 
ATOM      6  C   UNL     1      50.645   2.088  17.263  0.00  0.00    +0.000 A 
ENDROOT
BRANCH   1   7
ATOM      7  C   UNL     1      52.915   3.049  17.876  0.00  0.00    +0.000 C 
BRANCH   7  10
ATOM      8  C   UNL     1      54.057   0.888  18.348  0.00  0.00    +0.000 C 
ATOM      9  O   UNL     1      54.255   1.172  19.522  0.00  0.00    +0.000 OA
ATOM     10  N   UNL     1      53.409   1.751  17.466  0.00  0.00    +0.000 N 
ATOM     11  H   UNL     1      53.097   1.389  16.580  0.00  0.00    +0.000 HD
BRANCH   8  17
ATOM     12  C   UNL     1      54.959  -3.986  19.096  0.00  0.00    +0.000 C 
ATOM     13  C   UNL     1      54.929  -2.812  18.162  0.00  0.00    +0.000 A 
ATOM     14  C   UNL     1      55.302  -2.956  16.822  0.00  0.00    +0.000 A 
ATOM     15  C   UNL     1      55.269  -1.857  15.964  0.00  0.00    +0.000 A 
ATOM     16  C   UNL     1      54.860  -0.603  16.436  0.00  0.00    +0.000 A 
ATOM     17  C   UNL     1      54.480  -0.438  17.778  0.00  0.00    +0.000 A 
ATOM     18  C   UNL     1      54.523  -1.549  18.633  0.00  0.00    +0.000 A 
ENDBRANCH   8  17
ENDBRANCH   7  10
ENDBRANCH   1   7
BRANCH   4  19
ATOM     19  C   UNL     1      47.123   3.569  16.919  0.00  0.00    +0.000 C 
BRANCH  19  20
ATOM     20  N   UNL     1      46.826   4.527  15.882  0.00  0.00    +0.000 N 
ATOM     21  C   UNL     1      46.920   4.227  14.543  0.00  0.00    +0.000 C 
ATOM     22  O   UNL     1      47.253   3.122  14.131  0.00  0.00    +0.000 OA
ATOM     23  H   UNL     1      46.904   5.503  16.146  0.00  0.00    +0.000 HD
BRANCH  21  24
ATOM     24  C   UNL     1      46.527   5.313  13.630  0.00  0.00    +0.000 A 
ATOM     25  C   UNL     1      47.399   6.364  13.373  0.00  0.00    +0.000 A 
ATOM     26  S   UNL     1      46.778   7.514  12.276  0.00  0.00    +0.000 S 
ATOM     27  C   UNL     1      45.305   6.671  12.138  0.00  0.00    +0.000 A 
ATOM     28  N   UNL     1      44.292   7.145  11.361  0.00  0.00    +0.000 NA
ATOM     29  C   UNL     1      43.227   6.416  11.368  0.00  0.00    +0.000 A 
ATOM     30  N   UNL     1      43.084   5.250  12.073  0.00  0.00    +0.000 N 
ATOM     31  C   UNL     1      44.096   4.709  12.827  0.00  0.00    +0.000 A 
ATOM     32  O   UNL     1      43.967   3.617  13.370  0.00  0.00    +0.000 OA
ATOM     33  C   UNL     1      45.302   5.514  12.890  0.00  0.00    +0.000 A 
ATOM     34  H   UNL     1      42.234   4.707  12.014  0.00  0.00    +0.000 HD
ENDBRANCH  21  24
ENDBRANCH  19  20
ENDBRANCH   4  19
TORSDOF 6
ENDMDL
MODEL 5
REMARK VINA RESULT:    -7.711      1.691      2.324
REMARK INTER + INTRA:         -11.080
REMARK INTER:                 -10.070
REMARK INTRA:                  -1.010
REMARK UNBOUND:                -0.664
REMARK  Name = 
REMARK  7 active torsions:
REMARK  status: ('A' for Active; 'I' for Inactive)
REMARK    1  A    between atoms: C_1  and  C_2
REMARK    2  A    between atoms: C_6  and  C_7
REMARK    3  A    between atoms: N_9  and  C_10
REMARK    4  A    between atoms: C_10  and  C_11
REMARK    5  A    between atoms: C_14  and  C_15
REMARK    6  A    between atoms: C_15  and  N_16
REMARK    7  A    between atoms: C_17  and  C_19
REMARK                            x       y       z     vdW  Elec       q    Type
REMARK                         _______ _______ _______ _____ _____    ______ ____
ROOT
ATOM      1  C   UNL     1      45.521   5.228  12.469  0.00  0.00    +0.000 A 
ATOM      2  C   UNL     1      45.303   6.594  12.227  0.00  0.00    +0.000 A 
ATOM      3  C   UNL     1      46.120   7.577  12.814  0.00  0.00    +0.000 A 
ATOM      4  C   UNL     1      47.184   7.227  13.657  0.00  0.00    +0.000 A 
ATOM      5  C   UNL     1      47.409   5.863  13.890  0.00  0.00    +0.000 A 
ATOM      6  C   UNL     1      46.596   4.879  13.300  0.00  0.00    +0.000 A 
ENDROOT
BRANCH   1   7
ATOM      7  C   UNL     1      44.632   4.159  11.859  0.00  0.00    +0.000 C 
BRANCH   7  10
ATOM      8  C   UNL     1      44.873   3.827   9.403  0.00  0.00    +0.000 C 
ATOM      9  O   UNL     1      44.000   4.643   9.139  0.00  0.00    +0.000 OA
ATOM     10  N   UNL     1      45.247   3.524  10.712  0.00  0.00    +0.000 N 
ATOM     11  H   UNL     1      46.097   3.007  10.861  0.00  0.00    +0.000 HD
BRANCH   8  17
ATOM     12  C   UNL     1      46.774  -0.470   7.654  0.00  0.00    +0.000 C 
ATOM     13  C   UNL     1      46.564   1.007   7.487  0.00  0.00    +0.000 A 
ATOM     14  C   UNL     1      47.075   1.679   6.372  0.00  0.00    +0.000 A 
ATOM     15  C   UNL     1      46.872   3.051   6.228  0.00  0.00    +0.000 A 
ATOM     16  C   UNL     1      46.153   3.765   7.195  0.00  0.00    +0.000 A 
ATOM     17  C   UNL     1      45.630   3.109   8.321  0.00  0.00    +0.000 A 
ATOM     18  C   UNL     1      45.845   1.729   8.459  0.00  0.00    +0.000 A 
ENDBRANCH   8  17
ENDBRANCH   7  10
ENDBRANCH   1   7
BRANCH   4  19
ATOM     19  C   UNL     1      48.064   8.277  14.307  0.00  0.00    +0.000 C 
BRANCH  19  20
ATOM     20  N   UNL     1      49.221   7.706  14.952  0.00  0.00    +0.000 N 
ATOM     21  C   UNL     1      49.376   7.684  16.319  0.00  0.00    +0.000 C 
ATOM     22  O   UNL     1      48.540   8.140  17.090  0.00  0.00    +0.000 OA
ATOM     23  H   UNL     1      50.062   7.656  14.389  0.00  0.00    +0.000 HD
BRANCH  21  24
ATOM     24  C   UNL     1      50.595   7.013  16.799  0.00  0.00    +0.000 A 
ATOM     25  C   UNL     1      51.769   7.734  16.978  0.00  0.00    +0.000 A 
ATOM     26  S   UNL     1      53.067   6.792  17.560  0.00  0.00    +0.000 S 
ATOM     27  C   UNL     1      52.119   5.378  17.552  0.00  0.00    +0.000 A 
ATOM     28  N   UNL     1      52.644   4.175  17.914  0.00  0.00    +0.000 NA
ATOM     29  C   UNL     1      51.818   3.187  17.840  0.00  0.00    +0.000 A 
ATOM     30  N   UNL     1      50.510   3.290  17.446  0.00  0.00    +0.000 N 
ATOM     31  C   UNL     1      49.924   4.490  17.123  0.00  0.00    +0.000 A 
ATOM     32  O   UNL     1      48.728   4.561  16.865  0.00  0.00    +0.000 OA
ATOM     33  C   UNL     1      50.824   5.629  17.145  0.00  0.00    +0.000 A 
ATOM     34  H   UNL     1      49.903   2.483  17.437  0.00  0.00    +0.000 HD
ENDBRANCH  21  24
ENDBRANCH  19  20
ENDBRANCH   4  19
TORSDOF 6
ENDMDL
MODEL 6
REMARK VINA RESULT:    -7.534      2.321      3.480
REMARK INTER + INTRA:         -10.841
REMARK INTER:                  -9.951
REMARK INTRA:                  -0.889
REMARK UNBOUND:                -0.664
REMARK  Name = 
REMARK  7 active torsions:
REMARK  status: ('A' for Active; 'I' for Inactive)
REMARK    1  A    between atoms: C_1  and  C_2
REMARK    2  A    between atoms: C_6  and  C_7
REMARK    3  A    between atoms: N_9  and  C_10
REMARK    4  A    between atoms: C_10  and  C_11
REMARK    5  A    between atoms: C_14  and  C_15
REMARK    6  A    between atoms: C_15  and  N_16
REMARK    7  A    between atoms: C_17  and  C_19
REMARK                            x       y       z     vdW  Elec       q    Type
REMARK                         _______ _______ _______ _____ _____    ______ ____
ROOT
ATOM      1  C   UNL     1      44.892   4.812  11.727  0.00  0.00    +0.000 A 
ATOM      2  C   UNL     1      45.200   3.635  12.426  0.00  0.00    +0.000 A 
ATOM      3  C   UNL     1      46.002   3.663  13.582  0.00  0.00    +0.000 A 
ATOM      4  C   UNL     1      46.516   4.868  14.079  0.00  0.00    +0.000 A 
ATOM      5  C   UNL     1      46.199   6.046  13.387  0.00  0.00    +0.000 A 
ATOM      6  C   UNL     1      45.395   6.020  12.234  0.00  0.00    +0.000 A 
ENDROOT
BRANCH   1   7
ATOM      7  C   UNL     1      44.048   4.792  10.466  0.00  0.00    +0.000 C 
BRANCH   7  10
ATOM      8  C   UNL     1      45.684   4.399   8.630  0.00  0.00    +0.000 C 
ATOM      9  O   UNL     1      46.184   5.511   8.746  0.00  0.00    +0.000 OA
ATOM     10  N   UNL     1      44.630   3.963   9.430  0.00  0.00    +0.000 N 
ATOM     11  H   UNL     1      44.399   2.983   9.430  0.00  0.00    +0.000 HD
BRANCH   8  17
ATOM     12  C   UNL     1      46.788  -0.361   7.507  0.00  0.00    +0.000 C 
ATOM     13  C   UNL     1      46.747   1.082   7.096  0.00  0.00    +0.000 A 
ATOM     14  C   UNL     1      47.193   1.477   5.831  0.00  0.00    +0.000 A 
ATOM     15  C   UNL     1      47.148   2.820   5.461  0.00  0.00    +0.000 A 
ATOM     16  C   UNL     1      46.654   3.783   6.349  0.00  0.00    +0.000 A 
ATOM     17  C   UNL     1      46.200   3.407   7.624  0.00  0.00    +0.000 A 
ATOM     18  C   UNL     1      46.255   2.053   7.988  0.00  0.00    +0.000 A 
ENDBRANCH   8  17
ENDBRANCH   7  10
ENDBRANCH   1   7
BRANCH   4  19
ATOM     19  C   UNL     1      47.393   4.911  15.316  0.00  0.00    +0.000 C 
BRANCH  19  20
ATOM     20  N   UNL     1      47.995   6.206  15.522  0.00  0.00    +0.000 N 
ATOM     21  C   UNL     1      49.195   6.373  16.172  0.00  0.00    +0.000 C 
ATOM     22  O   UNL     1      49.846   5.436  16.617  0.00  0.00    +0.000 OA
ATOM     23  H   UNL     1      47.360   6.996  15.507  0.00  0.00    +0.000 HD
BRANCH  21  24
ATOM     24  C   UNL     1      49.680   7.762  16.242  0.00  0.00    +0.000 A 
ATOM     25  C   UNL     1      50.613   8.225  15.324  0.00  0.00    +0.000 A 
ATOM     26  S   UNL     1      51.038   9.863  15.551  0.00  0.00    +0.000 S 
ATOM     27  C   UNL     1      50.022   9.997  16.911  0.00  0.00    +0.000 A 
ATOM     28  N   UNL     1      49.941  11.158  17.617  0.00  0.00    +0.000 NA
ATOM     29  C   UNL     1      49.150  11.111  18.635  0.00  0.00    +0.000 A 
ATOM     30  N   UNL     1      48.423  10.010  19.008  0.00  0.00    +0.000 N 
ATOM     31  C   UNL     1      48.434   8.837  18.295  0.00  0.00    +0.000 A 
ATOM     32  O   UNL     1      47.701   7.902  18.601  0.00  0.00    +0.000 OA
ATOM     33  C   UNL     1      49.345   8.822  17.165  0.00  0.00    +0.000 A 
ATOM     34  H   UNL     1      47.796  10.043  19.799  0.00  0.00    +0.000 HD
ENDBRANCH  21  24
ENDBRANCH  19  20
ENDBRANCH   4  19
TORSDOF 6
ENDMDL
MODEL 7
REMARK VINA RESULT:    -7.281      4.006      9.075
REMARK INTER + INTRA:         -10.498
REMARK INTER:                  -9.558
REMARK INTRA:                  -0.940
REMARK UNBOUND:                -0.664
REMARK  Name = 
REMARK  7 active torsions:
REMARK  status: ('A' for Active; 'I' for Inactive)
REMARK    1  A    between atoms: C_1  and  C_2
REMARK    2  A    between atoms: C_6  and  C_7
REMARK    3  A    between atoms: N_9  and  C_10
REMARK    4  A    between atoms: C_10  and  C_11
REMARK    5  A    between atoms: C_14  and  C_15
REMARK    6  A    between atoms: C_15  and  N_16
REMARK    7  A    between atoms: C_17  and  C_19
REMARK                            x       y       z     vdW  Elec       q    Type
REMARK                         _______ _______ _______ _____ _____    ______ ____
ROOT
ATOM      1  C   UNL     1      48.958   4.861  17.344  0.00  0.00    +0.000 A 
ATOM      2  C   UNL     1      49.656   5.999  16.913  0.00  0.00    +0.000 A 
ATOM      3  C   UNL     1      49.306   6.659  15.720  0.00  0.00    +0.000 A 
ATOM      4  C   UNL     1      48.245   6.205  14.924  0.00  0.00    +0.000 A 
ATOM      5  C   UNL     1      47.541   5.074  15.361  0.00  0.00    +0.000 A 
ATOM      6  C   UNL     1      47.887   4.417  16.555  0.00  0.00    +0.000 A 
ENDROOT
BRANCH   1   7
ATOM      7  C   UNL     1      49.340   4.127  18.617  0.00  0.00    +0.000 C 
BRANCH   7  10
ATOM      8  C   UNL     1      51.118   2.636  17.713  0.00  0.00    +0.000 C 
ATOM      9  O   UNL     1      50.354   2.088  16.928  0.00  0.00    +0.000 OA
ATOM     10  N   UNL     1      50.706   3.644  18.582  0.00  0.00    +0.000 N 
ATOM     11  H   UNL     1      51.408   4.191  19.052  0.00  0.00    +0.000 HD
BRANCH   8  17
ATOM     12  C   UNL     1      54.683  -0.826  17.052  0.00  0.00    +0.000 C 
ATOM     13  C   UNL     1      54.302   0.567  17.459  0.00  0.00    +0.000 A 
ATOM     14  C   UNL     1      55.274   1.475  17.894  0.00  0.00    +0.000 A 
ATOM     15  C   UNL     1      54.907   2.767  18.267  0.00  0.00    +0.000 A 
ATOM     16  C   UNL     1      53.566   3.167  18.208  0.00  0.00    +0.000 A 
ATOM     17  C   UNL     1      52.575   2.271  17.773  0.00  0.00    +0.000 A 
ATOM     18  C   UNL     1      52.955   0.972  17.404  0.00  0.00    +0.000 A 
ENDBRANCH   8  17
ENDBRANCH   7  10
ENDBRANCH   1   7
BRANCH   4  19
ATOM     19  C   UNL     1      47.867   6.899  13.629  0.00  0.00    +0.000 C 
BRANCH  19  20
ATOM     20  N   UNL     1      47.168   6.025  12.719  0.00  0.00    +0.000 N 
ATOM     21  C   UNL     1      46.197   6.474  11.855  0.00  0.00    +0.000 C 
ATOM     22  O   UNL     1      45.859   7.650  11.788  0.00  0.00    +0.000 OA
ATOM     23  H   UNL     1      47.142   5.046  12.978  0.00  0.00    +0.000 HD
BRANCH  21  24
ATOM     24  C   UNL     1      45.630   5.448  10.963  0.00  0.00    +0.000 A 
ATOM     25  C   UNL     1      45.778   5.557   9.586  0.00  0.00    +0.000 A 
ATOM     26  S   UNL     1      45.074   4.265   8.721  0.00  0.00    +0.000 S 
ATOM     27  C   UNL     1      44.510   3.538  10.153  0.00  0.00    +0.000 A 
ATOM     28  N   UNL     1      43.781   2.389  10.119  0.00  0.00    +0.000 NA
ATOM     29  C   UNL     1      43.401   1.962  11.276  0.00  0.00    +0.000 A 
ATOM     30  N   UNL     1      43.692   2.574  12.468  0.00  0.00    +0.000 N 
ATOM     31  C   UNL     1      44.469   3.703  12.552  0.00  0.00    +0.000 A 
ATOM     32  O   UNL     1      44.789   4.171  13.640  0.00  0.00    +0.000 OA
ATOM     33  C   UNL     1      44.883   4.251  11.274  0.00  0.00    +0.000 A 
ATOM     34  H   UNL     1      43.391   2.174  13.345  0.00  0.00    +0.000 HD
ENDBRANCH  21  24
ENDBRANCH  19  20
ENDBRANCH   4  19
TORSDOF 6
ENDMDL
MODEL 8
REMARK VINA RESULT:    -7.169      5.245      9.543
REMARK INTER + INTRA:         -10.348
REMARK INTER:                  -9.200
REMARK INTRA:                  -1.148
REMARK UNBOUND:                -0.664
REMARK  Name = 
REMARK  7 active torsions:
REMARK  status: ('A' for Active; 'I' for Inactive)
REMARK    1  A    between atoms: C_1  and  C_2
REMARK    2  A    between atoms: C_6  and  C_7
REMARK    3  A    between atoms: N_9  and  C_10
REMARK    4  A    between atoms: C_10  and  C_11
REMARK    5  A    between atoms: C_14  and  C_15
REMARK    6  A    between atoms: C_15  and  N_16
REMARK    7  A    between atoms: C_17  and  C_19
REMARK                            x       y       z     vdW  Elec       q    Type
REMARK                         _______ _______ _______ _____ _____    ______ ____
ROOT
ATOM      1  C   UNL     1      51.405   2.887  17.769  0.00  0.00    +0.000 A 
ATOM      2  C   UNL     1      50.642   1.917  17.101  0.00  0.00    +0.000 A 
ATOM      3  C   UNL     1      49.293   2.147  16.779  0.00  0.00    +0.000 A 
ATOM      4  C   UNL     1      48.664   3.357  17.108  0.00  0.00    +0.000 A 
ATOM      5  C   UNL     1      49.430   4.330  17.766  0.00  0.00    +0.000 A 
ATOM      6  C   UNL     1      50.780   4.102  18.085  0.00  0.00    +0.000 A 
ENDROOT
BRANCH   1   7
ATOM      7  C   UNL     1      52.856   2.641  18.144  0.00  0.00    +0.000 C 
BRANCH   7  10
ATOM      8  C   UNL     1      54.304   0.772  17.362  0.00  0.00    +0.000 C 
ATOM      9  O   UNL     1      55.039   1.518  16.727  0.00  0.00    +0.000 OA
ATOM     10  N   UNL     1      53.206   1.237  18.085  0.00  0.00    +0.000 N 
ATOM     11  H   UNL     1      52.766   0.616  18.743  0.00  0.00    +0.000 HD
BRANCH   8  17
ATOM     12  C   UNL     1      55.722  -3.426  15.019  0.00  0.00    +0.000 C 
ATOM     13  C   UNL     1      55.237  -2.751  16.268  0.00  0.00    +0.000 A 
ATOM     14  C   UNL     1      55.013  -3.487  17.436  0.00  0.00    +0.000 A 
ATOM     15  C   UNL     1      54.563  -2.848  18.591  0.00  0.00    +0.000 A 
ATOM     16  C   UNL     1      54.335  -1.466  18.591  0.00  0.00    +0.000 A 
ATOM     17  C   UNL     1      54.556  -0.709  17.429  0.00  0.00    +0.000 A 
ATOM     18  C   UNL     1      55.003  -1.363  16.271  0.00  0.00    +0.000 A 
ENDBRANCH   8  17
ENDBRANCH   7  10
ENDBRANCH   1   7
BRANCH   4  19
ATOM     19  C   UNL     1      47.206   3.613  16.778  0.00  0.00    +0.000 C 
BRANCH  19  20
ATOM     20  N   UNL     1      47.039   4.640  15.779  0.00  0.00    +0.000 N 
ATOM     21  C   UNL     1      47.051   4.374  14.430  0.00  0.00    +0.000 C 
ATOM     22  O   UNL     1      47.196   3.246  13.976  0.00  0.00    +0.000 OA
ATOM     23  H   UNL     1      47.276   5.582  16.069  0.00  0.00    +0.000 HD
BRANCH  21  24
ATOM     24  C   UNL     1      46.812   5.539  13.561  0.00  0.00    +0.000 A 
ATOM     25  C   UNL     1      45.670   5.604  12.773  0.00  0.00    +0.000 A 
ATOM     26  S   UNL     1      45.557   7.036  11.852  0.00  0.00    +0.000 S 
ATOM     27  C   UNL     1      47.052   7.600  12.440  0.00  0.00    +0.000 A 
ATOM     28  N   UNL     1      47.575   8.783  12.015  0.00  0.00    +0.000 NA
ATOM     29  C   UNL     1      48.723   9.075  12.527  0.00  0.00    +0.000 A 
ATOM     30  N   UNL     1      49.394   8.296  13.434  0.00  0.00    +0.000 N 
ATOM     31  C   UNL     1      48.880   7.123  13.929  0.00  0.00    +0.000 A 
ATOM     32  O   UNL     1      49.462   6.499  14.809  0.00  0.00    +0.000 OA
ATOM     33  C   UNL     1      47.610   6.726  13.350  0.00  0.00    +0.000 A 
ATOM     34  H   UNL     1      50.278   8.594  13.822  0.00  0.00    +0.000 HD
ENDBRANCH  21  24
ENDBRANCH  19  20
ENDBRANCH   4  19
TORSDOF 6
ENDMDL
MODEL 9
REMARK VINA RESULT:    -6.987      1.597      2.296
REMARK INTER + INTRA:         -10.102
REMARK INTER:                  -8.973
REMARK INTRA:                  -1.129
REMARK UNBOUND:                -0.664
REMARK  Name = 
REMARK  7 active torsions:
REMARK  status: ('A' for Active; 'I' for Inactive)
REMARK    1  A    between atoms: C_1  and  C_2
REMARK    2  A    between atoms: C_6  and  C_7
REMARK    3  A    between atoms: N_9  and  C_10
REMARK    4  A    between atoms: C_10  and  C_11
REMARK    5  A    between atoms: C_14  and  C_15
REMARK    6  A    between atoms: C_15  and  N_16
REMARK    7  A    between atoms: C_17  and  C_19
REMARK                            x       y       z     vdW  Elec       q    Type
REMARK                         _______ _______ _______ _____ _____    ______ ____
ROOT
ATOM      1  C   UNL     1      46.329   7.915  12.214  0.00  0.00    +0.000 A 
ATOM      2  C   UNL     1      47.204   6.917  12.671  0.00  0.00    +0.000 A 
ATOM      3  C   UNL     1      48.349   7.241  13.422  0.00  0.00    +0.000 A 
ATOM      4  C   UNL     1      48.652   8.570  13.746  0.00  0.00    +0.000 A 
ATOM      5  C   UNL     1      47.772   9.567  13.299  0.00  0.00    +0.000 A 
ATOM      6  C   UNL     1      46.626   9.244  12.552  0.00  0.00    +0.000 A 
ENDROOT
BRANCH   1   7
ATOM      7  C   UNL     1      45.104   7.581  11.383  0.00  0.00    +0.000 C 
BRANCH   7  10
ATOM      8  C   UNL     1      44.555   5.227  10.785  0.00  0.00    +0.000 C 
ATOM      9  O   UNL     1      43.701   5.133  11.658  0.00  0.00    +0.000 OA
ATOM     10  N   UNL     1      45.295   6.390  10.580  0.00  0.00    +0.000 N 
ATOM     11  H   UNL     1      45.828   6.477   9.731  0.00  0.00    +0.000 HD
BRANCH   8  17
ATOM     12  C   UNL     1      46.715   3.630   6.552  0.00  0.00    +0.000 C 
ATOM     13  C   UNL     1      45.894   3.328   7.771  0.00  0.00    +0.000 A 
ATOM     14  C   UNL     1      45.407   2.037   8.002  0.00  0.00    +0.000 A 
ATOM     15  C   UNL     1      44.646   1.769   9.138  0.00  0.00    +0.000 A 
ATOM     16  C   UNL     1      44.365   2.786  10.059  0.00  0.00    +0.000 A 
ATOM     17  C   UNL     1      44.846   4.089   9.846  0.00  0.00    +0.000 A 
ATOM     18  C   UNL     1      45.606   4.349   8.697  0.00  0.00    +0.000 A 
ENDBRANCH   8  17
ENDBRANCH   7  10
ENDBRANCH   1   7
BRANCH   4  19
ATOM     19  C   UNL     1      49.890   8.934  14.544  0.00  0.00    +0.000 C 
BRANCH  19  20
ATOM     20  N   UNL     1      49.944   8.258  15.817  0.00  0.00    +0.000 N 
ATOM     21  C   UNL     1      51.010   7.478  16.200  0.00  0.00    +0.000 C 
ATOM     22  O   UNL     1      51.996   7.307  15.493  0.00  0.00    +0.000 OA
ATOM     23  H   UNL     1      49.050   8.071  16.257  0.00  0.00    +0.000 HD
BRANCH  21  24
ATOM     24  C   UNL     1      50.914   6.910  17.555  0.00  0.00    +0.000 A 
ATOM     25  C   UNL     1      51.761   7.353  18.563  0.00  0.00    +0.000 A 
ATOM     26  S   UNL     1      51.487   6.594  20.067  0.00  0.00    +0.000 S 
ATOM     27  C   UNL     1      50.257   5.615  19.414  0.00  0.00    +0.000 A 
ATOM     28  N   UNL     1      49.612   4.691  20.177  0.00  0.00    +0.000 NA
ATOM     29  C   UNL     1      48.719   4.006  19.547  0.00  0.00    +0.000 A 
ATOM     30  N   UNL     1      48.403   4.165  18.223  0.00  0.00    +0.000 N 
ATOM     31  C   UNL     1      48.990   5.120  17.429  0.00  0.00    +0.000 A 
ATOM     32  O   UNL     1      48.618   5.300  16.275  0.00  0.00    +0.000 OA
ATOM     33  C   UNL     1      50.036   5.889  18.079  0.00  0.00    +0.000 A 
ATOM     34  H   UNL     1      47.672   3.618  17.792  0.00  0.00    +0.000 HD
ENDBRANCH  21  24
ENDBRANCH  19  20
ENDBRANCH   4  19
TORSDOF 6
ENDMDL
