MODEL 1
REMARK VINA RESULT:    -8.990      0.000      0.000
REMARK INTER + INTRA:         -12.333
REMARK INTER:                 -11.618
REMARK INTRA:                  -0.715
REMARK UNBOUND:                -0.715
REMARK  Name = 
REMARK  5 active torsions:
REMARK  status: ('A' for Active; 'I' for Inactive)
REMARK    1  A    between atoms: C_7  and  C_8
REMARK    2  A    between atoms: N_10  and  C_11
REMARK    3  A    between atoms: C_11  and  C_12
REMARK    4  A    between atoms: C_15  and  C_16
REMARK    5  A    between atoms: C_16  and  C_17
REMARK                            x       y       z     vdW  Elec       q    Type
REMARK                         _______ _______ _______ _____ _____    ______ ____
ROOT
ATOM      1  C   UNL     1      48.171   6.641  14.038  0.00  0.00    +0.000 C 
ATOM      2  O   UNL     1      48.877   7.003  13.100  0.00  0.00    +0.000 OA
ATOM      3  N   UNL     1      46.800   6.627  13.956  0.00  0.00    +0.000 N 
ATOM      4  H   UNL     1      46.250   6.284  14.738  0.00  0.00    +0.000 HD
ENDROOT
BRANCH   1  11
ATOM      5  N   UNL     1      48.250   2.779  19.542  0.00  0.00    +0.000 N 
ATOM      6  C   UNL     1      48.355   3.609  18.472  0.00  0.00    +0.000 A 
ATOM      7  N   UNL     1      49.281   4.527  18.447  0.00  0.00    +0.000 NA
ATOM      8  C   UNL     1      49.264   5.284  17.327  0.00  0.00    +0.000 A 
ATOM      9  N   UNL     1      50.145   6.297  17.096  0.00  0.00    +0.000 N 
ATOM     10  C   UNL     1      49.847   6.878  15.891  0.00  0.00    +0.000 A 
ATOM     11  C   UNL     1      48.754   6.229  15.319  0.00  0.00    +0.000 A 
ATOM     12  C   UNL     1      48.408   5.202  16.250  0.00  0.00    +0.000 A 
ATOM     13  C   UNL     1      47.401   4.171  16.300  0.00  0.00    +0.000 A 
ATOM     14  O   UNL     1      46.583   3.966  15.408  0.00  0.00    +0.000 OA
ATOM     15  N   UNL     1      47.441   3.421  17.460  0.00  0.00    +0.000 N 
ATOM     16  H   UNL     1      48.796   3.108  20.334  0.00  0.00    +0.000 HD
ATOM     17  H   UNL     1      47.320   2.482  19.805  0.00  0.00    +0.000 HD
ATOM     18  H   UNL     1      50.887   6.567  17.726  0.00  0.00    +0.000 HD
ATOM     19  H   UNL     1      46.783   2.663  17.517  0.00  0.00    +0.000 HD
ENDBRANCH   1  11
BRANCH   3  20
ATOM     20  C   UNL     1      46.095   7.101  12.789  0.00  0.00    +0.000 C 
BRANCH  20  21
ATOM     21  C   UNL     1      45.729   5.994  11.845  0.00  0.00    +0.000 A 
ATOM     22  C   UNL     1      45.270   4.761  12.312  0.00  0.00    +0.000 A 
ATOM     23  C   UNL     1      44.933   3.756  11.408  0.00  0.00    +0.000 A 
ATOM     24  C   UNL     1      45.061   4.007  10.045  0.00  0.00    +0.000 A 
ATOM     25  N   UNL     1      45.509   5.195   9.564  0.00  0.00    +0.000 NA
ATOM     26  C   UNL     1      45.821   6.154  10.467  0.00  0.00    +0.000 A 
BRANCH  24  27
ATOM     27  C   UNL     1      44.609   2.974   9.033  0.00  0.00    +0.000 C 
BRANCH  27  28
ATOM     28  C   UNL     1      45.747   2.450   8.187  0.00  0.00    +0.000 A 
ATOM     29  C   UNL     1      46.082   1.092   8.218  0.00  0.00    +0.000 A 
ATOM     30  C   UNL     1      47.169   0.654   7.480  0.00  0.00    +0.000 A 
ATOM     31  N   UNL     1      47.924   1.462   6.707  0.00  0.00    +0.000 NA
ATOM     32  C   UNL     1      47.576   2.765   6.676  0.00  0.00    +0.000 A 
ATOM     33  C   UNL     1      46.511   3.302   7.386  0.00  0.00    +0.000 A 
ENDBRANCH  27  28
ENDBRANCH  24  27
ENDBRANCH  20  21
ENDBRANCH   3  20
TORSDOF 5
ENDMDL
MODEL 2
REMARK VINA RESULT:    -8.795      1.358      2.258
REMARK INTER + INTRA:         -12.081
REMARK INTER:                 -11.286
REMARK INTRA:                  -0.795
REMARK UNBOUND:                -0.715
REMARK  Name = 
REMARK  5 active torsions:
REMARK  status: ('A' for Active; 'I' for Inactive)
REMARK    1  A    between atoms: C_7  and  C_8
REMARK    2  A    between atoms: N_10  and  C_11
REMARK    3  A    between atoms: C_11  and  C_12
REMARK    4  A    between atoms: C_15  and  C_16
REMARK    5  A    between atoms: C_16  and  C_17
REMARK                            x       y       z     vdW  Elec       q    Type
REMARK                         _______ _______ _______ _____ _____    ______ ____
ROOT
ATOM      1  C   UNL     1      47.344   5.514  14.442  0.00  0.00    +0.000 C 
ATOM      2  O   UNL     1      48.230   6.238  13.993  0.00  0.00    +0.000 OA
ATOM      3  N   UNL     1      46.065   5.531  13.942  0.00  0.00    +0.000 N 
ATOM      4  H   UNL     1      45.368   4.891  14.312  0.00  0.00    +0.000 HD
ENDROOT
BRANCH   1  11
ATOM      5  N   UNL     1      49.435   4.287  20.713  0.00  0.00    +0.000 N 
ATOM      6  C   UNL     1      48.970   4.403  19.442  0.00  0.00    +0.000 A 
ATOM      7  N   UNL     1      48.610   3.341  18.779  0.00  0.00    +0.000 NA
ATOM      8  C   UNL     1      48.175   3.604  17.526  0.00  0.00    +0.000 A 
ATOM      9  N   UNL     1      47.749   2.640  16.664  0.00  0.00    +0.000 N 
ATOM     10  C   UNL     1      47.401   3.228  15.477  0.00  0.00    +0.000 A 
ATOM     11  C   UNL     1      47.596   4.606  15.565  0.00  0.00    +0.000 A 
ATOM     12  C   UNL     1      48.078   4.824  16.892  0.00  0.00    +0.000 A 
ATOM     13  C   UNL     1      48.473   5.983  17.653  0.00  0.00    +0.000 A 
ATOM     14  O   UNL     1      48.423   7.134  17.228  0.00  0.00    +0.000 OA
ATOM     15  N   UNL     1      48.918   5.679  18.925  0.00  0.00    +0.000 N 
ATOM     16  H   UNL     1      49.656   3.323  20.950  0.00  0.00    +0.000 HD
ATOM     17  H   UNL     1      50.155   4.935  21.002  0.00  0.00    +0.000 HD
ATOM     18  H   UNL     1      47.711   1.654  16.880  0.00  0.00    +0.000 HD
ATOM     19  H   UNL     1      49.164   6.462  19.505  0.00  0.00    +0.000 HD
ENDBRANCH   1  11
BRANCH   3  20
ATOM     20  C   UNL     1      45.656   6.448  12.905  0.00  0.00    +0.000 C 
BRANCH  20  21
ATOM     21  C   UNL     1      45.382   5.759  11.600  0.00  0.00    +0.000 A 
ATOM     22  C   UNL     1      46.165   6.001  10.471  0.00  0.00    +0.000 A 
ATOM     23  C   UNL     1      45.889   5.340   9.277  0.00  0.00    +0.000 A 
ATOM     24  C   UNL     1      44.826   4.441   9.236  0.00  0.00    +0.000 A 
ATOM     25  N   UNL     1      44.046   4.190  10.318  0.00  0.00    +0.000 NA
ATOM     26  C   UNL     1      44.345   4.843  11.467  0.00  0.00    +0.000 A 
BRANCH  24  27
ATOM     27  C   UNL     1      44.559   3.630   7.985  0.00  0.00    +0.000 C 
BRANCH  27  28
ATOM     28  C   UNL     1      45.769   2.845   7.531  0.00  0.00    +0.000 A 
ATOM     29  C   UNL     1      46.564   3.318   6.481  0.00  0.00    +0.000 A 
ATOM     30  C   UNL     1      47.628   2.544   6.048  0.00  0.00    +0.000 A 
ATOM     31  N   UNL     1      47.963   1.357   6.594  0.00  0.00    +0.000 NA
ATOM     32  C   UNL     1      47.195   0.924   7.616  0.00  0.00    +0.000 A 
ATOM     33  C   UNL     1      46.104   1.621   8.116  0.00  0.00    +0.000 A 
ENDBRANCH  27  28
ENDBRANCH  24  27
ENDBRANCH  20  21
ENDBRANCH   3  20
TORSDOF 5
ENDMDL
MODEL 3
REMARK VINA RESULT:    -8.646      2.254      4.088
REMARK INTER + INTRA:         -11.888
REMARK INTER:                 -10.998
REMARK INTRA:                  -0.891
REMARK UNBOUND:                -0.715
REMARK  Name = 
REMARK  5 active torsions:
REMARK  status: ('A' for Active; 'I' for Inactive)
REMARK    1  A    between atoms: C_7  and  C_8
REMARK    2  A    between atoms: N_10  and  C_11
REMARK    3  A    between atoms: C_11  and  C_12
REMARK    4  A    between atoms: C_15  and  C_16
REMARK    5  A    between atoms: C_16  and  C_17
REMARK                            x       y       z     vdW  Elec       q    Type
REMARK                         _______ _______ _______ _____ _____    ______ ____
ROOT
ATOM      1  C   UNL     1      47.142   5.348  14.112  0.00  0.00    +0.000 C 
ATOM      2  O   UNL     1      47.258   4.142  14.316  0.00  0.00    +0.000 OA
ATOM      3  N   UNL     1      45.973   5.900  13.648  0.00  0.00    +0.000 N 
ATOM      4  H   UNL     1      45.900   6.906  13.528  0.00  0.00    +0.000 HD
ENDROOT
BRANCH   1  11
ATOM      5  N   UNL     1      51.553   9.915  11.902  0.00  0.00    +0.000 N 
ATOM      6  C   UNL     1      50.710   9.018  12.475  0.00  0.00    +0.000 A 
ATOM      7  N   UNL     1      50.867   8.681  13.724  0.00  0.00    +0.000 NA
ATOM      8  C   UNL     1      49.962   7.776  14.160  0.00  0.00    +0.000 A 
ATOM      9  N   UNL     1      49.944   7.289  15.432  0.00  0.00    +0.000 N 
ATOM     10  C   UNL     1      48.927   6.378  15.544  0.00  0.00    +0.000 A 
ATOM     11  C   UNL     1      48.262   6.271  14.324  0.00  0.00    +0.000 A 
ATOM     12  C   UNL     1      48.933   7.187  13.458  0.00  0.00    +0.000 A 
ATOM     13  C   UNL     1      48.777   7.586  12.081  0.00  0.00    +0.000 A 
ATOM     14  O   UNL     1      47.896   7.162  11.338  0.00  0.00    +0.000 OA
ATOM     15  N   UNL     1      49.720   8.506  11.666  0.00  0.00    +0.000 N 
ATOM     16  H   UNL     1      52.378  10.081  12.473  0.00  0.00    +0.000 HD
ATOM     17  H   UNL     1      51.775   9.781  10.925  0.00  0.00    +0.000 HD
ATOM     18  H   UNL     1      50.589   7.562  16.160  0.00  0.00    +0.000 HD
ATOM     19  H   UNL     1      49.622   8.844  10.724  0.00  0.00    +0.000 HD
ENDBRANCH   1  11
BRANCH   3  20
ATOM     20  C   UNL     1      44.825   5.094  13.304  0.00  0.00    +0.000 C 
BRANCH  20  21
ATOM     21  C   UNL     1      44.771   4.759  11.842  0.00  0.00    +0.000 A 
ATOM     22  C   UNL     1      45.514   5.475  10.903  0.00  0.00    +0.000 A 
ATOM     23  C   UNL     1      45.447   5.133   9.555  0.00  0.00    +0.000 A 
ATOM     24  C   UNL     1      44.632   4.071   9.170  0.00  0.00    +0.000 A 
ATOM     25  N   UNL     1      43.897   3.361  10.061  0.00  0.00    +0.000 NA
ATOM     26  C   UNL     1      43.989   3.713  11.366  0.00  0.00    +0.000 A 
BRANCH  24  27
ATOM     27  C   UNL     1      44.613   3.609   7.727  0.00  0.00    +0.000 C 
BRANCH  27  28
ATOM     28  C   UNL     1      45.849   2.824   7.351  0.00  0.00    +0.000 A 
ATOM     29  C   UNL     1      46.655   3.245   6.287  0.00  0.00    +0.000 A 
ATOM     30  C   UNL     1      47.746   2.470   5.928  0.00  0.00    +0.000 A 
ATOM     31  N   UNL     1      48.096   1.329   6.558  0.00  0.00    +0.000 NA
ATOM     32  C   UNL     1      47.316   0.948   7.592  0.00  0.00    +0.000 A 
ATOM     33  C   UNL     1      46.199   1.650   8.023  0.00  0.00    +0.000 A 
ENDBRANCH  27  28
ENDBRANCH  24  27
ENDBRANCH  20  21
ENDBRANCH   3  20
TORSDOF 5
ENDMDL
MODEL 4
REMARK VINA RESULT:    -8.563      1.947      2.918
REMARK INTER + INTRA:         -11.781
REMARK INTER:                 -10.891
REMARK INTRA:                  -0.890
REMARK UNBOUND:                -0.715
REMARK  Name = 
REMARK  5 active torsions:
REMARK  status: ('A' for Active; 'I' for Inactive)
REMARK    1  A    between atoms: C_7  and  C_8
REMARK    2  A    between atoms: N_10  and  C_11
REMARK    3  A    between atoms: C_11  and  C_12
REMARK    4  A    between atoms: C_15  and  C_16
REMARK    5  A    between atoms: C_16  and  C_17
REMARK                            x       y       z     vdW  Elec       q    Type
REMARK                         _______ _______ _______ _____ _____    ______ ____
ROOT
ATOM      1  C   UNL     1      47.154   5.341  14.011  0.00  0.00    +0.000 C 
ATOM      2  O   UNL     1      47.279   4.126  14.144  0.00  0.00    +0.000 OA
ATOM      3  N   UNL     1      45.969   5.913  13.617  0.00  0.00    +0.000 N 
ATOM      4  H   UNL     1      45.891   6.925  13.555  0.00  0.00    +0.000 HD
ENDROOT
BRANCH   1  11
ATOM      5  N   UNL     1      51.558   8.432  18.042  0.00  0.00    +0.000 N 
ATOM      6  C   UNL     1      50.739   7.862  17.122  0.00  0.00    +0.000 A 
ATOM      7  N   UNL     1      50.820   8.212  15.869  0.00  0.00    +0.000 NA
ATOM      8  C   UNL     1      49.941   7.570  15.068  0.00  0.00    +0.000 A 
ATOM      9  N   UNL     1      49.858   7.784  13.725  0.00  0.00    +0.000 N 
ATOM     10  C   UNL     1      48.858   7.001  13.212  0.00  0.00    +0.000 A 
ATOM     11  C   UNL     1      48.279   6.254  14.236  0.00  0.00    +0.000 A 
ATOM     12  C   UNL     1      48.999   6.625  15.412  0.00  0.00    +0.000 A 
ATOM     13  C   UNL     1      48.939   6.248  16.803  0.00  0.00    +0.000 A 
ATOM     14  O   UNL     1      48.166   5.408  17.255  0.00  0.00    +0.000 OA
ATOM     15  N   UNL     1      49.845   6.927  17.595  0.00  0.00    +0.000 N 
ATOM     16  H   UNL     1      52.028   9.256  17.674  0.00  0.00    +0.000 HD
ATOM     17  H   UNL     1      51.181   8.578  18.968  0.00  0.00    +0.000 HD
ATOM     18  H   UNL     1      50.443   8.427  13.209  0.00  0.00    +0.000 HD
ATOM     19  H   UNL     1      49.865   6.665  18.565  0.00  0.00    +0.000 HD
ENDBRANCH   1  11
BRANCH   3  20
ATOM     20  C   UNL     1      44.812   5.124  13.267  0.00  0.00    +0.000 C 
BRANCH  20  21
ATOM     21  C   UNL     1      44.762   4.787  11.806  0.00  0.00    +0.000 A 
ATOM     22  C   UNL     1      45.543   5.471  10.874  0.00  0.00    +0.000 A 
ATOM     23  C   UNL     1      45.478   5.129   9.526  0.00  0.00    +0.000 A 
ATOM     24  C   UNL     1      44.627   4.099   9.134  0.00  0.00    +0.000 A 
ATOM     25  N   UNL     1      43.854   3.420  10.018  0.00  0.00    +0.000 NA
ATOM     26  C   UNL     1      43.945   3.771  11.323  0.00  0.00    +0.000 A 
BRANCH  24  27
ATOM     27  C   UNL     1      44.606   3.634   7.692  0.00  0.00    +0.000 C 
BRANCH  27  28
ATOM     28  C   UNL     1      45.842   2.849   7.315  0.00  0.00    +0.000 A 
ATOM     29  C   UNL     1      46.633   3.254   6.234  0.00  0.00    +0.000 A 
ATOM     30  C   UNL     1      47.723   2.479   5.876  0.00  0.00    +0.000 A 
ATOM     31  N   UNL     1      48.087   1.353   6.523  0.00  0.00    +0.000 NA
ATOM     32  C   UNL     1      47.323   0.986   7.573  0.00  0.00    +0.000 A 
ATOM     33  C   UNL     1      46.207   1.690   8.005  0.00  0.00    +0.000 A 
ENDBRANCH  27  28
ENDBRANCH  24  27
ENDBRANCH  20  21
ENDBRANCH   3  20
TORSDOF 5
ENDMDL
MODEL 5
REMARK VINA RESULT:    -8.027      2.164      3.109
REMARK INTER + INTRA:         -11.089
REMARK INTER:                 -10.228
REMARK INTRA:                  -0.861
REMARK UNBOUND:                -0.715
REMARK  Name = 
REMARK  5 active torsions:
REMARK  status: ('A' for Active; 'I' for Inactive)
REMARK    1  A    between atoms: C_7  and  C_8
REMARK    2  A    between atoms: N_10  and  C_11
REMARK    3  A    between atoms: C_11  and  C_12
REMARK    4  A    between atoms: C_15  and  C_16
REMARK    5  A    between atoms: C_16  and  C_17
REMARK                            x       y       z     vdW  Elec       q    Type
REMARK                         _______ _______ _______ _____ _____    ______ ____
ROOT
ATOM      1  C   UNL     1      46.995   7.733  13.386  0.00  0.00    +0.000 C 
ATOM      2  O   UNL     1      46.096   8.531  13.130  0.00  0.00    +0.000 OA
ATOM      3  N   UNL     1      46.775   6.379  13.438  0.00  0.00    +0.000 N 
ATOM      4  H   UNL     1      47.551   5.746  13.614  0.00  0.00    +0.000 HD
ENDROOT
BRANCH   1  11
ATOM      5  N   UNL     1      52.754   7.323  16.831  0.00  0.00    +0.000 N 
ATOM      6  C   UNL     1      51.653   7.500  16.056  0.00  0.00    +0.000 A 
ATOM      7  N   UNL     1      51.606   8.487  15.205  0.00  0.00    +0.000 NA
ATOM      8  C   UNL     1      50.449   8.546  14.508  0.00  0.00    +0.000 A 
ATOM      9  N   UNL     1      50.192   9.497  13.566  0.00  0.00    +0.000 N 
ATOM     10  C   UNL     1      48.933   9.295  13.065  0.00  0.00    +0.000 A 
ATOM     11  C   UNL     1      48.357   8.187  13.684  0.00  0.00    +0.000 A 
ATOM     12  C   UNL     1      49.353   7.716  14.593  0.00  0.00    +0.000 A 
ATOM     13  C   UNL     1      49.438   6.626  15.534  0.00  0.00    +0.000 A 
ATOM     14  O   UNL     1      48.550   5.796  15.706  0.00  0.00    +0.000 OA
ATOM     15  N   UNL     1      50.628   6.598  16.235  0.00  0.00    +0.000 N 
ATOM     16  H   UNL     1      53.368   8.134  16.812  0.00  0.00    +0.000 HD
ATOM     17  H   UNL     1      52.609   6.966  17.765  0.00  0.00    +0.000 HD
ATOM     18  H   UNL     1      50.835  10.229  13.300  0.00  0.00    +0.000 HD
ATOM     19  H   UNL     1      50.746   5.830  16.872  0.00  0.00    +0.000 HD
ENDBRANCH   1  11
BRANCH   3  20
ATOM     20  C   UNL     1      45.462   5.805  13.262  0.00  0.00    +0.000 C 
BRANCH  20  21
ATOM     21  C   UNL     1      45.277   5.189  11.907  0.00  0.00    +0.000 A 
ATOM     22  C   UNL     1      44.589   3.986  11.742  0.00  0.00    +0.000 A 
ATOM     23  C   UNL     1      44.429   3.444  10.469  0.00  0.00    +0.000 A 
ATOM     24  C   UNL     1      44.962   4.124   9.377  0.00  0.00    +0.000 A 
ATOM     25  N   UNL     1      45.639   5.293   9.509  0.00  0.00    +0.000 NA
ATOM     26  C   UNL     1      45.771   5.798  10.759  0.00  0.00    +0.000 A 
BRANCH  24  27
ATOM     27  C   UNL     1      44.720   3.616   7.970  0.00  0.00    +0.000 C 
BRANCH  27  28
ATOM     28  C   UNL     1      45.898   2.847   7.417  0.00  0.00    +0.000 A 
ATOM     29  C   UNL     1      46.579   3.314   6.287  0.00  0.00    +0.000 A 
ATOM     30  C   UNL     1      47.614   2.555   5.769  0.00  0.00    +0.000 A 
ATOM     31  N   UNL     1      48.027   1.386   6.302  0.00  0.00    +0.000 NA
ATOM     32  C   UNL     1      47.369   0.959   7.401  0.00  0.00    +0.000 A 
ATOM     33  C   UNL     1      46.316   1.643   7.991  0.00  0.00    +0.000 A 
ENDBRANCH  27  28
ENDBRANCH  24  27
ENDBRANCH  20  21
ENDBRANCH   3  20
TORSDOF 5
ENDMDL
MODEL 6
REMARK VINA RESULT:    -7.883      2.049      3.127
REMARK INTER + INTRA:         -10.903
REMARK INTER:                 -10.331
REMARK INTRA:                  -0.571
REMARK UNBOUND:                -0.715
REMARK  Name = 
REMARK  5 active torsions:
REMARK  status: ('A' for Active; 'I' for Inactive)
REMARK    1  A    between atoms: C_7  and  C_8
REMARK    2  A    between atoms: N_10  and  C_11
REMARK    3  A    between atoms: C_11  and  C_12
REMARK    4  A    between atoms: C_15  and  C_16
REMARK    5  A    between atoms: C_16  and  C_17
REMARK                            x       y       z     vdW  Elec       q    Type
REMARK                         _______ _______ _______ _____ _____    ______ ____
ROOT
ATOM      1  C   UNL     1      47.165   3.943  16.006  0.00  0.00    +0.000 C 
ATOM      2  O   UNL     1      46.430   4.393  16.881  0.00  0.00    +0.000 OA
ATOM      3  N   UNL     1      46.896   4.110  14.670  0.00  0.00    +0.000 N 
ATOM      4  H   UNL     1      47.547   3.758  13.974  0.00  0.00    +0.000 HD
ENDROOT
BRANCH   1  11
ATOM      5  N   UNL     1      53.265   3.371  18.775  0.00  0.00    +0.000 N 
ATOM      6  C   UNL     1      52.038   3.350  18.194  0.00  0.00    +0.000 A 
ATOM      7  N   UNL     1      51.627   2.279  17.576  0.00  0.00    +0.000 NA
ATOM      8  C   UNL     1      50.392   2.403  17.039  0.00  0.00    +0.000 A 
ATOM      9  N   UNL     1      49.771   1.403  16.352  0.00  0.00    +0.000 N 
ATOM     10  C   UNL     1      48.550   1.852  15.922  0.00  0.00    +0.000 A 
ATOM     11  C   UNL     1      48.364   3.169  16.339  0.00  0.00    +0.000 A 
ATOM     12  C   UNL     1      49.551   3.494  17.066  0.00  0.00    +0.000 A 
ATOM     13  C   UNL     1      50.027   4.661  17.766  0.00  0.00    +0.000 A 
ATOM     14  O   UNL     1      49.383   5.699  17.890  0.00  0.00    +0.000 OA
ATOM     15  N   UNL     1      51.293   4.505  18.296  0.00  0.00    +0.000 N 
ATOM     16  H   UNL     1      53.840   2.587  18.478  0.00  0.00    +0.000 HD
ATOM     17  H   UNL     1      53.766   4.249  18.765  0.00  0.00    +0.000 HD
ATOM     18  H   UNL     1      50.166   0.487  16.190  0.00  0.00    +0.000 HD
ATOM     19  H   UNL     1      51.647   5.280  18.829  0.00  0.00    +0.000 HD
ENDBRANCH   1  11
BRANCH   3  20
ATOM     20  C   UNL     1      45.697   4.766  14.202  0.00  0.00    +0.000 C 
BRANCH  20  21
ATOM     21  C   UNL     1      45.478   4.587  12.729  0.00  0.00    +0.000 A 
ATOM     22  C   UNL     1      45.809   5.590  11.816  0.00  0.00    +0.000 A 
ATOM     23  C   UNL     1      45.599   5.390  10.455  0.00  0.00    +0.000 A 
ATOM     24  C   UNL     1      45.058   4.179  10.028  0.00  0.00    +0.000 A 
ATOM     25  N   UNL     1      44.723   3.189  10.894  0.00  0.00    +0.000 NA
ATOM     26  C   UNL     1      44.947   3.411  12.211  0.00  0.00    +0.000 A 
BRANCH  24  27
ATOM     27  C   UNL     1      44.910   3.889   8.549  0.00  0.00    +0.000 C 
BRANCH  27  28
ATOM     28  C   UNL     1      45.978   2.954   8.029  0.00  0.00    +0.000 A 
ATOM     29  C   UNL     1      47.005   3.442   7.213  0.00  0.00    +0.000 A 
ATOM     30  C   UNL     1      47.933   2.550   6.702  0.00  0.00    +0.000 A 
ATOM     31  N   UNL     1      47.921   1.225   6.960  0.00  0.00    +0.000 NA
ATOM     32  C   UNL     1      46.934   0.776   7.762  0.00  0.00    +0.000 A 
ATOM     33  C   UNL     1      45.953   1.587   8.316  0.00  0.00    +0.000 A 
ENDBRANCH  27  28
ENDBRANCH  24  27
ENDBRANCH  20  21
ENDBRANCH   3  20
TORSDOF 5
ENDMDL
MODEL 7
REMARK VINA RESULT:    -7.707      3.271      7.668
REMARK INTER + INTRA:         -10.675
REMARK INTER:                  -9.681
REMARK INTRA:                  -0.994
REMARK UNBOUND:                -0.715
REMARK  Name = 
REMARK  5 active torsions:
REMARK  status: ('A' for Active; 'I' for Inactive)
REMARK    1  A    between atoms: C_7  and  C_8
REMARK    2  A    between atoms: N_10  and  C_11
REMARK    3  A    between atoms: C_11  and  C_12
REMARK    4  A    between atoms: C_15  and  C_16
REMARK    5  A    between atoms: C_16  and  C_17
REMARK                            x       y       z     vdW  Elec       q    Type
REMARK                         _______ _______ _______ _____ _____    ______ ____
ROOT
ATOM      1  C   UNL     1      47.080   7.706  12.765  0.00  0.00    +0.000 C 
ATOM      2  O   UNL     1      48.113   7.683  12.100  0.00  0.00    +0.000 OA
ATOM      3  N   UNL     1      47.002   8.362  13.969  0.00  0.00    +0.000 N 
ATOM      4  H   UNL     1      46.120   8.393  14.473  0.00  0.00    +0.000 HD
ENDROOT
BRANCH   1  11
ATOM      5  N   UNL     1      43.422   2.116  12.006  0.00  0.00    +0.000 N 
ATOM      6  C   UNL     1      44.051   3.315  12.115  0.00  0.00    +0.000 A 
ATOM      7  N   UNL     1      43.506   4.385  11.609  0.00  0.00    +0.000 NA
ATOM      8  C   UNL     1      44.244   5.504  11.784  0.00  0.00    +0.000 A 
ATOM      9  N   UNL     1      43.859   6.732  11.336  0.00  0.00    +0.000 N 
ATOM     10  C   UNL     1      44.833   7.644  11.650  0.00  0.00    +0.000 A 
ATOM     11  C   UNL     1      45.871   7.003  12.323  0.00  0.00    +0.000 A 
ATOM     12  C   UNL     1      45.464   5.637  12.411  0.00  0.00    +0.000 A 
ATOM     13  C   UNL     1      46.038   4.438  12.971  0.00  0.00    +0.000 A 
ATOM     14  O   UNL     1      47.108   4.404  13.573  0.00  0.00    +0.000 OA
ATOM     15  N   UNL     1      45.263   3.312  12.768  0.00  0.00    +0.000 N 
ATOM     16  H   UNL     1      42.660   2.145  11.334  0.00  0.00    +0.000 HD
ATOM     17  H   UNL     1      44.005   1.297  11.900  0.00  0.00    +0.000 HD
ATOM     18  H   UNL     1      42.996   6.919  10.845  0.00  0.00    +0.000 HD
ATOM     19  H   UNL     1      45.606   2.462  13.180  0.00  0.00    +0.000 HD
ENDBRANCH   1  11
BRANCH   3  20
ATOM     20  C   UNL     1      48.145   9.010  14.567  0.00  0.00    +0.000 C 
BRANCH  20  21
ATOM     21  C   UNL     1      48.876   8.121  15.529  0.00  0.00    +0.000 A 
ATOM     22  C   UNL     1      48.568   8.112  16.890  0.00  0.00    +0.000 A 
ATOM     23  C   UNL     1      49.262   7.270  17.755  0.00  0.00    +0.000 A 
ATOM     24  C   UNL     1      50.257   6.444  17.237  0.00  0.00    +0.000 A 
ATOM     25  N   UNL     1      50.579   6.436  15.919  0.00  0.00    +0.000 NA
ATOM     26  C   UNL     1      49.882   7.261  15.102  0.00  0.00    +0.000 A 
BRANCH  24  27
ATOM     27  C   UNL     1      50.961   5.444  18.131  0.00  0.00    +0.000 C 
BRANCH  27  28
ATOM     28  C   UNL     1      50.671   4.012  17.743  0.00  0.00    +0.000 A 
ATOM     29  C   UNL     1      51.698   3.061  17.739  0.00  0.00    +0.000 A 
ATOM     30  C   UNL     1      51.414   1.772  17.320  0.00  0.00    +0.000 A 
ATOM     31  N   UNL     1      50.189   1.365  16.927  0.00  0.00    +0.000 NA
ATOM     32  C   UNL     1      49.208   2.291  16.953  0.00  0.00    +0.000 A 
ATOM     33  C   UNL     1      49.393   3.608  17.349  0.00  0.00    +0.000 A 
ENDBRANCH  27  28
ENDBRANCH  24  27
ENDBRANCH  20  21
ENDBRANCH   3  20
TORSDOF 5
ENDMDL
MODEL 8
REMARK VINA RESULT:    -7.555      2.740      9.277
REMARK INTER + INTRA:         -10.478
REMARK INTER:                  -9.543
REMARK INTRA:                  -0.935
REMARK UNBOUND:                -0.715
REMARK  Name = 
REMARK  5 active torsions:
REMARK  status: ('A' for Active; 'I' for Inactive)
REMARK    1  A    between atoms: C_7  and  C_8
REMARK    2  A    between atoms: N_10  and  C_11
REMARK    3  A    between atoms: C_11  and  C_12
REMARK    4  A    between atoms: C_15  and  C_16
REMARK    5  A    between atoms: C_16  and  C_17
REMARK                            x       y       z     vdW  Elec       q    Type
REMARK                         _______ _______ _______ _____ _____    ______ ____
ROOT
ATOM      1  C   UNL     1      44.207   4.146  10.576  0.00  0.00    +0.000 C 
ATOM      2  O   UNL     1      43.019   4.117  10.886  0.00  0.00    +0.000 OA
ATOM      3  N   UNL     1      45.058   5.119  11.040  0.00  0.00    +0.000 N 
ATOM      4  H   UNL     1      46.044   5.089  10.794  0.00  0.00    +0.000 HD
ENDROOT
BRANCH   1  11
ATOM      5  N   UNL     1      48.105   2.456   5.364  0.00  0.00    +0.000 N 
ATOM      6  C   UNL     1      47.300   2.662   6.439  0.00  0.00    +0.000 A 
ATOM      7  N   UNL     1      46.641   1.666   6.961  0.00  0.00    +0.000 NA
ATOM      8  C   UNL     1      45.875   2.018   8.019  0.00  0.00    +0.000 A 
ATOM      9  N   UNL     1      45.107   1.132   8.713  0.00  0.00    +0.000 N 
ATOM     10  C   UNL     1      44.441   1.805   9.703  0.00  0.00    +0.000 A 
ATOM     11  C   UNL     1      44.783   3.155   9.661  0.00  0.00    +0.000 A 
ATOM     12  C   UNL     1      45.715   3.264   8.584  0.00  0.00    +0.000 A 
ATOM     13  C   UNL     1      46.465   4.345   7.993  0.00  0.00    +0.000 A 
ATOM     14  O   UNL     1      46.438   5.503   8.399  0.00  0.00    +0.000 OA
ATOM     15  N   UNL     1      47.230   3.954   6.911  0.00  0.00    +0.000 N 
ATOM     16  H   UNL     1      47.942   1.548   4.936  0.00  0.00    +0.000 HD
ATOM     17  H   UNL     1      48.169   3.202   4.686  0.00  0.00    +0.000 HD
ATOM     18  H   UNL     1      45.046   0.144   8.511  0.00  0.00    +0.000 HD
ATOM     19  H   UNL     1      47.802   4.669   6.495  0.00  0.00    +0.000 HD
ENDBRANCH   1  11
BRANCH   3  20
ATOM     20  C   UNL     1      44.601   6.211  11.867  0.00  0.00    +0.000 C 
BRANCH  20  21
ATOM     21  C   UNL     1      45.719   6.881  12.609  0.00  0.00    +0.000 A 
ATOM     22  C   UNL     1      45.695   8.250  12.881  0.00  0.00    +0.000 A 
ATOM     23  C   UNL     1      46.745   8.840  13.578  0.00  0.00    +0.000 A 
ATOM     24  C   UNL     1      47.808   8.043  13.995  0.00  0.00    +0.000 A 
ATOM     25  N   UNL     1      47.859   6.711  13.741  0.00  0.00    +0.000 NA
ATOM     26  C   UNL     1      46.819   6.165  13.068  0.00  0.00    +0.000 A 
BRANCH  24  27
ATOM     27  C   UNL     1      48.917   8.631  14.842  0.00  0.00    +0.000 C 
BRANCH  27  28
ATOM     28  C   UNL     1      48.691   8.427  16.323  0.00  0.00    +0.000 A 
ATOM     29  C   UNL     1      47.947   9.357  17.059  0.00  0.00    +0.000 A 
ATOM     30  C   UNL     1      47.811   9.173  18.424  0.00  0.00    +0.000 A 
ATOM     31  N   UNL     1      48.340   8.130  19.097  0.00  0.00    +0.000 NA
ATOM     32  C   UNL     1      49.040   7.235  18.369  0.00  0.00    +0.000 A 
ATOM     33  C   UNL     1      49.240   7.334  17.000  0.00  0.00    +0.000 A 
ENDBRANCH  27  28
ENDBRANCH  24  27
ENDBRANCH  20  21
ENDBRANCH   3  20
TORSDOF 5
ENDMDL
MODEL 9
REMARK VINA RESULT:    -7.520      3.797      8.430
REMARK INTER + INTRA:         -10.434
REMARK INTER:                  -9.533
REMARK INTRA:                  -0.901
REMARK UNBOUND:                -0.715
REMARK  Name = 
REMARK  5 active torsions:
REMARK  status: ('A' for Active; 'I' for Inactive)
REMARK    1  A    between atoms: C_7  and  C_8
REMARK    2  A    between atoms: N_10  and  C_11
REMARK    3  A    between atoms: C_11  and  C_12
REMARK    4  A    between atoms: C_15  and  C_16
REMARK    5  A    between atoms: C_16  and  C_17
REMARK                            x       y       z     vdW  Elec       q    Type
REMARK                         _______ _______ _______ _____ _____    ______ ____
ROOT
ATOM      1  C   UNL     1      44.246   4.082  10.493  0.00  0.00    +0.000 C 
ATOM      2  O   UNL     1      43.368   4.853  10.112  0.00  0.00    +0.000 OA
ATOM      3  N   UNL     1      44.737   4.113  11.774  0.00  0.00    +0.000 N 
ATOM      4  H   UNL     1      45.435   3.434  12.065  0.00  0.00    +0.000 HD
ENDROOT
BRANCH   1  11
ATOM      5  N   UNL     1      48.211   2.449   5.314  0.00  0.00    +0.000 N 
ATOM      6  C   UNL     1      47.395   2.644   6.382  0.00  0.00    +0.000 A 
ATOM      7  N   UNL     1      46.750   1.638   6.902  0.00  0.00    +0.000 NA
ATOM      8  C   UNL     1      45.970   1.978   7.953  0.00  0.00    +0.000 A 
ATOM      9  N   UNL     1      45.213   1.080   8.644  0.00  0.00    +0.000 N 
ATOM     10  C   UNL     1      44.527   1.743   9.628  0.00  0.00    +0.000 A 
ATOM     11  C   UNL     1      44.846   3.099   9.585  0.00  0.00    +0.000 A 
ATOM     12  C   UNL     1      45.784   3.222   8.514  0.00  0.00    +0.000 A 
ATOM     13  C   UNL     1      46.518   4.315   7.925  0.00  0.00    +0.000 A 
ATOM     14  O   UNL     1      46.467   5.474   8.329  0.00  0.00    +0.000 OA
ATOM     15  N   UNL     1      47.298   3.935   6.850  0.00  0.00    +0.000 N 
ATOM     16  H   UNL     1      48.067   1.538   4.886  0.00  0.00    +0.000 HD
ATOM     17  H   UNL     1      48.267   3.195   4.634  0.00  0.00    +0.000 HD
ATOM     18  H   UNL     1      45.172   0.091   8.444  0.00  0.00    +0.000 HD
ATOM     19  H   UNL     1      47.860   4.659   6.436  0.00  0.00    +0.000 HD
ENDBRANCH   1  11
BRANCH   3  20
ATOM     20  C   UNL     1      44.305   5.095  12.741  0.00  0.00    +0.000 C 
BRANCH  20  21
ATOM     21  C   UNL     1      45.287   6.218  12.902  0.00  0.00    +0.000 A 
ATOM     22  C   UNL     1      46.568   5.998  13.408  0.00  0.00    +0.000 A 
ATOM     23  C   UNL     1      47.457   7.062  13.538  0.00  0.00    +0.000 A 
ATOM     24  C   UNL     1      47.044   8.335  13.154  0.00  0.00    +0.000 A 
ATOM     25  N   UNL     1      45.803   8.578  12.662  0.00  0.00    +0.000 NA
ATOM     26  C   UNL     1      44.964   7.521  12.540  0.00  0.00    +0.000 A 
BRANCH  24  27
ATOM     27  C   UNL     1      48.017   9.496  13.187  0.00  0.00    +0.000 C 
BRANCH  27  28
ATOM     28  C   UNL     1      49.438   9.073  12.893  0.00  0.00    +0.000 A 
ATOM     29  C   UNL     1      50.387   9.025  13.921  0.00  0.00    +0.000 A 
ATOM     30  C   UNL     1      51.695   8.693  13.608  0.00  0.00    +0.000 A 
ATOM     31  N   UNL     1      52.114   8.391  12.361  0.00  0.00    +0.000 NA
ATOM     32  C   UNL     1      51.182   8.427  11.386  0.00  0.00    +0.000 A 
ATOM     33  C   UNL     1      49.850   8.754  11.596  0.00  0.00    +0.000 A 
ENDBRANCH  27  28
ENDBRANCH  24  27
ENDBRANCH  20  21
ENDBRANCH   3  20
TORSDOF 5
ENDMDL
