MODEL 1
REMARK VINA RESULT:    -8.175      0.000      0.000
REMARK INTER + INTRA:         -13.176
REMARK INTER:                 -11.998
REMARK INTRA:                  -1.177
REMARK UNBOUND:                -1.177
REMARK  Name = 
REMARK  9 active torsions:
REMARK  status: ('A' for Active; 'I' for Inactive)
REMARK    1  A    between atoms: C_1  and  O_2
REMARK    2  A    between atoms: O_2  and  C_3
REMARK    3  A    between atoms: C_10  and  C_11
REMARK    4  A    between atoms: N_13  and  C_14
REMARK    5  A    between atoms: C_14  and  C_15
REMARK    6  A    between atoms: C_18  and  C_19
REMARK    7  A    between atoms: C_19  and  O_20
REMARK    8  A    between atoms: O_20  and  C_21
REMARK    9  A    between atoms: C_21  and  C_22
REMARK                            x       y       z     vdW  Elec       q    Type
REMARK                         _______ _______ _______ _____ _____    ______ ____
ROOT
ATOM      1  C   UNL     1      48.017   6.706  13.329  0.00  0.00    +0.000 C 
ENDROOT
BRANCH   1   2
ATOM      2  C   UNL     1      46.819   6.013  12.736  0.00  0.00    +0.000 A 
ATOM      3  C   UNL     1      46.413   6.283  11.423  0.00  0.00    +0.000 A 
ATOM      4  C   UNL     1      45.354   5.575  10.849  0.00  0.00    +0.000 A 
ATOM      5  C   UNL     1      44.671   4.589  11.576  0.00  0.00    +0.000 A 
ATOM      6  C   UNL     1      45.044   4.358  12.907  0.00  0.00    +0.000 A 
ATOM      7  C   UNL     1      46.104   5.067  13.482  0.00  0.00    +0.000 A 
BRANCH   5   8
ATOM      8  C   UNL     1      43.579   3.777  10.927  0.00  0.00    +0.000 C 
BRANCH   8   9
ATOM      9  O   UNL     1      43.974   3.501   9.588  0.00  0.00    +0.000 OA
BRANCH   9  10
ATOM     10  C   UNL     1      44.554   2.201   9.452  0.00  0.00    +0.000 C 
BRANCH  10  11
ATOM     11  C   UNL     1      45.612   2.196   8.369  0.00  0.00    +0.000 A 
ATOM     12  C   UNL     1      45.856   3.338   7.606  0.00  0.00    +0.000 A 
ATOM     13  C   UNL     1      46.846   3.303   6.629  0.00  0.00    +0.000 A 
ATOM     14  C   UNL     1      47.578   2.138   6.445  0.00  0.00    +0.000 A 
ATOM     15  C   UNL     1      47.290   1.052   7.255  0.00  0.00    +0.000 A 
ATOM     16  N   UNL     1      46.334   1.056   8.212  0.00  0.00    +0.000 NA
ENDBRANCH  10  11
ENDBRANCH   9  10
ENDBRANCH   8   9
ENDBRANCH   5   8
ENDBRANCH   1   2
BRANCH   1  19
ATOM     17  C   UNL     1      49.114   6.890  15.503  0.00  0.00    +0.000 C 
ATOM     18  O   UNL     1      50.213   6.933  14.954  0.00  0.00    +0.000 OA
ATOM     19  N   UNL     1      47.964   6.763  14.767  0.00  0.00    +0.000 N 
ATOM     20  H   UNL     1      47.058   6.755  15.217  0.00  0.00    +0.000 HD
BRANCH  17  28
ATOM     21  C   UNL     1      48.887   4.549  18.025  0.00  0.00    +0.000 A 
ATOM     22  N   UNL     1      48.730   3.870  19.180  0.00  0.00    +0.000 NA
ATOM     23  C   UNL     1      48.601   4.571  20.309  0.00  0.00    +0.000 A 
ATOM     24  N   UNL     1      48.617   5.895  20.435  0.00  0.00    +0.000 NA
ATOM     25  C   UNL     1      48.758   6.532  19.261  0.00  0.00    +0.000 A 
ATOM     26  S   UNL     1      48.807   8.229  19.234  0.00  0.00    +0.000 S 
ATOM     27  C   UNL     1      48.973   8.244  17.545  0.00  0.00    +0.000 A 
ATOM     28  C   UNL     1      48.993   6.978  16.967  0.00  0.00    +0.000 A 
ATOM     29  C   UNL     1      48.884   5.954  18.001  0.00  0.00    +0.000 A 
BRANCH  21  31
ATOM     30  C   UNL     1      47.781   3.374  16.338  0.00  0.00    +0.000 C 
ATOM     31  O   UNL     1      49.030   3.824  16.860  0.00  0.00    +0.000 OA
ENDBRANCH  21  31
ENDBRANCH  17  28
ENDBRANCH   1  19
TORSDOF 8
ENDMDL
MODEL 2
REMARK VINA RESULT:    -7.720      1.550      2.632
REMARK INTER + INTRA:         -12.508
REMARK INTER:                 -11.407
REMARK INTRA:                  -1.101
REMARK UNBOUND:                -1.177
REMARK  Name = 
REMARK  9 active torsions:
REMARK  status: ('A' for Active; 'I' for Inactive)
REMARK    1  A    between atoms: C_1  and  O_2
REMARK    2  A    between atoms: O_2  and  C_3
REMARK    3  A    between atoms: C_10  and  C_11
REMARK    4  A    between atoms: N_13  and  C_14
REMARK    5  A    between atoms: C_14  and  C_15
REMARK    6  A    between atoms: C_18  and  C_19
REMARK    7  A    between atoms: C_19  and  O_20
REMARK    8  A    between atoms: O_20  and  C_21
REMARK    9  A    between atoms: C_21  and  C_22
REMARK                            x       y       z     vdW  Elec       q    Type
REMARK                         _______ _______ _______ _____ _____    ______ ____
ROOT
ATOM      1  C   UNL     1      48.126   6.432  13.967  0.00  0.00    +0.000 C 
ENDROOT
BRANCH   1   2
ATOM      2  C   UNL     1      47.068   5.691  13.194  0.00  0.00    +0.000 A 
ATOM      3  C   UNL     1      46.678   4.399  13.571  0.00  0.00    +0.000 A 
ATOM      4  C   UNL     1      45.636   3.749  12.905  0.00  0.00    +0.000 A 
ATOM      5  C   UNL     1      44.967   4.370  11.840  0.00  0.00    +0.000 A 
ATOM      6  C   UNL     1      45.393   5.640  11.430  0.00  0.00    +0.000 A 
ATOM      7  C   UNL     1      46.437   6.291  12.097  0.00  0.00    +0.000 A 
BRANCH   5   8
ATOM      8  C   UNL     1      43.795   3.695  11.174  0.00  0.00    +0.000 C 
BRANCH   8   9
ATOM      9  O   UNL     1      44.091   3.567   9.788  0.00  0.00    +0.000 OA
BRANCH   9  10
ATOM     10  C   UNL     1      44.450   2.229   9.431  0.00  0.00    +0.000 C 
BRANCH  10  11
ATOM     11  C   UNL     1      45.534   2.227   8.376  0.00  0.00    +0.000 A 
ATOM     12  C   UNL     1      45.811   3.377   7.636  0.00  0.00    +0.000 A 
ATOM     13  C   UNL     1      46.825   3.344   6.683  0.00  0.00    +0.000 A 
ATOM     14  C   UNL     1      47.547   2.173   6.501  0.00  0.00    +0.000 A 
ATOM     15  C   UNL     1      47.227   1.079   7.288  0.00  0.00    +0.000 A 
ATOM     16  N   UNL     1      46.248   1.080   8.220  0.00  0.00    +0.000 NA
ENDBRANCH  10  11
ENDBRANCH   9  10
ENDBRANCH   8   9
ENDBRANCH   5   8
ENDBRANCH   1   2
BRANCH   1  19
ATOM     17  C   UNL     1      48.922   6.311  16.272  0.00  0.00    +0.000 C 
ATOM     18  O   UNL     1      50.080   6.200  15.875  0.00  0.00    +0.000 OA
ATOM     19  N   UNL     1      47.881   6.418  15.386  0.00  0.00    +0.000 N 
ATOM     20  H   UNL     1      46.931   6.537  15.713  0.00  0.00    +0.000 HD
BRANCH  17  28
ATOM     21  C   UNL     1      47.709   8.732  18.407  0.00  0.00    +0.000 A 
ATOM     22  N   UNL     1      47.311   9.484  19.453  0.00  0.00    +0.000 NA
ATOM     23  C   UNL     1      47.282   8.916  20.661  0.00  0.00    +0.000 A 
ATOM     24  N   UNL     1      47.601   7.660  20.962  0.00  0.00    +0.000 NA
ATOM     25  C   UNL     1      48.006   6.951  19.895  0.00  0.00    +0.000 A 
ATOM     26  S   UNL     1      48.445   5.324  20.094  0.00  0.00    +0.000 S 
ATOM     27  C   UNL     1      48.810   5.172  18.443  0.00  0.00    +0.000 A 
ATOM     28  C   UNL     1      48.613   6.338  17.711  0.00  0.00    +0.000 A 
ATOM     29  C   UNL     1      48.112   7.398  18.581  0.00  0.00    +0.000 A 
BRANCH  21  31
ATOM     30  C   UNL     1      48.946  10.013  16.897  0.00  0.00    +0.000 C 
ATOM     31  O   UNL     1      47.728   9.318  17.157  0.00  0.00    +0.000 OA
ENDBRANCH  21  31
ENDBRANCH  17  28
ENDBRANCH   1  19
TORSDOF 8
ENDMDL
MODEL 3
REMARK VINA RESULT:    -6.992      1.870      2.682
REMARK INTER + INTRA:         -11.440
REMARK INTER:                 -10.452
REMARK INTRA:                  -0.988
REMARK UNBOUND:                -1.177
REMARK  Name = 
REMARK  9 active torsions:
REMARK  status: ('A' for Active; 'I' for Inactive)
REMARK    1  A    between atoms: C_1  and  O_2
REMARK    2  A    between atoms: O_2  and  C_3
REMARK    3  A    between atoms: C_10  and  C_11
REMARK    4  A    between atoms: N_13  and  C_14
REMARK    5  A    between atoms: C_14  and  C_15
REMARK    6  A    between atoms: C_18  and  C_19
REMARK    7  A    between atoms: C_19  and  O_20
REMARK    8  A    between atoms: O_20  and  C_21
REMARK    9  A    between atoms: C_21  and  C_22
REMARK                            x       y       z     vdW  Elec       q    Type
REMARK                         _______ _______ _______ _____ _____    ______ ____
ROOT
ATOM      1  C   UNL     1      47.169   4.001  15.400  0.00  0.00    +0.000 C 
ENDROOT
BRANCH   1   2
ATOM      2  C   UNL     1      46.718   4.492  14.050  0.00  0.00    +0.000 A 
ATOM      3  C   UNL     1      45.846   3.727  13.265  0.00  0.00    +0.000 A 
ATOM      4  C   UNL     1      45.363   4.225  12.052  0.00  0.00    +0.000 A 
ATOM      5  C   UNL     1      45.748   5.492  11.592  0.00  0.00    +0.000 A 
ATOM      6  C   UNL     1      46.661   6.233  12.352  0.00  0.00    +0.000 A 
ATOM      7  C   UNL     1      47.146   5.736  13.567  0.00  0.00    +0.000 A 
BRANCH   5   8
ATOM      8  C   UNL     1      45.165   6.054  10.320  0.00  0.00    +0.000 C 
BRANCH   8   9
ATOM      9  O   UNL     1      45.768   5.378   9.223  0.00  0.00    +0.000 OA
BRANCH   9  10
ATOM     10  C   UNL     1      44.965   4.295   8.746  0.00  0.00    +0.000 C 
BRANCH  10  11
ATOM     11  C   UNL     1      45.811   3.292   7.992  0.00  0.00    +0.000 A 
ATOM     12  C   UNL     1      45.919   1.973   8.434  0.00  0.00    +0.000 A 
ATOM     13  C   UNL     1      46.694   1.074   7.707  0.00  0.00    +0.000 A 
ATOM     14  C   UNL     1      47.331   1.505   6.552  0.00  0.00    +0.000 A 
ATOM     15  C   UNL     1      47.159   2.824   6.166  0.00  0.00    +0.000 A 
ATOM     16  N   UNL     1      46.414   3.721   6.851  0.00  0.00    +0.000 NA
ENDBRANCH  10  11
ENDBRANCH   9  10
ENDBRANCH   8   9
ENDBRANCH   5   8
ENDBRANCH   1   2
BRANCH   1  19
ATOM     17  C   UNL     1      47.586   5.148  17.516  0.00  0.00    +0.000 C 
ATOM     18  O   UNL     1      46.798   4.397  18.087  0.00  0.00    +0.000 OA
ATOM     19  N   UNL     1      47.821   5.029  16.170  0.00  0.00    +0.000 N 
ATOM     20  H   UNL     1      48.489   5.630  15.705  0.00  0.00    +0.000 HD
BRANCH  17  28
ATOM     21  C   UNL     1      50.914   5.999  17.809  0.00  0.00    +0.000 A 
ATOM     22  N   UNL     1      52.118   6.507  18.144  0.00  0.00    +0.000 NA
ATOM     23  C   UNL     1      52.152   7.535  18.996  0.00  0.00    +0.000 A 
ATOM     24  N   UNL     1      51.111   8.137  19.565  0.00  0.00    +0.000 NA
ATOM     25  C   UNL     1      49.934   7.590  19.218  0.00  0.00    +0.000 A 
ATOM     26  S   UNL     1      48.496   8.239  19.844  0.00  0.00    +0.000 S 
ATOM     27  C   UNL     1      47.561   7.090  19.016  0.00  0.00    +0.000 A 
ATOM     28  C   UNL     1      48.308   6.195  18.255  0.00  0.00    +0.000 A 
ATOM     29  C   UNL     1      49.729   6.510  18.363  0.00  0.00    +0.000 A 
BRANCH  21  31
ATOM     30  C   UNL     1      50.982   3.677  17.569  0.00  0.00    +0.000 C 
ATOM     31  O   UNL     1      50.880   4.944  16.920  0.00  0.00    +0.000 OA
ENDBRANCH  21  31
ENDBRANCH  17  28
ENDBRANCH   1  19
TORSDOF 8
ENDMDL
MODEL 4
REMARK VINA RESULT:    -6.797      4.443      9.318
REMARK INTER + INTRA:         -11.154
REMARK INTER:                 -10.138
REMARK INTRA:                  -1.016
REMARK UNBOUND:                -1.177
REMARK  Name = 
REMARK  9 active torsions:
REMARK  status: ('A' for Active; 'I' for Inactive)
REMARK    1  A    between atoms: C_1  and  O_2
REMARK    2  A    between atoms: O_2  and  C_3
REMARK    3  A    between atoms: C_10  and  C_11
REMARK    4  A    between atoms: N_13  and  C_14
REMARK    5  A    between atoms: C_14  and  C_15
REMARK    6  A    between atoms: C_18  and  C_19
REMARK    7  A    between atoms: C_19  and  O_20
REMARK    8  A    between atoms: O_20  and  C_21
REMARK    9  A    between atoms: C_21  and  C_22
REMARK                            x       y       z     vdW  Elec       q    Type
REMARK                         _______ _______ _______ _____ _____    ______ ____
ROOT
ATOM      1  C   UNL     1      47.259   3.362  16.651  0.00  0.00    +0.000 C 
ENDROOT
BRANCH   1   2
ATOM      2  C   UNL     1      48.689   3.501  17.098  0.00  0.00    +0.000 A 
ATOM      3  C   UNL     1      49.548   2.394  17.108  0.00  0.00    +0.000 A 
ATOM      4  C   UNL     1      50.896   2.545  17.441  0.00  0.00    +0.000 A 
ATOM      5  C   UNL     1      51.415   3.802  17.783  0.00  0.00    +0.000 A 
ATOM      6  C   UNL     1      50.544   4.899  17.824  0.00  0.00    +0.000 A 
ATOM      7  C   UNL     1      49.193   4.748  17.491  0.00  0.00    +0.000 A 
BRANCH   5   8
ATOM      8  C   UNL     1      52.886   3.972  18.069  0.00  0.00    +0.000 C 
BRANCH   8   9
ATOM      9  O   UNL     1      53.225   3.114  19.152  0.00  0.00    +0.000 OA
BRANCH   9  10
ATOM     10  C   UNL     1      54.567   2.630  19.060  0.00  0.00    +0.000 C 
BRANCH  10  11
ATOM     11  C   UNL     1      54.612   1.311  18.317  0.00  0.00    +0.000 A 
ATOM     12  C   UNL     1      55.002   1.260  16.979  0.00  0.00    +0.000 A 
ATOM     13  C   UNL     1      55.045   0.029  16.331  0.00  0.00    +0.000 A 
ATOM     14  C   UNL     1      54.713  -1.120  17.034  0.00  0.00    +0.000 A 
ATOM     15  C   UNL     1      54.355  -0.990  18.365  0.00  0.00    +0.000 A 
ATOM     16  N   UNL     1      54.303   0.191  19.022  0.00  0.00    +0.000 NA
ENDBRANCH  10  11
ENDBRANCH   9  10
ENDBRANCH   8   9
ENDBRANCH   5   8
ENDBRANCH   1   2
BRANCH   1  19
ATOM     17  C   UNL     1      46.847   4.274  14.423  0.00  0.00    +0.000 C 
ATOM     18  O   UNL     1      47.221   3.220  13.914  0.00  0.00    +0.000 OA
ATOM     19  N   UNL     1      46.846   4.436  15.784  0.00  0.00    +0.000 N 
ATOM     20  H   UNL     1      46.513   5.293  16.205  0.00  0.00    +0.000 HD
BRANCH  17  28
ATOM     21  C   UNL     1      43.947   4.897  12.665  0.00  0.00    +0.000 A 
ATOM     22  N   UNL     1      42.969   5.367  11.864  0.00  0.00    +0.000 NA
ATOM     23  C   UNL     1      43.156   6.549  11.271  0.00  0.00    +0.000 A 
ATOM     24  N   UNL     1      44.217   7.342  11.384  0.00  0.00    +0.000 NA
ATOM     25  C   UNL     1      45.173   6.829  12.177  0.00  0.00    +0.000 A 
ATOM     26  S   UNL     1      46.598   7.712  12.443  0.00  0.00    +0.000 S 
ATOM     27  C   UNL     1      47.226   6.490  13.440  0.00  0.00    +0.000 A 
ATOM     28  C   UNL     1      46.381   5.395  13.592  0.00  0.00    +0.000 A 
ATOM     29  C   UNL     1      45.143   5.610  12.850  0.00  0.00    +0.000 A 
BRANCH  21  31
ATOM     30  C   UNL     1      43.598   2.609  12.356  0.00  0.00    +0.000 C 
ATOM     31  O   UNL     1      43.747   3.681  13.287  0.00  0.00    +0.000 OA
ENDBRANCH  21  31
ENDBRANCH  17  28
ENDBRANCH   1  19
TORSDOF 8
ENDMDL
MODEL 5
REMARK VINA RESULT:    -6.554      3.981      9.037
REMARK INTER + INTRA:         -10.797
REMARK INTER:                  -9.553
REMARK INTRA:                  -1.244
REMARK UNBOUND:                -1.177
REMARK  Name = 
REMARK  9 active torsions:
REMARK  status: ('A' for Active; 'I' for Inactive)
REMARK    1  A    between atoms: C_1  and  O_2
REMARK    2  A    between atoms: O_2  and  C_3
REMARK    3  A    between atoms: C_10  and  C_11
REMARK    4  A    between atoms: N_13  and  C_14
REMARK    5  A    between atoms: C_14  and  C_15
REMARK    6  A    between atoms: C_18  and  C_19
REMARK    7  A    between atoms: C_19  and  O_20
REMARK    8  A    between atoms: O_20  and  C_21
REMARK    9  A    between atoms: C_21  and  C_22
REMARK                            x       y       z     vdW  Elec       q    Type
REMARK                         _______ _______ _______ _____ _____    ______ ____
ROOT
ATOM      1  C   UNL     1      47.353   3.455  16.791  0.00  0.00    +0.000 C 
ENDROOT
BRANCH   1   2
ATOM      2  C   UNL     1      48.827   3.346  17.075  0.00  0.00    +0.000 A 
ATOM      3  C   UNL     1      49.565   4.467  17.475  0.00  0.00    +0.000 A 
ATOM      4  C   UNL     1      50.913   4.343  17.821  0.00  0.00    +0.000 A 
ATOM      5  C   UNL     1      51.557   3.098  17.765  0.00  0.00    +0.000 A 
ATOM      6  C   UNL     1      50.832   1.988  17.314  0.00  0.00    +0.000 A 
ATOM      7  C   UNL     1      49.482   2.112  16.967  0.00  0.00    +0.000 A 
BRANCH   5   8
ATOM      8  C   UNL     1      52.990   2.957  18.211  0.00  0.00    +0.000 C 
BRANCH   8   9
ATOM      9  O   UNL     1      53.366   4.160  18.871  0.00  0.00    +0.000 OA
BRANCH   9  10
ATOM     10  C   UNL     1      54.685   4.584  18.516  0.00  0.00    +0.000 C 
BRANCH  10  11
ATOM     11  C   UNL     1      54.681   5.278  17.170  0.00  0.00    +0.000 A 
ATOM     12  C   UNL     1      53.816   6.343  16.920  0.00  0.00    +0.000 A 
ATOM     13  C   UNL     1      53.850   6.967  15.676  0.00  0.00    +0.000 A 
ATOM     14  C   UNL     1      54.752   6.525  14.719  0.00  0.00    +0.000 A 
ATOM     15  C   UNL     1      55.592   5.475  15.050  0.00  0.00    +0.000 A 
ATOM     16  N   UNL     1      55.583   4.849  16.248  0.00  0.00    +0.000 NA
ENDBRANCH  10  11
ENDBRANCH   9  10
ENDBRANCH   8   9
ENDBRANCH   5   8
ENDBRANCH   1   2
BRANCH   1  19
ATOM     17  C   UNL     1      46.974   4.305  14.533  0.00  0.00    +0.000 C 
ATOM     18  O   UNL     1      47.192   3.189  14.067  0.00  0.00    +0.000 OA
ATOM     19  N   UNL     1      47.046   4.531  15.883  0.00  0.00    +0.000 N 
ATOM     20  H   UNL     1      46.841   5.443  16.269  0.00  0.00    +0.000 HD
BRANCH  17  28
ATOM     21  C   UNL     1      44.168   5.125  12.704  0.00  0.00    +0.000 A 
ATOM     22  N   UNL     1      43.249   5.653  11.871  0.00  0.00    +0.000 NA
ATOM     23  C   UNL     1      43.548   6.794  11.245  0.00  0.00    +0.000 A 
ATOM     24  N   UNL     1      44.674   7.494  11.354  0.00  0.00    +0.000 NA
ATOM     25  C   UNL     1      45.568   6.925  12.180  0.00  0.00    +0.000 A 
ATOM     26  S   UNL     1      47.061   7.688  12.445  0.00  0.00    +0.000 S 
ATOM     27  C   UNL     1      47.563   6.447  13.490  0.00  0.00    +0.000 A 
ATOM     28  C   UNL     1      46.622   5.436  13.659  0.00  0.00    +0.000 A 
ATOM     29  C   UNL     1      45.420   5.735  12.888  0.00  0.00    +0.000 A 
BRANCH  21  31
ATOM     30  C   UNL     1      43.669   2.857  12.461  0.00  0.00    +0.000 C 
ATOM     31  O   UNL     1      43.853   3.951  13.358  0.00  0.00    +0.000 OA
ENDBRANCH  21  31
ENDBRANCH  17  28
ENDBRANCH   1  19
TORSDOF 8
ENDMDL
MODEL 6
REMARK VINA RESULT:    -6.498      2.720      3.865
REMARK INTER + INTRA:         -10.714
REMARK INTER:                  -9.778
REMARK INTRA:                  -0.936
REMARK UNBOUND:                -1.177
REMARK  Name = 
REMARK  9 active torsions:
REMARK  status: ('A' for Active; 'I' for Inactive)
REMARK    1  A    between atoms: C_1  and  O_2
REMARK    2  A    between atoms: O_2  and  C_3
REMARK    3  A    between atoms: C_10  and  C_11
REMARK    4  A    between atoms: N_13  and  C_14
REMARK    5  A    between atoms: C_14  and  C_15
REMARK    6  A    between atoms: C_18  and  C_19
REMARK    7  A    between atoms: C_19  and  O_20
REMARK    8  A    between atoms: O_20  and  C_21
REMARK    9  A    between atoms: C_21  and  C_22
REMARK                            x       y       z     vdW  Elec       q    Type
REMARK                         _______ _______ _______ _____ _____    ______ ____
ROOT
ATOM      1  C   UNL     1      47.199   7.943  12.411  0.00  0.00    +0.000 C 
ENDROOT
BRANCH   1   2
ATOM      2  C   UNL     1      46.266   6.781  12.194  0.00  0.00    +0.000 A 
ATOM      3  C   UNL     1      45.115   6.924  11.409  0.00  0.00    +0.000 A 
ATOM      4  C   UNL     1      44.299   5.822  11.139  0.00  0.00    +0.000 A 
ATOM      5  C   UNL     1      44.609   4.556  11.656  0.00  0.00    +0.000 A 
ATOM      6  C   UNL     1      45.732   4.426  12.485  0.00  0.00    +0.000 A 
ATOM      7  C   UNL     1      46.549   5.529  12.755  0.00  0.00    +0.000 A 
BRANCH   5   8
ATOM      8  C   UNL     1      43.767   3.356  11.301  0.00  0.00    +0.000 C 
BRANCH   8   9
ATOM      9  O   UNL     1      44.490   2.575  10.357  0.00  0.00    +0.000 OA
BRANCH   9  10
ATOM     10  C   UNL     1      44.429   3.125   9.039  0.00  0.00    +0.000 C 
BRANCH  10  11
ATOM     11  C   UNL     1      45.556   2.588   8.181  0.00  0.00    +0.000 A 
ATOM     12  C   UNL     1      46.176   3.397   7.230  0.00  0.00    +0.000 A 
ATOM     13  C   UNL     1      47.218   2.875   6.469  0.00  0.00    +0.000 A 
ATOM     14  C   UNL     1      47.625   1.566   6.683  0.00  0.00    +0.000 A 
ATOM     15  C   UNL     1      46.974   0.832   7.660  0.00  0.00    +0.000 A 
ATOM     16  N   UNL     1      45.958   1.310   8.414  0.00  0.00    +0.000 NA
ENDBRANCH  10  11
ENDBRANCH   9  10
ENDBRANCH   8   9
ENDBRANCH   5   8
ENDBRANCH   1   2
BRANCH   1  19
ATOM     17  C   UNL     1      48.586   8.019  14.419  0.00  0.00    +0.000 C 
ATOM     18  O   UNL     1      47.776   8.768  14.960  0.00  0.00    +0.000 OA
ATOM     19  N   UNL     1      48.384   7.570  13.140  0.00  0.00    +0.000 N 
ATOM     20  H   UNL     1      49.037   6.932  12.703  0.00  0.00    +0.000 HD
BRANCH  17  28
ATOM     21  C   UNL     1      51.963   8.434  13.857  0.00  0.00    +0.000 A 
ATOM     22  N   UNL     1      53.311   8.390  13.852  0.00  0.00    +0.000 NA
ATOM     23  C   UNL     1      53.923   7.713  14.827  0.00  0.00    +0.000 A 
ATOM     24  N   UNL     1      53.345   7.065  15.835  0.00  0.00    +0.000 NA
ATOM     25  C   UNL     1      52.004   7.120  15.794  0.00  0.00    +0.000 A 
ATOM     26  S   UNL     1      51.100   6.353  17.009  0.00  0.00    +0.000 S 
ATOM     27  C   UNL     1      49.639   6.832  16.291  0.00  0.00    +0.000 A 
ATOM     28  C   UNL     1      49.798   7.575  15.125  0.00  0.00    +0.000 A 
ATOM     29  C   UNL     1      51.217   7.762  14.841  0.00  0.00    +0.000 A 
BRANCH  21  31
ATOM     30  C   UNL     1      51.888  10.444  12.674  0.00  0.00    +0.000 C 
ATOM     31  O   UNL     1      51.333   9.143  12.855  0.00  0.00    +0.000 OA
ENDBRANCH  21  31
ENDBRANCH  17  28
ENDBRANCH   1  19
TORSDOF 8
ENDMDL
MODEL 7
REMARK VINA RESULT:    -6.326      3.311      8.362
REMARK INTER + INTRA:         -10.462
REMARK INTER:                  -8.991
REMARK INTRA:                  -1.471
REMARK UNBOUND:                -1.177
REMARK  Name = 
REMARK  9 active torsions:
REMARK  status: ('A' for Active; 'I' for Inactive)
REMARK    1  A    between atoms: C_1  and  O_2
REMARK    2  A    between atoms: O_2  and  C_3
REMARK    3  A    between atoms: C_10  and  C_11
REMARK    4  A    between atoms: N_13  and  C_14
REMARK    5  A    between atoms: C_14  and  C_15
REMARK    6  A    between atoms: C_18  and  C_19
REMARK    7  A    between atoms: C_19  and  O_20
REMARK    8  A    between atoms: O_20  and  C_21
REMARK    9  A    between atoms: C_21  and  C_22
REMARK                            x       y       z     vdW  Elec       q    Type
REMARK                         _______ _______ _______ _____ _____    ______ ____
ROOT
ATOM      1  C   UNL     1      48.324   8.026  11.833  0.00  0.00    +0.000 C 
ENDROOT
BRANCH   1   2
ATOM      2  C   UNL     1      48.589   7.982  13.314  0.00  0.00    +0.000 A 
ATOM      3  C   UNL     1      49.726   7.339  13.819  0.00  0.00    +0.000 A 
ATOM      4  C   UNL     1      50.013   7.375  15.187  0.00  0.00    +0.000 A 
ATOM      5  C   UNL     1      49.164   8.045  16.080  0.00  0.00    +0.000 A 
ATOM      6  C   UNL     1      48.000   8.642  15.581  0.00  0.00    +0.000 A 
ATOM      7  C   UNL     1      47.713   8.606  14.212  0.00  0.00    +0.000 A 
BRANCH   5   8
ATOM      8  C   UNL     1      49.518   8.143  17.543  0.00  0.00    +0.000 C 
BRANCH   8   9
ATOM      9  O   UNL     1      48.560   7.391  18.279  0.00  0.00    +0.000 OA
BRANCH   9  10
ATOM     10  C   UNL     1      49.145   6.262  18.933  0.00  0.00    +0.000 C 
BRANCH  10  11
ATOM     11  C   UNL     1      48.807   4.982  18.198  0.00  0.00    +0.000 A 
ATOM     12  C   UNL     1      49.796   4.041  17.914  0.00  0.00    +0.000 A 
ATOM     13  C   UNL     1      49.448   2.869  17.250  0.00  0.00    +0.000 A 
ATOM     14  C   UNL     1      48.122   2.657  16.897  0.00  0.00    +0.000 A 
ATOM     15  C   UNL     1      47.195   3.629  17.232  0.00  0.00    +0.000 A 
ATOM     16  N   UNL     1      47.502   4.777  17.876  0.00  0.00    +0.000 NA
ENDBRANCH  10  11
ENDBRANCH   9  10
ENDBRANCH   8   9
ENDBRANCH   5   8
ENDBRANCH   1   2
BRANCH   1  19
ATOM     17  C   UNL     1      46.256   6.898  11.190  0.00  0.00    +0.000 C 
ATOM     18  O   UNL     1      45.613   7.913  11.449  0.00  0.00    +0.000 OA
ATOM     19  N   UNL     1      47.615   6.863  11.366  0.00  0.00    +0.000 N 
ATOM     20  H   UNL     1      48.148   6.037  11.127  0.00  0.00    +0.000 HD
BRANCH  17  28
ATOM     21  C   UNL     1      44.456   4.354  12.666  0.00  0.00    +0.000 A 
ATOM     22  N   UNL     1      43.780   3.230  12.976  0.00  0.00    +0.000 NA
ATOM     23  C   UNL     1      43.466   2.390  11.986  0.00  0.00    +0.000 A 
ATOM     24  N   UNL     1      43.744   2.539  10.694  0.00  0.00    +0.000 NA
ATOM     25  C   UNL     1      44.431   3.662  10.430  0.00  0.00    +0.000 A 
ATOM     26  S   UNL     1      44.864   4.019   8.828  0.00  0.00    +0.000 S 
ATOM     27  C   UNL     1      45.641   5.450   9.306  0.00  0.00    +0.000 A 
ATOM     28  C   UNL     1      45.592   5.689  10.677  0.00  0.00    +0.000 A 
ATOM     29  C   UNL     1      44.850   4.626  11.345  0.00  0.00    +0.000 A 
BRANCH  21  31
ATOM     30  C   UNL     1      46.095   5.039  14.180  0.00  0.00    +0.000 C 
ATOM     31  O   UNL     1      44.769   5.227  13.689  0.00  0.00    +0.000 OA
ENDBRANCH  21  31
ENDBRANCH  17  28
ENDBRANCH   1  19
TORSDOF 8
ENDMDL
MODEL 8
REMARK VINA RESULT:    -6.158      3.745      8.162
REMARK INTER + INTRA:         -10.216
REMARK INTER:                  -8.637
REMARK INTRA:                  -1.579
REMARK UNBOUND:                -1.177
REMARK  Name = 
REMARK  9 active torsions:
REMARK  status: ('A' for Active; 'I' for Inactive)
REMARK    1  A    between atoms: C_1  and  O_2
REMARK    2  A    between atoms: O_2  and  C_3
REMARK    3  A    between atoms: C_10  and  C_11
REMARK    4  A    between atoms: N_13  and  C_14
REMARK    5  A    between atoms: C_14  and  C_15
REMARK    6  A    between atoms: C_18  and  C_19
REMARK    7  A    between atoms: C_19  and  O_20
REMARK    8  A    between atoms: O_20  and  C_21
REMARK    9  A    between atoms: C_21  and  C_22
REMARK                            x       y       z     vdW  Elec       q    Type
REMARK                         _______ _______ _______ _____ _____    ______ ____
ROOT
ATOM      1  C   UNL     1      47.864   9.006  13.826  0.00  0.00    +0.000 C 
ENDROOT
BRANCH   1   2
ATOM      2  C   UNL     1      48.479   8.459  15.086  0.00  0.00    +0.000 A 
ATOM      3  C   UNL     1      49.364   7.374  15.038  0.00  0.00    +0.000 A 
ATOM      4  C   UNL     1      50.000   6.926  16.199  0.00  0.00    +0.000 A 
ATOM      5  C   UNL     1      49.757   7.543  17.435  0.00  0.00    +0.000 A 
ATOM      6  C   UNL     1      48.831   8.594  17.490  0.00  0.00    +0.000 A 
ATOM      7  C   UNL     1      48.195   9.043  16.328  0.00  0.00    +0.000 A 
BRANCH   5   8
ATOM      8  C   UNL     1      50.501   7.103  18.670  0.00  0.00    +0.000 C 
BRANCH   8   9
ATOM      9  O   UNL     1      51.293   5.972  18.327  0.00  0.00    +0.000 OA
BRANCH   9  10
ATOM     10  C   UNL     1      50.946   4.815  19.092  0.00  0.00    +0.000 C 
BRANCH  10  11
ATOM     11  C   UNL     1      50.150   3.837  18.255  0.00  0.00    +0.000 A 
ATOM     12  C   UNL     1      48.758   3.801  18.330  0.00  0.00    +0.000 A 
ATOM     13  C   UNL     1      48.057   2.899  17.535  0.00  0.00    +0.000 A 
ATOM     14  C   UNL     1      48.758   2.066  16.675  0.00  0.00    +0.000 A 
ATOM     15  C   UNL     1      50.138   2.176  16.641  0.00  0.00    +0.000 A 
ATOM     16  N   UNL     1      50.846   3.040  17.401  0.00  0.00    +0.000 NA
ENDBRANCH  10  11
ENDBRANCH   9  10
ENDBRANCH   8   9
ENDBRANCH   5   8
ENDBRANCH   1   2
BRANCH   1  19
ATOM     17  C   UNL     1      46.690   7.376  12.437  0.00  0.00    +0.000 C 
ATOM     18  O   UNL     1      47.726   7.146  11.817  0.00  0.00    +0.000 OA
ATOM     19  N   UNL     1      46.666   8.301  13.448  0.00  0.00    +0.000 N 
ATOM     20  H   UNL     1      45.820   8.472  13.976  0.00  0.00    +0.000 HD
BRANCH  17  28
ATOM     21  C   UNL     1      45.660   4.103  12.776  0.00  0.00    +0.000 A 
ATOM     22  N   UNL     1      45.027   2.912  12.740  0.00  0.00    +0.000 NA
ATOM     23  C   UNL     1      43.792   2.870  12.234  0.00  0.00    +0.000 A 
ATOM     24  N   UNL     1      43.090   3.892  11.754  0.00  0.00    +0.000 NA
ATOM     25  C   UNL     1      43.761   5.055  11.793  0.00  0.00    +0.000 A 
ATOM     26  S   UNL     1      43.013   6.470  11.227  0.00  0.00    +0.000 S 
ATOM     27  C   UNL     1      44.392   7.396  11.575  0.00  0.00    +0.000 A 
ATOM     28  C   UNL     1      45.442   6.663  12.120  0.00  0.00    +0.000 A 
ATOM     29  C   UNL     1      45.054   5.264  12.268  0.00  0.00    +0.000 A 
BRANCH  21  31
ATOM     30  C   UNL     1      46.939   4.570  14.672  0.00  0.00    +0.000 C 
ATOM     31  O   UNL     1      46.932   4.147  13.310  0.00  0.00    +0.000 OA
ENDBRANCH  21  31
ENDBRANCH  17  28
ENDBRANCH   1  19
TORSDOF 8
ENDMDL
MODEL 9
REMARK VINA RESULT:    -5.813      3.949      9.269
REMARK INTER + INTRA:          -9.709
REMARK INTER:                  -8.076
REMARK INTRA:                  -1.633
REMARK UNBOUND:                -1.177
REMARK  Name = 
REMARK  9 active torsions:
REMARK  status: ('A' for Active; 'I' for Inactive)
REMARK    1  A    between atoms: C_1  and  O_2
REMARK    2  A    between atoms: O_2  and  C_3
REMARK    3  A    between atoms: C_10  and  C_11
REMARK    4  A    between atoms: N_13  and  C_14
REMARK    5  A    between atoms: C_14  and  C_15
REMARK    6  A    between atoms: C_18  and  C_19
REMARK    7  A    between atoms: C_19  and  O_20
REMARK    8  A    between atoms: O_20  and  C_21
REMARK    9  A    between atoms: C_21  and  C_22
REMARK                            x       y       z     vdW  Elec       q    Type
REMARK                         _______ _______ _______ _____ _____    ______ ____
ROOT
ATOM      1  C   UNL     1      47.496   3.665  15.747  0.00  0.00    +0.000 C 
ENDROOT
BRANCH   1   2
ATOM      2  C   UNL     1      48.074   4.368  16.946  0.00  0.00    +0.000 A 
ATOM      3  C   UNL     1      48.358   5.739  16.903  0.00  0.00    +0.000 A 
ATOM      4  C   UNL     1      48.814   6.405  18.045  0.00  0.00    +0.000 A 
ATOM      5  C   UNL     1      49.006   5.714  19.250  0.00  0.00    +0.000 A 
ATOM      6  C   UNL     1      48.773   4.332  19.276  0.00  0.00    +0.000 A 
ATOM      7  C   UNL     1      48.317   3.666  18.134  0.00  0.00    +0.000 A 
BRANCH   5   8
ATOM      8  C   UNL     1      49.427   6.451  20.496  0.00  0.00    +0.000 C 
BRANCH   8   9
ATOM      9  O   UNL     1      50.555   7.255  20.173  0.00  0.00    +0.000 OA
BRANCH   9  10
ATOM     10  C   UNL     1      51.782   6.674  20.624  0.00  0.00    +0.000 C 
BRANCH  10  11
ATOM     11  C   UNL     1      52.287   5.649  19.631  0.00  0.00    +0.000 A 
ATOM     12  C   UNL     1      52.503   5.995  18.297  0.00  0.00    +0.000 A 
ATOM     13  C   UNL     1      52.982   5.031  17.414  0.00  0.00    +0.000 A 
ATOM     14  C   UNL     1      53.248   3.753  17.884  0.00  0.00    +0.000 A 
ATOM     15  C   UNL     1      53.028   3.492  19.226  0.00  0.00    +0.000 A 
ATOM     16  N   UNL     1      52.563   4.406  20.107  0.00  0.00    +0.000 NA
ENDBRANCH  10  11
ENDBRANCH   9  10
ENDBRANCH   8   9
ENDBRANCH   5   8
ENDBRANCH   1   2
BRANCH   1  19
ATOM     17  C   UNL     1      46.240   4.117  13.702  0.00  0.00    +0.000 C 
ATOM     18  O   UNL     1      46.467   2.978  13.301  0.00  0.00    +0.000 OA
ATOM     19  N   UNL     1      46.727   4.549  14.908  0.00  0.00    +0.000 N 
ATOM     20  H   UNL     1      46.518   5.477  15.251  0.00  0.00    +0.000 HD
BRANCH  17  28
ATOM     21  C   UNL     1      46.537   7.465  12.932  0.00  0.00    +0.000 A 
ATOM     22  N   UNL     1      46.375   8.741  12.528  0.00  0.00    +0.000 NA
ATOM     23  C   UNL     1      45.301   9.037  11.792  0.00  0.00    +0.000 A 
ATOM     24  N   UNL     1      44.348   8.198  11.394  0.00  0.00    +0.000 NA
ATOM     25  C   UNL     1      44.539   6.942  11.831  0.00  0.00    +0.000 A 
ATOM     26  S   UNL     1      43.422   5.735  11.411  0.00  0.00    +0.000 S 
ATOM     27  C   UNL     1      44.289   4.564  12.281  0.00  0.00    +0.000 A 
ATOM     28  C   UNL     1      45.432   5.054  12.906  0.00  0.00    +0.000 A 
ATOM     29  C   UNL     1      45.589   6.476  12.618  0.00  0.00    +0.000 A 
BRANCH  21  31
ATOM     30  C   UNL     1      48.817   6.969  12.879  0.00  0.00    +0.000 C 
ATOM     31  O   UNL     1      47.654   7.158  13.683  0.00  0.00    +0.000 OA
ENDBRANCH  21  31
ENDBRANCH  17  28
ENDBRANCH   1  19
TORSDOF 8
ENDMDL
