MODEL 1
REMARK VINA RESULT:    -8.658      0.000      0.000
REMARK INTER + INTRA:         -13.676
REMARK INTER:                 -12.201
REMARK INTRA:                  -1.475
REMARK UNBOUND:                -1.475
REMARK  Name = 
REMARK  8 active torsions:
REMARK  status: ('A' for Active; 'I' for Inactive)
REMARK    1  A    between atoms: C_1  and  C_2
REMARK    2  A    between atoms: C_2  and  N_3
REMARK    3  A    between atoms: C_2  and  C_25
REMARK    4  A    between atoms: N_3  and  C_4
REMARK    5  A    between atoms: C_4  and  C_5
REMARK    6  A    between atoms: C_8  and  C_9
REMARK    7  A    between atoms: C_9  and  N_10
REMARK    8  A    between atoms: C_11  and  C_13
REMARK                            x       y       z     vdW  Elec       q    Type
REMARK                         _______ _______ _______ _____ _____    ______ ____
ROOT
ATOM      1  C   UNL     1      44.563   5.685  10.952  0.00  0.00    +0.000 A 
ATOM      2  C   UNL     1      44.072   6.404  12.050  0.00  0.00    +0.000 A 
ATOM      3  C   UNL     1      44.922   7.206  12.820  0.00  0.00    +0.000 A 
ATOM      4  C   UNL     1      46.283   7.305  12.508  0.00  0.00    +0.000 A 
ATOM      5  C   UNL     1      46.782   6.569  11.427  0.00  0.00    +0.000 A 
ATOM      6  C   UNL     1      45.931   5.775  10.651  0.00  0.00    +0.000 A 
ENDROOT
BRANCH   1   7
ATOM      7  C   UNL     1      43.657   4.788  10.130  0.00  0.00    +0.000 C 
BRANCH   7   8
ATOM      8  N   UNL     1      44.280   4.387   8.872  0.00  0.00    +0.000 NA
ATOM      9  H   UNL     1      43.723   4.744   8.095  0.00  0.00    +0.000 HD
BRANCH   8  11
ATOM     10  C   UNL     1      44.491   2.179  10.036  0.00  0.00    +0.000 C 
ATOM     11  C   UNL     1      44.399   2.929   8.701  0.00  0.00    +0.000 C 
BRANCH  11  12
ATOM     12  C   UNL     1      45.627   2.628   7.850  0.00  0.00    +0.000 A 
ATOM     13  C   UNL     1      46.364   1.449   8.038  0.00  0.00    +0.000 A 
ATOM     14  C   UNL     1      47.464   1.161   7.224  0.00  0.00    +0.000 A 
ATOM     15  C   UNL     1      47.841   2.048   6.216  0.00  0.00    +0.000 A 
ATOM     16  C   UNL     1      47.127   3.228   6.026  0.00  0.00    +0.000 A 
ATOM     17  C   UNL     1      46.029   3.515   6.836  0.00  0.00    +0.000 A 
ENDBRANCH  11  12
ENDBRANCH   8  11
ENDBRANCH   7   8
ENDBRANCH   1   7
BRANCH   4  18
ATOM     18  C   UNL     1      47.212   8.134  13.358  0.00  0.00    +0.000 C 
BRANCH  18  19
ATOM     19  N   UNL     1      47.592   7.413  14.544  0.00  0.00    +0.000 N 
ATOM     20  C   UNL     1      48.840   6.865  14.683  0.00  0.00    +0.000 C 
ATOM     21  O   UNL     1      49.707   6.990  13.821  0.00  0.00    +0.000 OA
ATOM     22  H   UNL     1      46.842   7.109  15.156  0.00  0.00    +0.000 HD
BRANCH  20  23
ATOM     23  C   UNL     1      49.114   6.179  15.952  0.00  0.00    +0.000 A 
ATOM     24  C   UNL     1      50.156   6.617  16.758  0.00  0.00    +0.000 A 
ATOM     25  S   UNL     1      50.290   5.761  18.228  0.00  0.00    +0.000 S 
ATOM     26  C   UNL     1      48.996   4.737  17.812  0.00  0.00    +0.000 A 
ATOM     27  N   UNL     1      48.595   3.744  18.650  0.00  0.00    +0.000 NA
ATOM     28  C   UNL     1      47.622   3.024  18.197  0.00  0.00    +0.000 A 
ATOM     29  N   UNL     1      47.016   3.208  16.983  0.00  0.00    +0.000 N 
ATOM     30  C   UNL     1      47.367   4.214  16.116  0.00  0.00    +0.000 A 
ATOM     31  O   UNL     1      46.779   4.373  15.053  0.00  0.00    +0.000 OA
ATOM     32  C   UNL     1      48.461   5.052  16.576  0.00  0.00    +0.000 A 
ATOM     33  H   UNL     1      46.258   2.610  16.686  0.00  0.00    +0.000 HD
ENDBRANCH  20  23
ENDBRANCH  18  19
ENDBRANCH   4  18
TORSDOF 7
ENDMDL
MODEL 2
REMARK VINA RESULT:    -7.903      1.971      2.302
REMARK INTER + INTRA:         -12.611
REMARK INTER:                 -11.472
REMARK INTRA:                  -1.140
REMARK UNBOUND:                -1.475
REMARK  Name = 
REMARK  8 active torsions:
REMARK  status: ('A' for Active; 'I' for Inactive)
REMARK    1  A    between atoms: C_1  and  C_2
REMARK    2  A    between atoms: C_2  and  N_3
REMARK    3  A    between atoms: C_2  and  C_25
REMARK    4  A    between atoms: N_3  and  C_4
REMARK    5  A    between atoms: C_4  and  C_5
REMARK    6  A    between atoms: C_8  and  C_9
REMARK    7  A    between atoms: C_9  and  N_10
REMARK    8  A    between atoms: C_11  and  C_13
REMARK                            x       y       z     vdW  Elec       q    Type
REMARK                         _______ _______ _______ _____ _____    ______ ____
ROOT
ATOM      1  C   UNL     1      45.721   5.607  11.741  0.00  0.00    +0.000 A 
ATOM      2  C   UNL     1      45.984   4.967  12.960  0.00  0.00    +0.000 A 
ATOM      3  C   UNL     1      47.022   5.405  13.791  0.00  0.00    +0.000 A 
ATOM      4  C   UNL     1      47.820   6.494  13.418  0.00  0.00    +0.000 A 
ATOM      5  C   UNL     1      47.576   7.120  12.190  0.00  0.00    +0.000 A 
ATOM      6  C   UNL     1      46.533   6.688  11.364  0.00  0.00    +0.000 A 
ENDROOT
BRANCH   1   7
ATOM      7  C   UNL     1      44.620   5.121  10.819  0.00  0.00    +0.000 C 
BRANCH   7   8
ATOM      8  N   UNL     1      45.125   4.794   9.488  0.00  0.00    +0.000 NA
ATOM      9  H   UNL     1      44.863   5.536   8.839  0.00  0.00    +0.000 HD
BRANCH   8  11
ATOM     10  C   UNL     1      44.200   2.532  10.042  0.00  0.00    +0.000 C 
ATOM     11  C   UNL     1      44.606   3.526   8.946  0.00  0.00    +0.000 C 
BRANCH  11  12
ATOM     12  C   UNL     1      45.664   2.902   8.044  0.00  0.00    +0.000 A 
ATOM     13  C   UNL     1      46.131   1.598   8.274  0.00  0.00    +0.000 A 
ATOM     14  C   UNL     1      47.071   1.019   7.416  0.00  0.00    +0.000 A 
ATOM     15  C   UNL     1      47.557   1.734   6.322  0.00  0.00    +0.000 A 
ATOM     16  C   UNL     1      47.113   3.033   6.090  0.00  0.00    +0.000 A 
ATOM     17  C   UNL     1      46.175   3.612   6.944  0.00  0.00    +0.000 A 
ENDBRANCH  11  12
ENDBRANCH   8  11
ENDBRANCH   7   8
ENDBRANCH   1   7
BRANCH   4  18
ATOM     18  C   UNL     1      48.965   6.945  14.288  0.00  0.00    +0.000 C 
BRANCH  18  19
ATOM     19  N   UNL     1      48.624   6.815  15.682  0.00  0.00    +0.000 N 
ATOM     20  C   UNL     1      49.137   7.662  16.628  0.00  0.00    +0.000 C 
ATOM     21  O   UNL     1      49.883   8.593  16.336  0.00  0.00    +0.000 OA
ATOM     22  H   UNL     1      48.202   5.939  15.969  0.00  0.00    +0.000 HD
BRANCH  20  23
ATOM     23  C   UNL     1      48.689   7.443  18.010  0.00  0.00    +0.000 A 
ATOM     24  C   UNL     1      48.078   8.477  18.706  0.00  0.00    +0.000 A 
ATOM     25  S   UNL     1      47.552   8.034  20.267  0.00  0.00    +0.000 S 
ATOM     26  C   UNL     1      48.175   6.461  20.089  0.00  0.00    +0.000 A 
ATOM     27  N   UNL     1      48.070   5.551  21.095  0.00  0.00    +0.000 NA
ATOM     28  C   UNL     1      48.611   4.406  20.837  0.00  0.00    +0.000 A 
ATOM     29  N   UNL     1      49.247   4.090  19.666  0.00  0.00    +0.000 N 
ATOM     30  C   UNL     1      49.353   4.966  18.612  0.00  0.00    +0.000 A 
ATOM     31  O   UNL     1      49.896   4.638  17.564  0.00  0.00    +0.000 OA
ATOM     32  C   UNL     1      48.764   6.272  18.852  0.00  0.00    +0.000 A 
ATOM     33  H   UNL     1      49.650   3.175  19.525  0.00  0.00    +0.000 HD
ENDBRANCH  20  23
ENDBRANCH  18  19
ENDBRANCH   4  18
TORSDOF 7
ENDMDL
MODEL 3
REMARK VINA RESULT:    -7.321      2.515      3.218
REMARK INTER + INTRA:         -11.792
REMARK INTER:                 -10.674
REMARK INTRA:                  -1.118
REMARK UNBOUND:                -1.475
REMARK  Name = 
REMARK  8 active torsions:
REMARK  status: ('A' for Active; 'I' for Inactive)
REMARK    1  A    between atoms: C_1  and  C_2
REMARK    2  A    between atoms: C_2  and  N_3
REMARK    3  A    between atoms: C_2  and  C_25
REMARK    4  A    between atoms: N_3  and  C_4
REMARK    5  A    between atoms: C_4  and  C_5
REMARK    6  A    between atoms: C_8  and  C_9
REMARK    7  A    between atoms: C_9  and  N_10
REMARK    8  A    between atoms: C_11  and  C_13
REMARK                            x       y       z     vdW  Elec       q    Type
REMARK                         _______ _______ _______ _____ _____    ______ ____
ROOT
ATOM      1  C   UNL     1      46.549   5.359  12.734  0.00  0.00    +0.000 A 
ATOM      2  C   UNL     1      47.266   6.525  12.435  0.00  0.00    +0.000 A 
ATOM      3  C   UNL     1      48.112   7.111  13.384  0.00  0.00    +0.000 A 
ATOM      4  C   UNL     1      48.258   6.541  14.655  0.00  0.00    +0.000 A 
ATOM      5  C   UNL     1      47.525   5.390  14.966  0.00  0.00    +0.000 A 
ATOM      6  C   UNL     1      46.686   4.799  14.014  0.00  0.00    +0.000 A 
ENDROOT
BRANCH   1   7
ATOM      7  C   UNL     1      45.606   4.734  11.725  0.00  0.00    +0.000 C 
BRANCH   7   8
ATOM      8  N   UNL     1      45.919   5.141  10.358  0.00  0.00    +0.000 NA
ATOM      9  H   UNL     1      45.899   6.159  10.299  0.00  0.00    +0.000 HD
BRANCH   8  11
ATOM     10  C   UNL     1      43.720   4.006   9.969  0.00  0.00    +0.000 C 
ATOM     11  C   UNL     1      44.983   4.618   9.348  0.00  0.00    +0.000 C 
BRANCH  11  12
ATOM     12  C   UNL     1      45.701   3.576   8.498  0.00  0.00    +0.000 A 
ATOM     13  C   UNL     1      46.478   3.958   7.392  0.00  0.00    +0.000 A 
ATOM     14  C   UNL     1      47.167   2.998   6.644  0.00  0.00    +0.000 A 
ATOM     15  C   UNL     1      47.088   1.650   6.990  0.00  0.00    +0.000 A 
ATOM     16  C   UNL     1      46.312   1.256   8.076  0.00  0.00    +0.000 A 
ATOM     17  C   UNL     1      45.625   2.211   8.824  0.00  0.00    +0.000 A 
ENDBRANCH  11  12
ENDBRANCH   8  11
ENDBRANCH   7   8
ENDBRANCH   1   7
BRANCH   4  18
ATOM     18  C   UNL     1      49.135   7.189  15.695  0.00  0.00    +0.000 C 
BRANCH  18  19
ATOM     19  N   UNL     1      50.134   6.264  16.163  0.00  0.00    +0.000 N 
ATOM     20  C   UNL     1      50.297   5.996  17.497  0.00  0.00    +0.000 C 
ATOM     21  O   UNL     1      49.579   6.501  18.356  0.00  0.00    +0.000 OA
ATOM     22  H   UNL     1      50.868   6.014  15.509  0.00  0.00    +0.000 HD
BRANCH  20  23
ATOM     23  C   UNL     1      51.331   5.012  17.842  0.00  0.00    +0.000 A 
ATOM     24  C   UNL     1      52.522   5.439  18.413  0.00  0.00    +0.000 A 
ATOM     25  S   UNL     1      53.580   4.165  18.820  0.00  0.00    +0.000 S 
ATOM     26  C   UNL     1      52.508   3.001  18.194  0.00  0.00    +0.000 A 
ATOM     27  N   UNL     1      52.823   1.678  18.217  0.00  0.00    +0.000 NA
ATOM     28  C   UNL     1      51.933   0.909  17.683  0.00  0.00    +0.000 A 
ATOM     29  N   UNL     1      50.757   1.343  17.130  0.00  0.00    +0.000 N 
ATOM     30  C   UNL     1      50.384   2.665  17.110  0.00  0.00    +0.000 A 
ATOM     31  O   UNL     1      49.308   3.015  16.640  0.00  0.00    +0.000 OA
ATOM     32  C   UNL     1      51.353   3.575  17.694  0.00  0.00    +0.000 A 
ATOM     33  H   UNL     1      50.102   0.689  16.728  0.00  0.00    +0.000 HD
ENDBRANCH  20  23
ENDBRANCH  18  19
ENDBRANCH   4  18
TORSDOF 7
ENDMDL
MODEL 4
REMARK VINA RESULT:    -7.196      2.983      8.484
REMARK INTER + INTRA:         -11.616
REMARK INTER:                  -9.660
REMARK INTRA:                  -1.956
REMARK UNBOUND:                -1.475
REMARK  Name = 
REMARK  8 active torsions:
REMARK  status: ('A' for Active; 'I' for Inactive)
REMARK    1  A    between atoms: C_1  and  C_2
REMARK    2  A    between atoms: C_2  and  N_3
REMARK    3  A    between atoms: C_2  and  C_25
REMARK    4  A    between atoms: N_3  and  C_4
REMARK    5  A    between atoms: C_4  and  C_5
REMARK    6  A    between atoms: C_8  and  C_9
REMARK    7  A    between atoms: C_9  and  N_10
REMARK    8  A    between atoms: C_11  and  C_13
REMARK                            x       y       z     vdW  Elec       q    Type
REMARK                         _______ _______ _______ _____ _____    ______ ____
ROOT
ATOM      1  C   UNL     1      49.018   7.990  16.046  0.00  0.00    +0.000 A 
ATOM      2  C   UNL     1      48.268   9.058  15.535  0.00  0.00    +0.000 A 
ATOM      3  C   UNL     1      47.726   9.002  14.246  0.00  0.00    +0.000 A 
ATOM      4  C   UNL     1      47.923   7.874  13.439  0.00  0.00    +0.000 A 
ATOM      5  C   UNL     1      48.691   6.816  13.937  0.00  0.00    +0.000 A 
ATOM      6  C   UNL     1      49.226   6.868  15.229  0.00  0.00    +0.000 A 
ENDROOT
BRANCH   1   7
ATOM      7  C   UNL     1      49.636   8.054  17.429  0.00  0.00    +0.000 C 
BRANCH   7   8
ATOM      8  N   UNL     1      48.766   7.468  18.445  0.00  0.00    +0.000 NA
ATOM      9  H   UNL     1      48.589   8.161  19.172  0.00  0.00    +0.000 HD
BRANCH   8  11
ATOM     10  C   UNL     1      50.861   6.300  19.171  0.00  0.00    +0.000 C 
ATOM     11  C   UNL     1      49.328   6.273  19.097  0.00  0.00    +0.000 C 
BRANCH  11  12
ATOM     12  C   UNL     1      48.866   5.033  18.342  0.00  0.00    +0.000 A 
ATOM     13  C   UNL     1      47.536   4.903  17.911  0.00  0.00    +0.000 A 
ATOM     14  C   UNL     1      47.132   3.780  17.182  0.00  0.00    +0.000 A 
ATOM     15  C   UNL     1      48.049   2.776  16.876  0.00  0.00    +0.000 A 
ATOM     16  C   UNL     1      49.368   2.885  17.307  0.00  0.00    +0.000 A 
ATOM     17  C   UNL     1      49.773   4.004  18.033  0.00  0.00    +0.000 A 
ENDBRANCH  11  12
ENDBRANCH   8  11
ENDBRANCH   7   8
ENDBRANCH   1   7
BRANCH   4  18
ATOM     18  C   UNL     1      47.377   7.824  12.036  0.00  0.00    +0.000 C 
BRANCH  18  19
ATOM     19  N   UNL     1      46.733   6.559  11.787  0.00  0.00    +0.000 N 
ATOM     20  C   UNL     1      45.369   6.435  11.788  0.00  0.00    +0.000 C 
ATOM     21  O   UNL     1      44.626   7.397  11.964  0.00  0.00    +0.000 OA
ATOM     22  H   UNL     1      47.312   5.729  11.863  0.00  0.00    +0.000 HD
BRANCH  20  23
ATOM     23  C   UNL     1      44.836   5.099  11.493  0.00  0.00    +0.000 A 
ATOM     24  C   UNL     1      44.131   4.409  12.470  0.00  0.00    +0.000 A 
ATOM     25  S   UNL     1      43.519   2.908  11.940  0.00  0.00    +0.000 S 
ATOM     26  C   UNL     1      44.225   3.101  10.404  0.00  0.00    +0.000 A 
ATOM     27  N   UNL     1      44.091   2.141   9.449  0.00  0.00    +0.000 NA
ATOM     28  C   UNL     1      44.702   2.403   8.340  0.00  0.00    +0.000 A 
ATOM     29  N   UNL     1      45.431   3.538   8.101  0.00  0.00    +0.000 N 
ATOM     30  C   UNL     1      45.570   4.546   9.024  0.00  0.00    +0.000 A 
ATOM     31  O   UNL     1      46.199   5.564   8.763  0.00  0.00    +0.000 OA
ATOM     32  C   UNL     1      44.906   4.299  10.292  0.00  0.00    +0.000 A 
ATOM     33  H   UNL     1      45.885   3.683   7.211  0.00  0.00    +0.000 HD
ENDBRANCH  20  23
ENDBRANCH  18  19
ENDBRANCH   4  18
TORSDOF 7
ENDMDL
MODEL 5
REMARK VINA RESULT:    -6.970      5.034      9.240
REMARK INTER + INTRA:         -11.298
REMARK INTER:                 -10.103
REMARK INTRA:                  -1.195
REMARK UNBOUND:                -1.475
REMARK  Name = 
REMARK  8 active torsions:
REMARK  status: ('A' for Active; 'I' for Inactive)
REMARK    1  A    between atoms: C_1  and  C_2
REMARK    2  A    between atoms: C_2  and  N_3
REMARK    3  A    between atoms: C_2  and  C_25
REMARK    4  A    between atoms: N_3  and  C_4
REMARK    5  A    between atoms: C_4  and  C_5
REMARK    6  A    between atoms: C_8  and  C_9
REMARK    7  A    between atoms: C_9  and  N_10
REMARK    8  A    between atoms: C_11  and  C_13
REMARK                            x       y       z     vdW  Elec       q    Type
REMARK                         _______ _______ _______ _____ _____    ______ ____
ROOT
ATOM      1  C   UNL     1      51.209   2.297  17.444  0.00  0.00    +0.000 A 
ATOM      2  C   UNL     1      51.807   3.562  17.520  0.00  0.00    +0.000 A 
ATOM      3  C   UNL     1      51.027   4.725  17.514  0.00  0.00    +0.000 A 
ATOM      4  C   UNL     1      49.632   4.646  17.430  0.00  0.00    +0.000 A 
ATOM      5  C   UNL     1      49.033   3.385  17.329  0.00  0.00    +0.000 A 
ATOM      6  C   UNL     1      49.811   2.222  17.346  0.00  0.00    +0.000 A 
ENDROOT
BRANCH   1   7
ATOM      7  C   UNL     1      52.045   1.032  17.419  0.00  0.00    +0.000 C 
BRANCH   7   8
ATOM      8  N   UNL     1      52.951   0.951  18.562  0.00  0.00    +0.000 NA
ATOM      9  H   UNL     1      52.908   1.826  19.085  0.00  0.00    +0.000 HD
BRANCH   8  11
ATOM     10  C   UNL     1      54.857   1.688  17.112  0.00  0.00    +0.000 C 
ATOM     11  C   UNL     1      54.359   0.722  18.194  0.00  0.00    +0.000 C 
BRANCH  11  12
ATOM     12  C   UNL     1      54.518  -0.718  17.719  0.00  0.00    +0.000 A 
ATOM     13  C   UNL     1      54.869  -1.005  16.390  0.00  0.00    +0.000 A 
ATOM     14  C   UNL     1      55.055  -2.327  15.974  0.00  0.00    +0.000 A 
ATOM     15  C   UNL     1      54.891  -3.375  16.878  0.00  0.00    +0.000 A 
ATOM     16  C   UNL     1      54.530  -3.107  18.196  0.00  0.00    +0.000 A 
ATOM     17  C   UNL     1      54.346  -1.789  18.612  0.00  0.00    +0.000 A 
ENDBRANCH  11  12
ENDBRANCH   8  11
ENDBRANCH   7   8
ENDBRANCH   1   7
BRANCH   4  18
ATOM     18  C   UNL     1      48.789   5.894  17.381  0.00  0.00    +0.000 C 
BRANCH  18  19
ATOM     19  N   UNL     1      47.938   5.886  16.220  0.00  0.00    +0.000 N 
ATOM     20  C   UNL     1      48.395   6.281  14.991  0.00  0.00    +0.000 C 
ATOM     21  O   UNL     1      49.560   6.628  14.808  0.00  0.00    +0.000 OA
ATOM     22  H   UNL     1      46.939   5.823  16.386  0.00  0.00    +0.000 HD
BRANCH  20  23
ATOM     23  C   UNL     1      47.437   6.198  13.881  0.00  0.00    +0.000 A 
ATOM     24  C   UNL     1      47.073   7.353  13.201  0.00  0.00    +0.000 A 
ATOM     25  S   UNL     1      46.011   7.070  11.896  0.00  0.00    +0.000 S 
ATOM     26  C   UNL     1      45.955   5.403  12.231  0.00  0.00    +0.000 A 
ATOM     27  N   UNL     1      45.195   4.565  11.475  0.00  0.00    +0.000 NA
ATOM     28  C   UNL     1      45.221   3.331  11.858  0.00  0.00    +0.000 A 
ATOM     29  N   UNL     1      45.939   2.861  12.926  0.00  0.00    +0.000 N 
ATOM     30  C   UNL     1      46.742   3.664  13.699  0.00  0.00    +0.000 A 
ATOM     31  O   UNL     1      47.400   3.204  14.625  0.00  0.00    +0.000 OA
ATOM     32  C   UNL     1      46.745   5.064  13.314  0.00  0.00    +0.000 A 
ATOM     33  H   UNL     1      45.918   1.882  13.174  0.00  0.00    +0.000 HD
ENDBRANCH  20  23
ENDBRANCH  18  19
ENDBRANCH   4  18
TORSDOF 7
ENDMDL
MODEL 6
REMARK VINA RESULT:    -6.960      4.437      9.478
REMARK INTER + INTRA:         -11.283
REMARK INTER:                 -10.145
REMARK INTRA:                  -1.138
REMARK UNBOUND:                -1.475
REMARK  Name = 
REMARK  8 active torsions:
REMARK  status: ('A' for Active; 'I' for Inactive)
REMARK    1  A    between atoms: C_1  and  C_2
REMARK    2  A    between atoms: C_2  and  N_3
REMARK    3  A    between atoms: C_2  and  C_25
REMARK    4  A    between atoms: N_3  and  C_4
REMARK    5  A    between atoms: C_4  and  C_5
REMARK    6  A    between atoms: C_8  and  C_9
REMARK    7  A    between atoms: C_9  and  N_10
REMARK    8  A    between atoms: C_11  and  C_13
REMARK                            x       y       z     vdW  Elec       q    Type
REMARK                         _______ _______ _______ _____ _____    ______ ____
ROOT
ATOM      1  C   UNL     1      51.312   3.655  17.869  0.00  0.00    +0.000 A 
ATOM      2  C   UNL     1      50.771   2.455  17.387  0.00  0.00    +0.000 A 
ATOM      3  C   UNL     1      49.416   2.365  17.046  0.00  0.00    +0.000 A 
ATOM      4  C   UNL     1      48.573   3.475  17.182  0.00  0.00    +0.000 A 
ATOM      5  C   UNL     1      49.104   4.667  17.686  0.00  0.00    +0.000 A 
ATOM      6  C   UNL     1      50.461   4.760  18.017  0.00  0.00    +0.000 A 
ENDROOT
BRANCH   1   7
ATOM      7  C   UNL     1      52.771   3.754  18.270  0.00  0.00    +0.000 C 
BRANCH   7   8
ATOM      8  N   UNL     1      53.104   2.836  19.356  0.00  0.00    +0.000 NA
ATOM      9  H   UNL     1      52.899   3.285  20.248  0.00  0.00    +0.000 HD
BRANCH   8  11
ATOM     10  C   UNL     1      55.485   3.616  19.336  0.00  0.00    +0.000 C 
ATOM     11  C   UNL     1      54.518   2.425  19.378  0.00  0.00    +0.000 C 
BRANCH  11  12
ATOM     12  C   UNL     1      54.784   1.498  18.198  0.00  0.00    +0.000 A 
ATOM     13  C   UNL     1      54.237   0.206  18.157  0.00  0.00    +0.000 A 
ATOM     14  C   UNL     1      54.452  -0.622  17.050  0.00  0.00    +0.000 A 
ATOM     15  C   UNL     1      55.215  -0.170  15.975  0.00  0.00    +0.000 A 
ATOM     16  C   UNL     1      55.775   1.105  16.007  0.00  0.00    +0.000 A 
ATOM     17  C   UNL     1      55.561   1.931  17.109  0.00  0.00    +0.000 A 
ENDBRANCH  11  12
ENDBRANCH   8  11
ENDBRANCH   7   8
ENDBRANCH   1   7
BRANCH   4  18
ATOM     18  C   UNL     1      47.105   3.374  16.857  0.00  0.00    +0.000 C 
BRANCH  18  19
ATOM     19  N   UNL     1      46.733   4.363  15.879  0.00  0.00    +0.000 N 
ATOM     20  C   UNL     1      46.886   4.139  14.536  0.00  0.00    +0.000 C 
ATOM     21  O   UNL     1      47.313   3.075  14.096  0.00  0.00    +0.000 OA
ATOM     22  H   UNL     1      46.596   5.310  16.216  0.00  0.00    +0.000 HD
BRANCH  20  23
ATOM     23  C   UNL     1      46.442   5.216  13.641  0.00  0.00    +0.000 A 
ATOM     24  C   UNL     1      47.283   6.292  13.392  0.00  0.00    +0.000 A 
ATOM     25  S   UNL     1      46.646   7.413  12.275  0.00  0.00    +0.000 S 
ATOM     26  C   UNL     1      45.200   6.529  12.130  0.00  0.00    +0.000 A 
ATOM     27  N   UNL     1      44.196   6.962  11.320  0.00  0.00    +0.000 NA
ATOM     28  C   UNL     1      43.144   6.211  11.327  0.00  0.00    +0.000 A 
ATOM     29  N   UNL     1      43.006   5.069  12.070  0.00  0.00    +0.000 N 
ATOM     30  C   UNL     1      44.002   4.578  12.880  0.00  0.00    +0.000 A 
ATOM     31  O   UNL     1      43.859   3.533  13.502  0.00  0.00    +0.000 OA
ATOM     32  C   UNL     1      45.208   5.389  12.912  0.00  0.00    +0.000 A 
ATOM     33  H   UNL     1      42.157   4.525  12.031  0.00  0.00    +0.000 HD
ENDBRANCH  20  23
ENDBRANCH  18  19
ENDBRANCH   4  18
TORSDOF 7
ENDMDL
MODEL 7
REMARK VINA RESULT:    -6.715      3.446      4.947
REMARK INTER + INTRA:         -10.938
REMARK INTER:                  -9.672
REMARK INTRA:                  -1.266
REMARK UNBOUND:                -1.475
REMARK  Name = 
REMARK  8 active torsions:
REMARK  status: ('A' for Active; 'I' for Inactive)
REMARK    1  A    between atoms: C_1  and  C_2
REMARK    2  A    between atoms: C_2  and  N_3
REMARK    3  A    between atoms: C_2  and  C_25
REMARK    4  A    between atoms: N_3  and  C_4
REMARK    5  A    between atoms: C_4  and  C_5
REMARK    6  A    between atoms: C_8  and  C_9
REMARK    7  A    between atoms: C_9  and  N_10
REMARK    8  A    between atoms: C_11  and  C_13
REMARK                            x       y       z     vdW  Elec       q    Type
REMARK                         _______ _______ _______ _____ _____    ______ ____
ROOT
ATOM      1  C   UNL     1      47.349   6.310  13.852  0.00  0.00    +0.000 A 
ATOM      2  C   UNL     1      48.298   6.831  14.743  0.00  0.00    +0.000 A 
ATOM      3  C   UNL     1      48.681   6.114  15.882  0.00  0.00    +0.000 A 
ATOM      4  C   UNL     1      48.121   4.859  16.155  0.00  0.00    +0.000 A 
ATOM      5  C   UNL     1      47.156   4.347  15.281  0.00  0.00    +0.000 A 
ATOM      6  C   UNL     1      46.780   5.059  14.137  0.00  0.00    +0.000 A 
ENDROOT
BRANCH   1   7
ATOM      7  C   UNL     1      46.904   7.092  12.632  0.00  0.00    +0.000 C 
BRANCH   7   8
ATOM      8  N   UNL     1      46.808   6.247  11.445  0.00  0.00    +0.000 NA
ATOM      9  H   UNL     1      47.505   6.548  10.763  0.00  0.00    +0.000 HD
BRANCH   8  11
ATOM     10  C   UNL     1      44.356   6.660  11.747  0.00  0.00    +0.000 C 
ATOM     11  C   UNL     1      45.492   6.289  10.785  0.00  0.00    +0.000 C 
BRANCH  11  12
ATOM     12  C   UNL     1      45.213   4.933  10.149  0.00  0.00    +0.000 A 
ATOM     13  C   UNL     1      44.560   3.919  10.868  0.00  0.00    +0.000 A 
ATOM     14  C   UNL     1      44.270   2.692  10.263  0.00  0.00    +0.000 A 
ATOM     15  C   UNL     1      44.630   2.463   8.936  0.00  0.00    +0.000 A 
ATOM     16  C   UNL     1      45.289   3.454   8.214  0.00  0.00    +0.000 A 
ATOM     17  C   UNL     1      45.578   4.678   8.816  0.00  0.00    +0.000 A 
ENDBRANCH  11  12
ENDBRANCH   8  11
ENDBRANCH   7   8
ENDBRANCH   1   7
BRANCH   4  18
ATOM     18  C   UNL     1      48.499   4.100  17.401  0.00  0.00    +0.000 C 
BRANCH  18  19
ATOM     19  N   UNL     1      49.902   3.777  17.392  0.00  0.00    +0.000 N 
ATOM     20  C   UNL     1      50.728   4.130  18.427  0.00  0.00    +0.000 C 
ATOM     21  O   UNL     1      50.310   4.708  19.427  0.00  0.00    +0.000 OA
ATOM     22  H   UNL     1      50.304   3.509  16.500  0.00  0.00    +0.000 HD
BRANCH  20  23
ATOM     23  C   UNL     1      52.132   3.717  18.310  0.00  0.00    +0.000 A 
ATOM     24  C   UNL     1      53.142   4.627  18.592  0.00  0.00    +0.000 A 
ATOM     25  S   UNL     1      54.710   3.964  18.480  0.00  0.00    +0.000 S 
ATOM     26  C   UNL     1      54.096   2.454  17.994  0.00  0.00    +0.000 A 
ATOM     27  N   UNL     1      54.933   1.418  17.716  0.00  0.00    +0.000 NA
ATOM     28  C   UNL     1      54.335   0.339  17.330  0.00  0.00    +0.000 A 
ATOM     29  N   UNL     1      52.978   0.203  17.200  0.00  0.00    +0.000 N 
ATOM     30  C   UNL     1      52.093   1.211  17.497  0.00  0.00    +0.000 A 
ATOM     31  O   UNL     1      50.883   1.044  17.405  0.00  0.00    +0.000 OA
ATOM     32  C   UNL     1      52.714   2.450  17.931  0.00  0.00    +0.000 A 
ATOM     33  H   UNL     1      52.572  -0.669  16.894  0.00  0.00    +0.000 HD
ENDBRANCH  20  23
ENDBRANCH  18  19
ENDBRANCH   4  18
TORSDOF 7
ENDMDL
MODEL 8
REMARK VINA RESULT:    -6.522      2.181      3.386
REMARK INTER + INTRA:         -10.665
REMARK INTER:                  -9.607
REMARK INTRA:                  -1.058
REMARK UNBOUND:                -1.475
REMARK  Name = 
REMARK  8 active torsions:
REMARK  status: ('A' for Active; 'I' for Inactive)
REMARK    1  A    between atoms: C_1  and  C_2
REMARK    2  A    between atoms: C_2  and  N_3
REMARK    3  A    between atoms: C_2  and  C_25
REMARK    4  A    between atoms: N_3  and  C_4
REMARK    5  A    between atoms: C_4  and  C_5
REMARK    6  A    between atoms: C_8  and  C_9
REMARK    7  A    between atoms: C_9  and  N_10
REMARK    8  A    between atoms: C_11  and  C_13
REMARK                            x       y       z     vdW  Elec       q    Type
REMARK                         _______ _______ _______ _____ _____    ______ ____
ROOT
ATOM      1  C   UNL     1      45.356   6.278  11.412  0.00  0.00    +0.000 A 
ATOM      2  C   UNL     1      46.702   6.262  11.020  0.00  0.00    +0.000 A 
ATOM      3  C   UNL     1      47.661   7.007  11.716  0.00  0.00    +0.000 A 
ATOM      4  C   UNL     1      47.293   7.786  12.820  0.00  0.00    +0.000 A 
ATOM      5  C   UNL     1      45.947   7.825  13.200  0.00  0.00    +0.000 A 
ATOM      6  C   UNL     1      44.989   7.072  12.510  0.00  0.00    +0.000 A 
ENDROOT
BRANCH   1   7
ATOM      7  C   UNL     1      44.304   5.500  10.647  0.00  0.00    +0.000 C 
BRANCH   7   8
ATOM      8  N   UNL     1      44.821   4.975   9.386  0.00  0.00    +0.000 NA
ATOM      9  H   UNL     1      44.486   5.558   8.619  0.00  0.00    +0.000 HD
BRANCH   8  11
ATOM     10  C   UNL     1      44.173   2.766  10.376  0.00  0.00    +0.000 C 
ATOM     11  C   UNL     1      44.411   3.589   9.103  0.00  0.00    +0.000 C 
BRANCH  11  12
ATOM     12  C   UNL     1      45.480   2.921   8.246  0.00  0.00    +0.000 A 
ATOM     13  C   UNL     1      46.157   3.639   7.247  0.00  0.00    +0.000 A 
ATOM     14  C   UNL     1      47.166   3.029   6.494  0.00  0.00    +0.000 A 
ATOM     15  C   UNL     1      47.508   1.698   6.729  0.00  0.00    +0.000 A 
ATOM     16  C   UNL     1      46.837   0.971   7.708  0.00  0.00    +0.000 A 
ATOM     17  C   UNL     1      45.832   1.577   8.460  0.00  0.00    +0.000 A 
ENDBRANCH  11  12
ENDBRANCH   8  11
ENDBRANCH   7   8
ENDBRANCH   1   7
BRANCH   4  18
ATOM     18  C   UNL     1      48.314   8.623  13.548  0.00  0.00    +0.000 C 
BRANCH  18  19
ATOM     19  N   UNL     1      49.163   7.792  14.361  0.00  0.00    +0.000 N 
ATOM     20  C   UNL     1      49.148   7.869  15.729  0.00  0.00    +0.000 C 
ATOM     21  O   UNL     1      48.387   8.622  16.331  0.00  0.00    +0.000 OA
ATOM     22  H   UNL     1      49.941   7.338  13.894  0.00  0.00    +0.000 HD
BRANCH  20  23
ATOM     23  C   UNL     1      50.040   6.947  16.443  0.00  0.00    +0.000 A 
ATOM     24  C   UNL     1      49.568   5.703  16.841  0.00  0.00    +0.000 A 
ATOM     25  S   UNL     1      50.752   4.731  17.590  0.00  0.00    +0.000 S 
ATOM     26  C   UNL     1      51.921   5.960  17.463  0.00  0.00    +0.000 A 
ATOM     27  N   UNL     1      53.182   5.776  17.940  0.00  0.00    +0.000 NA
ATOM     28  C   UNL     1      53.958   6.800  17.804  0.00  0.00    +0.000 A 
ATOM     29  N   UNL     1      53.587   7.990  17.235  0.00  0.00    +0.000 N 
ATOM     30  C   UNL     1      52.336   8.212  16.714  0.00  0.00    +0.000 A 
ATOM     31  O   UNL     1      52.049   9.275  16.179  0.00  0.00    +0.000 OA
ATOM     32  C   UNL     1      51.420   7.091  16.845  0.00  0.00    +0.000 A 
ATOM     33  H   UNL     1      54.243   8.754  17.158  0.00  0.00    +0.000 HD
ENDBRANCH  20  23
ENDBRANCH  18  19
ENDBRANCH   4  18
TORSDOF 7
ENDMDL
MODEL 9
REMARK VINA RESULT:    -6.421      4.796      7.562
REMARK INTER + INTRA:         -10.523
REMARK INTER:                  -9.382
REMARK INTRA:                  -1.140
REMARK UNBOUND:                -1.475
REMARK  Name = 
REMARK  8 active torsions:
REMARK  status: ('A' for Active; 'I' for Inactive)
REMARK    1  A    between atoms: C_1  and  C_2
REMARK    2  A    between atoms: C_2  and  N_3
REMARK    3  A    between atoms: C_2  and  C_25
REMARK    4  A    between atoms: N_3  and  C_4
REMARK    5  A    between atoms: C_4  and  C_5
REMARK    6  A    between atoms: C_8  and  C_9
REMARK    7  A    between atoms: C_9  and  N_10
REMARK    8  A    between atoms: C_11  and  C_13
REMARK                            x       y       z     vdW  Elec       q    Type
REMARK                         _______ _______ _______ _____ _____    ______ ____
ROOT
ATOM      1  C   UNL     1      50.278   8.746  11.699  0.00  0.00    +0.000 A 
ATOM      2  C   UNL     1      49.857   7.463  12.077  0.00  0.00    +0.000 A 
ATOM      3  C   UNL     1      48.545   7.238  12.509  0.00  0.00    +0.000 A 
ATOM      4  C   UNL     1      47.626   8.293  12.574  0.00  0.00    +0.000 A 
ATOM      5  C   UNL     1      48.050   9.579  12.221  0.00  0.00    +0.000 A 
ATOM      6  C   UNL     1      49.358   9.803  11.779  0.00  0.00    +0.000 A 
ENDROOT
BRANCH   1   7
ATOM      7  C   UNL     1      51.705   9.007  11.259  0.00  0.00    +0.000 C 
BRANCH   7   8
ATOM      8  N   UNL     1      52.489   7.777  11.184  0.00  0.00    +0.000 NA
ATOM      9  H   UNL     1      52.775   7.505  12.125  0.00  0.00    +0.000 HD
BRANCH   8  11
ATOM     10  C   UNL     1      53.927   9.311   9.822  0.00  0.00    +0.000 C 
ATOM     11  C   UNL     1      53.708   7.893  10.366  0.00  0.00    +0.000 C 
BRANCH  11  12
ATOM     12  C   UNL     1      53.626   6.901   9.211  0.00  0.00    +0.000 A 
ATOM     13  C   UNL     1      54.477   5.787   9.154  0.00  0.00    +0.000 A 
ATOM     14  C   UNL     1      54.366   4.860   8.113  0.00  0.00    +0.000 A 
ATOM     15  C   UNL     1      53.405   5.036   7.118  0.00  0.00    +0.000 A 
ATOM     16  C   UNL     1      52.562   6.143   7.154  0.00  0.00    +0.000 A 
ATOM     17  C   UNL     1      52.672   7.067   8.192  0.00  0.00    +0.000 A 
ENDBRANCH  11  12
ENDBRANCH   8  11
ENDBRANCH   7   8
ENDBRANCH   1   7
BRANCH   4  18
ATOM     18  C   UNL     1      46.224   8.065  13.078  0.00  0.00    +0.000 C 
BRANCH  18  19
ATOM     19  N   UNL     1      45.768   6.744  12.727  0.00  0.00    +0.000 N 
ATOM     20  C   UNL     1      44.903   6.537  11.684  0.00  0.00    +0.000 C 
ATOM     21  O   UNL     1      44.502   7.457  10.976  0.00  0.00    +0.000 OA
ATOM     22  H   UNL     1      45.902   6.015  13.419  0.00  0.00    +0.000 HD
BRANCH  20  23
ATOM     23  C   UNL     1      44.537   5.142  11.410  0.00  0.00    +0.000 A 
ATOM     24  C   UNL     1      43.802   4.427  12.347  0.00  0.00    +0.000 A 
ATOM     25  S   UNL     1      43.398   2.849  11.840  0.00  0.00    +0.000 S 
ATOM     26  C   UNL     1      44.241   3.045  10.375  0.00  0.00    +0.000 A 
ATOM     27  N   UNL     1      44.304   2.035   9.465  0.00  0.00    +0.000 NA
ATOM     28  C   UNL     1      45.000   2.309   8.412  0.00  0.00    +0.000 A 
ATOM     29  N   UNL     1      45.638   3.501   8.186  0.00  0.00    +0.000 N 
ATOM     30  C   UNL     1      45.579   4.558   9.062  0.00  0.00    +0.000 A 
ATOM     31  O   UNL     1      46.131   5.623   8.812  0.00  0.00    +0.000 OA
ATOM     32  C   UNL     1      44.811   4.301  10.268  0.00  0.00    +0.000 A 
ATOM     33  H   UNL     1      46.167   3.653   7.340  0.00  0.00    +0.000 HD
ENDBRANCH  20  23
ENDBRANCH  18  19
ENDBRANCH   4  18
TORSDOF 7
ENDMDL
