MODEL 1
REMARK VINA RESULT:    -8.716      0.000      0.000
REMARK INTER + INTRA:         -12.848
REMARK INTER:                 -11.773
REMARK INTRA:                  -1.075
REMARK UNBOUND:                -1.075
REMARK  Name = 
REMARK  6 active torsions:
REMARK  status: ('A' for Active; 'I' for Inactive)
REMARK    1  A    between atoms: C_2  and  C_3
REMARK    2  A    between atoms: N_7  and  C_8
REMARK    3  A    between atoms: C_8  and  C_9
REMARK    4  A    between atoms: C_9  and  C_12
REMARK    5  A    between atoms: C_16  and  O_17
REMARK    6  A    between atoms: O_17  and  C_18
REMARK                            x       y       z     vdW  Elec       q    Type
REMARK                         _______ _______ _______ _____ _____    ______ ____
ROOT
ATOM      1  C   UNL     1      43.716   4.679  12.410  0.00  0.00    +0.000 C 
ATOM      2  F   UNL     1      42.789   5.551  12.903  0.00  0.00    +0.000 F 
ATOM      3  F   UNL     1      43.524   3.518  13.105  0.00  0.00    +0.000 F 
ENDROOT
BRANCH   1   4
ATOM      4  C   UNL     1      45.134   5.203  12.551  0.00  0.00    +0.000 A 
ATOM      5  C   UNL     1      45.648   6.126  11.629  0.00  0.00    +0.000 A 
ATOM      6  C   UNL     1      46.924   6.664  11.807  0.00  0.00    +0.000 A 
ATOM      7  C   UNL     1      47.706   6.286  12.903  0.00  0.00    +0.000 A 
ATOM      8  C   UNL     1      47.211   5.362  13.818  0.00  0.00    +0.000 A 
ATOM      9  C   UNL     1      45.931   4.827  13.643  0.00  0.00    +0.000 A 
BRANCH   8  10
ATOM     10  O   UNL     1      47.862   4.945  14.951  0.00  0.00    +0.000 OA
BRANCH  10  11
ATOM     11  C   UNL     1      47.226   3.993  15.830  0.00  0.00    +0.000 C 
ATOM     12  C   UNL     1      47.161   4.352  17.337  0.00  0.00    +0.000 C 
ATOM     13  C   UNL     1      47.577   2.907  17.659  0.00  0.00    +0.000 C 
ATOM     14  C   UNL     1      48.145   2.808  16.235  0.00  0.00    +0.000 C 
ENDBRANCH  10  11
ENDBRANCH   8  10
ENDBRANCH   1   4
BRANCH   1  15
ATOM     15  C   UNL     1      43.412   4.419  10.913  0.00  0.00    +0.000 C 
BRANCH  15  20
ATOM     16  C   UNL     1      46.617   2.438   7.418  0.00  0.00    +0.000 A 
ATOM     17  C   UNL     1      46.269   3.751   7.704  0.00  0.00    +0.000 A 
ATOM     18  C   UNL     1      45.346   4.005   8.719  0.00  0.00    +0.000 A 
ATOM     19  C   UNL     1      44.784   2.948   9.430  0.00  0.00    +0.000 A 
ATOM     20  N   UNL     1      43.858   3.118  10.421  0.00  0.00    +0.000 N 
ATOM     21  N   UNL     1      45.121   1.671   9.160  0.00  0.00    +0.000 NA
ATOM     22  C   UNL     1      46.023   1.440   8.173  0.00  0.00    +0.000 A 
ATOM     23  H   UNL     1      43.544   2.266  10.874  0.00  0.00    +0.000 HD
BRANCH  16  25
ATOM     24  N   UNL     1      48.301   1.875   5.536  0.00  0.00    +0.000 NA
ATOM     25  C   UNL     1      47.549   2.125   6.384  0.00  0.00    +0.000 C 
ENDBRANCH  16  25
ENDBRANCH  15  20
ENDBRANCH   1  15
TORSDOF 6
ENDMDL
MODEL 2
REMARK VINA RESULT:    -7.565      1.855      3.597
REMARK INTER + INTRA:         -11.293
REMARK INTER:                 -10.368
REMARK INTRA:                  -0.925
REMARK UNBOUND:                -1.075
REMARK  Name = 
REMARK  6 active torsions:
REMARK  status: ('A' for Active; 'I' for Inactive)
REMARK    1  A    between atoms: C_2  and  C_3
REMARK    2  A    between atoms: N_7  and  C_8
REMARK    3  A    between atoms: C_8  and  C_9
REMARK    4  A    between atoms: C_9  and  C_12
REMARK    5  A    between atoms: C_16  and  O_17
REMARK    6  A    between atoms: O_17  and  C_18
REMARK                            x       y       z     vdW  Elec       q    Type
REMARK                         _______ _______ _______ _____ _____    ______ ____
ROOT
ATOM      1  C   UNL     1      43.542   4.698  12.512  0.00  0.00    +0.000 C 
ATOM      2  F   UNL     1      42.541   5.508  12.966  0.00  0.00    +0.000 F 
ATOM      3  F   UNL     1      43.344   3.497  13.135  0.00  0.00    +0.000 F 
ENDROOT
BRANCH   1   4
ATOM      4  C   UNL     1      44.920   5.269  12.796  0.00  0.00    +0.000 A 
ATOM      5  C   UNL     1      45.839   4.559  13.581  0.00  0.00    +0.000 A 
ATOM      6  C   UNL     1      47.130   5.051  13.775  0.00  0.00    +0.000 A 
ATOM      7  C   UNL     1      47.523   6.259  13.192  0.00  0.00    +0.000 A 
ATOM      8  C   UNL     1      46.617   6.980  12.419  0.00  0.00    +0.000 A 
ATOM      9  C   UNL     1      45.324   6.484  12.220  0.00  0.00    +0.000 A 
BRANCH   8  10
ATOM     10  O   UNL     1      46.893   8.152  11.762  0.00  0.00    +0.000 OA
BRANCH  10  11
ATOM     11  C   UNL     1      46.980   9.384  12.508  0.00  0.00    +0.000 C 
ATOM     12  C   UNL     1      47.001  10.705  11.696  0.00  0.00    +0.000 C 
ATOM     13  C   UNL     1      48.134  11.203  12.610  0.00  0.00    +0.000 C 
ATOM     14  C   UNL     1      48.422   9.736  12.965  0.00  0.00    +0.000 C 
ENDBRANCH  10  11
ENDBRANCH   8  10
ENDBRANCH   1   4
BRANCH   1  15
ATOM     15  C   UNL     1      43.373   4.501  10.985  0.00  0.00    +0.000 C 
BRANCH  15  20
ATOM     16  C   UNL     1      46.591   2.498   7.515  0.00  0.00    +0.000 A 
ATOM     17  C   UNL     1      46.258   3.814   7.804  0.00  0.00    +0.000 A 
ATOM     18  C   UNL     1      45.327   4.075   8.811  0.00  0.00    +0.000 A 
ATOM     19  C   UNL     1      44.742   3.021   9.509  0.00  0.00    +0.000 A 
ATOM     20  N   UNL     1      43.807   3.198  10.490  0.00  0.00    +0.000 N 
ATOM     21  N   UNL     1      45.065   1.742   9.235  0.00  0.00    +0.000 NA
ATOM     22  C   UNL     1      45.975   1.504   8.256  0.00  0.00    +0.000 A 
ATOM     23  H   UNL     1      43.476   2.348  10.934  0.00  0.00    +0.000 HD
BRANCH  16  25
ATOM     24  N   UNL     1      48.295   1.908   5.659  0.00  0.00    +0.000 NA
ATOM     25  C   UNL     1      47.531   2.179   6.490  0.00  0.00    +0.000 C 
ENDBRANCH  16  25
ENDBRANCH  15  20
ENDBRANCH   1  15
TORSDOF 6
ENDMDL
MODEL 3
REMARK VINA RESULT:    -7.472      1.934      2.485
REMARK INTER + INTRA:         -11.169
REMARK INTER:                 -10.556
REMARK INTRA:                  -0.612
REMARK UNBOUND:                -1.075
REMARK  Name = 
REMARK  6 active torsions:
REMARK  status: ('A' for Active; 'I' for Inactive)
REMARK    1  A    between atoms: C_2  and  C_3
REMARK    2  A    between atoms: N_7  and  C_8
REMARK    3  A    between atoms: C_8  and  C_9
REMARK    4  A    between atoms: C_9  and  C_12
REMARK    5  A    between atoms: C_16  and  O_17
REMARK    6  A    between atoms: O_17  and  C_18
REMARK                            x       y       z     vdW  Elec       q    Type
REMARK                         _______ _______ _______ _____ _____    ______ ____
ROOT
ATOM      1  C   UNL     1      43.035   5.272  12.054  0.00  0.00    +0.000 C 
ATOM      2  F   UNL     1      41.862   5.930  11.812  0.00  0.00    +0.000 F 
ATOM      3  F   UNL     1      42.810   4.541  13.187  0.00  0.00    +0.000 F 
ENDROOT
BRANCH   1   4
ATOM      4  C   UNL     1      44.208   6.221  12.208  0.00  0.00    +0.000 A 
ATOM      5  C   UNL     1      44.146   7.523  11.691  0.00  0.00    +0.000 A 
ATOM      6  C   UNL     1      45.197   8.418  11.902  0.00  0.00    +0.000 A 
ATOM      7  C   UNL     1      46.325   8.026  12.629  0.00  0.00    +0.000 A 
ATOM      8  C   UNL     1      46.404   6.734  13.139  0.00  0.00    +0.000 A 
ATOM      9  C   UNL     1      45.349   5.839  12.931  0.00  0.00    +0.000 A 
BRANCH   8  10
ATOM     10  O   UNL     1      47.434   6.245  13.901  0.00  0.00    +0.000 OA
BRANCH  10  11
ATOM     11  C   UNL     1      48.358   7.161  14.524  0.00  0.00    +0.000 C 
ATOM     12  C   UNL     1      49.739   7.350  13.844  0.00  0.00    +0.000 C 
ATOM     13  C   UNL     1      50.391   7.267  15.235  0.00  0.00    +0.000 C 
ATOM     14  C   UNL     1      49.125   6.551  15.729  0.00  0.00    +0.000 C 
ENDBRANCH  10  11
ENDBRANCH   8  10
ENDBRANCH   1   4
BRANCH   1  15
ATOM     15  C   UNL     1      43.312   4.299  10.881  0.00  0.00    +0.000 C 
BRANCH  15  20
ATOM     16  C   UNL     1      46.726   2.664   7.405  0.00  0.00    +0.000 A 
ATOM     17  C   UNL     1      46.016   1.983   8.384  0.00  0.00    +0.000 A 
ATOM     18  C   UNL     1      45.147   2.694   9.213  0.00  0.00    +0.000 A 
ATOM     19  C   UNL     1      45.002   4.070   9.055  0.00  0.00    +0.000 A 
ATOM     20  N   UNL     1      44.188   4.835   9.843  0.00  0.00    +0.000 N 
ATOM     21  N   UNL     1      45.685   4.735   8.102  0.00  0.00    +0.000 NA
ATOM     22  C   UNL     1      46.523   4.030   7.301  0.00  0.00    +0.000 A 
ATOM     23  H   UNL     1      44.157   5.821   9.608  0.00  0.00    +0.000 HD
BRANCH  16  25
ATOM     24  N   UNL     1      48.362   1.427   5.827  0.00  0.00    +0.000 NA
ATOM     25  C   UNL     1      47.633   1.985   6.537  0.00  0.00    +0.000 C 
ENDBRANCH  16  25
ENDBRANCH  15  20
ENDBRANCH   1  15
TORSDOF 6
ENDMDL
MODEL 4
REMARK VINA RESULT:    -7.043      3.387      7.364
REMARK INTER + INTRA:         -10.588
REMARK INTER:                  -9.715
REMARK INTRA:                  -0.873
REMARK UNBOUND:                -1.075
REMARK  Name = 
REMARK  6 active torsions:
REMARK  status: ('A' for Active; 'I' for Inactive)
REMARK    1  A    between atoms: C_2  and  C_3
REMARK    2  A    between atoms: N_7  and  C_8
REMARK    3  A    between atoms: C_8  and  C_9
REMARK    4  A    between atoms: C_9  and  C_12
REMARK    5  A    between atoms: C_16  and  O_17
REMARK    6  A    between atoms: O_17  and  C_18
REMARK                            x       y       z     vdW  Elec       q    Type
REMARK                         _______ _______ _______ _____ _____    ______ ____
ROOT
ATOM      1  C   UNL     1      45.388   6.696  11.889  0.00  0.00    +0.000 C 
ATOM      2  F   UNL     1      45.021   7.204  13.102  0.00  0.00    +0.000 F 
ATOM      3  F   UNL     1      44.958   7.612  10.970  0.00  0.00    +0.000 F 
ENDROOT
BRANCH   1   4
ATOM      4  C   UNL     1      44.805   5.318  11.640  0.00  0.00    +0.000 A 
ATOM      5  C   UNL     1      44.024   4.685  12.617  0.00  0.00    +0.000 A 
ATOM      6  C   UNL     1      43.426   3.452  12.354  0.00  0.00    +0.000 A 
ATOM      7  C   UNL     1      43.601   2.830  11.115  0.00  0.00    +0.000 A 
ATOM      8  C   UNL     1      44.383   3.442  10.139  0.00  0.00    +0.000 A 
ATOM      9  C   UNL     1      44.979   4.680  10.401  0.00  0.00    +0.000 A 
BRANCH   8  10
ATOM     10  O   UNL     1      44.596   2.954   8.875  0.00  0.00    +0.000 OA
BRANCH  10  11
ATOM     11  C   UNL     1      45.941   2.873   8.358  0.00  0.00    +0.000 C 
ATOM     12  C   UNL     1      46.153   3.254   6.870  0.00  0.00    +0.000 C 
ATOM     13  C   UNL     1      47.059   2.019   6.724  0.00  0.00    +0.000 C 
ATOM     14  C   UNL     1      46.373   1.433   7.967  0.00  0.00    +0.000 C 
ENDBRANCH  10  11
ENDBRANCH   8  10
ENDBRANCH   1   4
BRANCH   1  15
ATOM     15  C   UNL     1      46.934   6.619  11.827  0.00  0.00    +0.000 C 
BRANCH  15  20
ATOM     16  C   UNL     1      48.056   4.668  16.448  0.00  0.00    +0.000 A 
ATOM     17  C   UNL     1      47.321   4.154  15.389  0.00  0.00    +0.000 A 
ATOM     18  C   UNL     1      47.164   4.920  14.233  0.00  0.00    +0.000 A 
ATOM     19  C   UNL     1      47.740   6.185  14.153  0.00  0.00    +0.000 A 
ATOM     20  N   UNL     1      47.610   7.001  13.064  0.00  0.00    +0.000 N 
ATOM     21  N   UNL     1      48.460   6.688  15.175  0.00  0.00    +0.000 NA
ATOM     22  C   UNL     1      48.606   5.929  16.292  0.00  0.00    +0.000 A 
ATOM     23  H   UNL     1      48.097   7.889  13.125  0.00  0.00    +0.000 HD
BRANCH  16  25
ATOM     24  N   UNL     1      48.393   3.334  18.639  0.00  0.00    +0.000 NA
ATOM     25  C   UNL     1      48.239   3.928  17.654  0.00  0.00    +0.000 C 
ENDBRANCH  16  25
ENDBRANCH  15  20
ENDBRANCH   1  15
TORSDOF 6
ENDMDL
MODEL 5
REMARK VINA RESULT:    -6.903      3.534      7.903
REMARK INTER + INTRA:         -10.400
REMARK INTER:                  -9.774
REMARK INTRA:                  -0.625
REMARK UNBOUND:                -1.075
REMARK  Name = 
REMARK  6 active torsions:
REMARK  status: ('A' for Active; 'I' for Inactive)
REMARK    1  A    between atoms: C_2  and  C_3
REMARK    2  A    between atoms: N_7  and  C_8
REMARK    3  A    between atoms: C_8  and  C_9
REMARK    4  A    between atoms: C_9  and  C_12
REMARK    5  A    between atoms: C_16  and  O_17
REMARK    6  A    between atoms: O_17  and  C_18
REMARK                            x       y       z     vdW  Elec       q    Type
REMARK                         _______ _______ _______ _____ _____    ______ ____
ROOT
ATOM      1  C   UNL     1      45.988   6.314  12.262  0.00  0.00    +0.000 C 
ATOM      2  F   UNL     1      45.186   6.888  13.205  0.00  0.00    +0.000 F 
ATOM      3  F   UNL     1      46.371   7.339  11.442  0.00  0.00    +0.000 F 
ENDROOT
BRANCH   1   4
ATOM      4  C   UNL     1      45.284   5.206  11.501  0.00  0.00    +0.000 A 
ATOM      5  C   UNL     1      44.314   4.413  12.131  0.00  0.00    +0.000 A 
ATOM      6  C   UNL     1      43.614   3.446  11.407  0.00  0.00    +0.000 A 
ATOM      7  C   UNL     1      43.872   3.255  10.047  0.00  0.00    +0.000 A 
ATOM      8  C   UNL     1      44.841   4.028   9.412  0.00  0.00    +0.000 A 
ATOM      9  C   UNL     1      45.539   4.999  10.136  0.00  0.00    +0.000 A 
BRANCH   8  10
ATOM     10  O   UNL     1      45.155   3.964   8.079  0.00  0.00    +0.000 OA
BRANCH  10  11
ATOM     11  C   UNL     1      46.425   3.413   7.670  0.00  0.00    +0.000 C 
ATOM     12  C   UNL     1      46.645   3.187   6.153  0.00  0.00    +0.000 C 
ATOM     13  C   UNL     1      47.256   1.815   6.486  0.00  0.00    +0.000 C 
ATOM     14  C   UNL     1      46.518   1.872   7.833  0.00  0.00    +0.000 C 
ENDBRANCH  10  11
ENDBRANCH   8  10
ENDBRANCH   1   4
BRANCH   1  15
ATOM     15  C   UNL     1      47.246   5.739  12.959  0.00  0.00    +0.000 C 
BRANCH  15  20
ATOM     16  C   UNL     1      48.096   4.642  17.907  0.00  0.00    +0.000 A 
ATOM     17  C   UNL     1      48.507   5.709  17.121  0.00  0.00    +0.000 A 
ATOM     18  C   UNL     1      48.132   5.749  15.777  0.00  0.00    +0.000 A 
ATOM     19  C   UNL     1      47.358   4.723  15.239  0.00  0.00    +0.000 A 
ATOM     20  N   UNL     1      46.972   4.682  13.928  0.00  0.00    +0.000 N 
ATOM     21  N   UNL     1      46.951   3.687  16.000  0.00  0.00    +0.000 NA
ATOM     22  C   UNL     1      47.321   3.665  17.306  0.00  0.00    +0.000 A 
ATOM     23  H   UNL     1      46.392   3.891  13.671  0.00  0.00    +0.000 HD
BRANCH  16  25
ATOM     24  N   UNL     1      48.759   4.468  20.402  0.00  0.00    +0.000 NA
ATOM     25  C   UNL     1      48.459   4.552  19.284  0.00  0.00    +0.000 C 
ENDBRANCH  16  25
ENDBRANCH  15  20
ENDBRANCH   1  15
TORSDOF 6
ENDMDL
MODEL 6
REMARK VINA RESULT:    -6.617      3.968      8.167
REMARK INTER + INTRA:         -10.013
REMARK INTER:                  -9.265
REMARK INTRA:                  -0.748
REMARK UNBOUND:                -1.075
REMARK  Name = 
REMARK  6 active torsions:
REMARK  status: ('A' for Active; 'I' for Inactive)
REMARK    1  A    between atoms: C_2  and  C_3
REMARK    2  A    between atoms: N_7  and  C_8
REMARK    3  A    between atoms: C_8  and  C_9
REMARK    4  A    between atoms: C_9  and  C_12
REMARK    5  A    between atoms: C_16  and  O_17
REMARK    6  A    between atoms: O_17  and  C_18
REMARK                            x       y       z     vdW  Elec       q    Type
REMARK                         _______ _______ _______ _____ _____    ______ ____
ROOT
ATOM      1  C   UNL     1      46.554   6.553  12.602  0.00  0.00    +0.000 C 
ATOM      2  F   UNL     1      46.203   7.667  13.311  0.00  0.00    +0.000 F 
ATOM      3  F   UNL     1      47.327   7.012  11.572  0.00  0.00    +0.000 F 
ENDROOT
BRANCH   1   4
ATOM      4  C   UNL     1      45.346   5.778  12.110  0.00  0.00    +0.000 A 
ATOM      5  C   UNL     1      44.171   5.725  12.875  0.00  0.00    +0.000 A 
ATOM      6  C   UNL     1      43.038   5.075  12.383  0.00  0.00    +0.000 A 
ATOM      7  C   UNL     1      43.059   4.469  11.124  0.00  0.00    +0.000 A 
ATOM      8  C   UNL     1      44.222   4.505  10.359  0.00  0.00    +0.000 A 
ATOM      9  C   UNL     1      45.356   5.159  10.850  0.00  0.00    +0.000 A 
BRANCH   8  10
ATOM     10  O   UNL     1      44.356   3.985   9.097  0.00  0.00    +0.000 OA
BRANCH  10  11
ATOM     11  C   UNL     1      45.640   3.492   8.660  0.00  0.00    +0.000 C 
ATOM     12  C   UNL     1      45.903   3.457   7.133  0.00  0.00    +0.000 C 
ATOM     13  C   UNL     1      46.512   2.055   7.310  0.00  0.00    +0.000 C 
ATOM     14  C   UNL     1      45.736   1.943   8.631  0.00  0.00    +0.000 C 
ENDBRANCH  10  11
ENDBRANCH   8  10
ENDBRANCH   1   4
BRANCH   1  15
ATOM     15  C   UNL     1      47.418   5.638  13.505  0.00  0.00    +0.000 C 
BRANCH  15  20
ATOM     16  C   UNL     1      48.392   4.947  18.503  0.00  0.00    +0.000 A 
ATOM     17  C   UNL     1      47.676   4.181  17.594  0.00  0.00    +0.000 A 
ATOM     18  C   UNL     1      47.560   4.621  16.274  0.00  0.00    +0.000 A 
ATOM     19  C   UNL     1      48.157   5.818  15.885  0.00  0.00    +0.000 A 
ATOM     20  N   UNL     1      48.068   6.323  14.618  0.00  0.00    +0.000 N 
ATOM     21  N   UNL     1      48.858   6.563  16.762  0.00  0.00    +0.000 NA
ATOM     22  C   UNL     1      48.965   6.119  18.041  0.00  0.00    +0.000 A 
ATOM     23  H   UNL     1      48.567   7.193  14.461  0.00  0.00    +0.000 HD
BRANCH  16  25
ATOM     24  N   UNL     1      48.642   4.226  20.976  0.00  0.00    +0.000 NA
ATOM     25  C   UNL     1      48.532   4.544  19.865  0.00  0.00    +0.000 C 
ENDBRANCH  16  25
ENDBRANCH  15  20
ENDBRANCH   1  15
TORSDOF 6
ENDMDL
MODEL 7
REMARK VINA RESULT:    -6.432      3.942      7.747
REMARK INTER + INTRA:          -9.763
REMARK INTER:                  -8.855
REMARK INTRA:                  -0.908
REMARK UNBOUND:                -1.075
REMARK  Name = 
REMARK  6 active torsions:
REMARK  status: ('A' for Active; 'I' for Inactive)
REMARK    1  A    between atoms: C_2  and  C_3
REMARK    2  A    between atoms: N_7  and  C_8
REMARK    3  A    between atoms: C_8  and  C_9
REMARK    4  A    between atoms: C_9  and  C_12
REMARK    5  A    between atoms: C_16  and  O_17
REMARK    6  A    between atoms: O_17  and  C_18
REMARK                            x       y       z     vdW  Elec       q    Type
REMARK                         _______ _______ _______ _____ _____    ______ ____
ROOT
ATOM      1  C   UNL     1      45.367   7.148  11.943  0.00  0.00    +0.000 C 
ATOM      2  F   UNL     1      45.052   7.709  13.148  0.00  0.00    +0.000 F 
ATOM      3  F   UNL     1      44.915   8.034  11.005  0.00  0.00    +0.000 F 
ENDROOT
BRANCH   1   4
ATOM      4  C   UNL     1      44.756   5.770  11.770  0.00  0.00    +0.000 A 
ATOM      5  C   UNL     1      43.992   5.194  12.795  0.00  0.00    +0.000 A 
ATOM      6  C   UNL     1      43.369   3.960  12.603  0.00  0.00    +0.000 A 
ATOM      7  C   UNL     1      43.500   3.282  11.387  0.00  0.00    +0.000 A 
ATOM      8  C   UNL     1      44.264   3.838  10.365  0.00  0.00    +0.000 A 
ATOM      9  C   UNL     1      44.885   5.076  10.556  0.00  0.00    +0.000 A 
BRANCH   8  10
ATOM     10  O   UNL     1      44.434   3.293   9.118  0.00  0.00    +0.000 OA
BRANCH  10  11
ATOM     11  C   UNL     1      45.767   3.093   8.602  0.00  0.00    +0.000 C 
ATOM     12  C   UNL     1      45.993   3.373   7.094  0.00  0.00    +0.000 C 
ATOM     13  C   UNL     1      46.815   2.075   7.017  0.00  0.00    +0.000 C 
ATOM     14  C   UNL     1      46.100   1.608   8.294  0.00  0.00    +0.000 C 
ENDBRANCH  10  11
ENDBRANCH   8  10
ENDBRANCH   1   4
BRANCH   1  15
ATOM     15  C   UNL     1      46.908   7.045  11.828  0.00  0.00    +0.000 C 
BRANCH  15  20
ATOM     16  C   UNL     1      49.156   7.870  16.375  0.00  0.00    +0.000 A 
ATOM     17  C   UNL     1      48.646   8.751  15.431  0.00  0.00    +0.000 A 
ATOM     18  C   UNL     1      48.091   8.242  14.256  0.00  0.00    +0.000 A 
ATOM     19  C   UNL     1      48.055   6.867  14.041  0.00  0.00    +0.000 A 
ATOM     20  N   UNL     1      47.548   6.297  12.906  0.00  0.00    +0.000 N 
ATOM     21  N   UNL     1      48.543   6.007  14.956  0.00  0.00    +0.000 NA
ATOM     22  C   UNL     1      49.077   6.517  16.096  0.00  0.00    +0.000 A 
ATOM     23  H   UNL     1      47.562   5.283  12.885  0.00  0.00    +0.000 HD
BRANCH  16  25
ATOM     24  N   UNL     1      50.211   8.732  18.575  0.00  0.00    +0.000 NA
ATOM     25  C   UNL     1      49.742   8.340  17.588  0.00  0.00    +0.000 C 
ENDBRANCH  16  25
ENDBRANCH  15  20
ENDBRANCH   1  15
TORSDOF 6
ENDMDL
MODEL 8
REMARK VINA RESULT:    -6.283      4.150      7.298
REMARK INTER + INTRA:          -9.562
REMARK INTER:                  -8.993
REMARK INTRA:                  -0.569
REMARK UNBOUND:                -1.075
REMARK  Name = 
REMARK  6 active torsions:
REMARK  status: ('A' for Active; 'I' for Inactive)
REMARK    1  A    between atoms: C_2  and  C_3
REMARK    2  A    between atoms: N_7  and  C_8
REMARK    3  A    between atoms: C_8  and  C_9
REMARK    4  A    between atoms: C_9  and  C_12
REMARK    5  A    between atoms: C_16  and  O_17
REMARK    6  A    between atoms: O_17  and  C_18
REMARK                            x       y       z     vdW  Elec       q    Type
REMARK                         _______ _______ _______ _____ _____    ______ ____
ROOT
ATOM      1  C   UNL     1      45.562   5.931  12.821  0.00  0.00    +0.000 C 
ATOM      2  F   UNL     1      45.960   5.359  13.995  0.00  0.00    +0.000 F 
ATOM      3  F   UNL     1      44.577   6.815  13.167  0.00  0.00    +0.000 F 
ENDROOT
BRANCH   1   4
ATOM      4  C   UNL     1      45.081   4.905  11.812  0.00  0.00    +0.000 A 
ATOM      5  C   UNL     1      44.200   3.884  12.197  0.00  0.00    +0.000 A 
ATOM      6  C   UNL     1      43.700   2.989  11.250  0.00  0.00    +0.000 A 
ATOM      7  C   UNL     1      44.073   3.097   9.907  0.00  0.00    +0.000 A 
ATOM      8  C   UNL     1      44.955   4.099   9.514  0.00  0.00    +0.000 A 
ATOM      9  C   UNL     1      45.453   4.999  10.462  0.00  0.00    +0.000 A 
BRANCH   8  10
ATOM     10  O   UNL     1      45.363   4.334   8.225  0.00  0.00    +0.000 OA
BRANCH  10  11
ATOM     11  C   UNL     1      45.597   3.221   7.337  0.00  0.00    +0.000 C 
ATOM     12  C   UNL     1      46.412   2.026   7.895  0.00  0.00    +0.000 C 
ATOM     13  C   UNL     1      47.196   1.995   6.572  0.00  0.00    +0.000 C 
ATOM     14  C   UNL     1      46.767   3.452   6.343  0.00  0.00    +0.000 C 
ENDBRANCH  10  11
ENDBRANCH   8  10
ENDBRANCH   1   4
BRANCH   1  15
ATOM     15  C   UNL     1      46.751   6.722  12.222  0.00  0.00    +0.000 C 
BRANCH  15  20
ATOM     16  C   UNL     1      51.583   8.473  12.293  0.00  0.00    +0.000 A 
ATOM     17  C   UNL     1      50.742   8.143  11.239  0.00  0.00    +0.000 A 
ATOM     18  C   UNL     1      49.457   7.672  11.514  0.00  0.00    +0.000 A 
ATOM     19  C   UNL     1      49.033   7.536  12.834  0.00  0.00    +0.000 A 
ATOM     20  N   UNL     1      47.799   7.060  13.180  0.00  0.00    +0.000 N 
ATOM     21  N   UNL     1      49.843   7.860  13.861  0.00  0.00    +0.000 NA
ATOM     22  C   UNL     1      51.088   8.320  13.577  0.00  0.00    +0.000 A 
ATOM     23  H   UNL     1      47.609   7.031  14.176  0.00  0.00    +0.000 HD
BRANCH  16  25
ATOM     24  N   UNL     1      53.982   9.345  11.870  0.00  0.00    +0.000 NA
ATOM     25  C   UNL     1      52.907   8.951  12.065  0.00  0.00    +0.000 C 
ENDBRANCH  16  25
ENDBRANCH  15  20
ENDBRANCH   1  15
TORSDOF 6
ENDMDL
