MODEL 1
REMARK VINA RESULT:    -6.649      0.000      0.000
REMARK INTER + INTRA:          -8.286
REMARK INTER:                  -8.009
REMARK INTRA:                  -0.277
REMARK UNBOUND:                -0.277
REMARK  Name = 
REMARK  4 active torsions:
REMARK  status: ('A' for Active; 'I' for Inactive)
REMARK    1  A    between atoms: N_1  and  C_2
REMARK    2  A    between atoms: C_2  and  C_3
REMARK    3  A    between atoms: N_6  and  C_7
REMARK    4  A    between atoms: C_7  and  C_8
REMARK                            x       y       z     vdW  Elec       q    Type
REMARK                         _______ _______ _______ _____ _____    ______ ____
ROOT
ATOM      1  C   UNL     1      44.055   6.268  11.397  0.00  0.00    +0.000 C 
ENDROOT
BRANCH   1   2
ATOM      2  C   UNL     1      44.026   4.780  11.143  0.00  0.00    +0.000 A 
ATOM      3  C   UNL     1      43.353   3.830  11.887  0.00  0.00    +0.000 A 
ATOM      4  N   UNL     1      43.533   2.609  11.301  0.00  0.00    +0.000 N 
ATOM      5  C   UNL     1      44.279   2.739  10.153  0.00  0.00    +0.000 A 
ATOM      6  C   UNL     1      44.643   1.775   9.201  0.00  0.00    +0.000 A 
ATOM      7  C   UNL     1      45.403   2.196   8.109  0.00  0.00    +0.000 A 
ATOM      8  C   UNL     1      45.816   3.521   8.002  0.00  0.00    +0.000 A 
ATOM      9 CL   UNL     1      46.749   4.011   6.639  0.00  0.00    +0.000 Cl
ATOM     10  C   UNL     1      45.467   4.471   8.970  0.00  0.00    +0.000 A 
ATOM     11  C   UNL     1      44.649   4.079  10.055  0.00  0.00    +0.000 A 
ATOM     12  H   UNL     1      43.149   1.738  11.637  0.00  0.00    +0.000 HD
ENDBRANCH   1   2
BRANCH   1  16
ATOM     13  C   UNL     1      47.641   7.690  13.356  0.00  0.00    +0.000 C 
ATOM     14  C   UNL     1      47.189   6.237  13.539  0.00  0.00    +0.000 C 
ATOM     15  C   UNL     1      46.198   5.816  12.448  0.00  0.00    +0.000 C 
ATOM     16  N   UNL     1      44.981   6.638  12.485  0.00  0.00    +0.000 NA
ATOM     17  C   UNL     1      45.289   8.079  12.379  0.00  0.00    +0.000 C 
ATOM     18  C   UNL     1      46.384   8.573  13.335  0.00  0.00    +0.000 C 
BRANCH  13  19
ATOM     19  C   UNL     1      48.553   7.793  12.117  0.00  0.00    +0.000 C 
BRANCH  19  20
ATOM     20  N   UNL     1      49.809   7.061  12.230  0.00  0.00    +0.000 NA
ATOM     21  H   UNL     1      49.659   6.236  12.806  0.00  0.00    +0.000 HD
ATOM     22  H   UNL     1      50.483   7.630  12.745  0.00  0.00    +0.000 HD
ENDBRANCH  19  20
ENDBRANCH  13  19
ENDBRANCH   1  16
TORSDOF 4
ENDMDL
MODEL 2
REMARK VINA RESULT:    -6.290      2.109      3.092
REMARK INTER + INTRA:          -7.854
REMARK INTER:                  -7.935
REMARK INTRA:                   0.082
REMARK UNBOUND:                -0.277
REMARK  Name = 
REMARK  4 active torsions:
REMARK  status: ('A' for Active; 'I' for Inactive)
REMARK    1  A    between atoms: N_1  and  C_2
REMARK    2  A    between atoms: C_2  and  C_3
REMARK    3  A    between atoms: N_6  and  C_7
REMARK    4  A    between atoms: C_7  and  C_8
REMARK                            x       y       z     vdW  Elec       q    Type
REMARK                         _______ _______ _______ _____ _____    ______ ____
ROOT
ATOM      1  C   UNL     1      43.847   3.247  10.644  0.00  0.00    +0.000 C 
ENDROOT
BRANCH   1   2
ATOM      2  C   UNL     1      44.776   3.658   9.528  0.00  0.00    +0.000 A 
ATOM      3  C   UNL     1      45.109   4.949   9.167  0.00  0.00    +0.000 A 
ATOM      4  N   UNL     1      46.019   4.896   8.147  0.00  0.00    +0.000 N 
ATOM      5  C   UNL     1      46.330   3.588   7.857  0.00  0.00    +0.000 A 
ATOM      6  C   UNL     1      47.259   3.064   6.946  0.00  0.00    +0.000 A 
ATOM      7  C   UNL     1      47.378   1.676   6.867  0.00  0.00    +0.000 A 
ATOM      8  C   UNL     1      46.567   0.850   7.640  0.00  0.00    +0.000 A 
ATOM      9 CL   UNL     1      46.743  -0.860   7.524  0.00  0.00    +0.000 Cl
ATOM     10  C   UNL     1      45.625   1.383   8.529  0.00  0.00    +0.000 A 
ATOM     11  C   UNL     1      45.527   2.786   8.667  0.00  0.00    +0.000 A 
ATOM     12  H   UNL     1      46.432   5.696   7.693  0.00  0.00    +0.000 HD
ENDBRANCH   1   2
BRANCH   1  16
ATOM     13  C   UNL     1      46.177   5.395  13.590  0.00  0.00    +0.000 C 
ATOM     14  C   UNL     1      46.173   3.863  13.581  0.00  0.00    +0.000 C 
ATOM     15  C   UNL     1      45.679   3.312  12.238  0.00  0.00    +0.000 C 
ATOM     16  N   UNL     1      44.299   3.732  11.963  0.00  0.00    +0.000 NA
ATOM     17  C   UNL     1      44.155   5.202  12.004  0.00  0.00    +0.000 C 
ATOM     18  C   UNL     1      44.756   5.871  13.249  0.00  0.00    +0.000 C 
BRANCH  13  19
ATOM     19  C   UNL     1      47.296   5.913  12.663  0.00  0.00    +0.000 C 
BRANCH  19  20
ATOM     20  N   UNL     1      48.513   6.320  13.356  0.00  0.00    +0.000 NA
ATOM     21  H   UNL     1      48.514   5.910  14.288  0.00  0.00    +0.000 HD
ATOM     22  H   UNL     1      48.491   7.330  13.507  0.00  0.00    +0.000 HD
ENDBRANCH  19  20
ENDBRANCH  13  19
ENDBRANCH   1  16
TORSDOF 4
ENDMDL
MODEL 3
REMARK VINA RESULT:    -6.073      2.491      6.231
REMARK INTER + INTRA:          -7.593
REMARK INTER:                  -7.176
REMARK INTRA:                  -0.417
REMARK UNBOUND:                -0.277
REMARK  Name = 
REMARK  4 active torsions:
REMARK  status: ('A' for Active; 'I' for Inactive)
REMARK    1  A    between atoms: N_1  and  C_2
REMARK    2  A    between atoms: C_2  and  C_3
REMARK    3  A    between atoms: N_6  and  C_7
REMARK    4  A    between atoms: C_7  and  C_8
REMARK                            x       y       z     vdW  Elec       q    Type
REMARK                         _______ _______ _______ _____ _____    ______ ____
ROOT
ATOM      1  C   UNL     1      45.928   5.187  12.213  0.00  0.00    +0.000 C 
ENDROOT
BRANCH   1   2
ATOM      2  C   UNL     1      45.861   6.693  12.287  0.00  0.00    +0.000 A 
ATOM      3  C   UNL     1      44.759   7.453  12.630  0.00  0.00    +0.000 A 
ATOM      4  N   UNL     1      45.122   8.771  12.632  0.00  0.00    +0.000 N 
ATOM      5  C   UNL     1      46.460   8.895  12.340  0.00  0.00    +0.000 A 
ATOM      6  C   UNL     1      47.271  10.039  12.304  0.00  0.00    +0.000 A 
ATOM      7  C   UNL     1      48.620   9.868  11.987  0.00  0.00    +0.000 A 
ATOM      8  C   UNL     1      49.120   8.607  11.675  0.00  0.00    +0.000 A 
ATOM      9 CL   UNL     1      50.790   8.427  11.293  0.00  0.00    +0.000 Cl
ATOM     10  C   UNL     1      48.295   7.475  11.690  0.00  0.00    +0.000 A 
ATOM     11  C   UNL     1      46.940   7.616  12.065  0.00  0.00    +0.000 A 
ATOM     12  H   UNL     1      44.510   9.543  12.850  0.00  0.00    +0.000 HD
ENDBRANCH   1   2
BRANCH   1  16
ATOM     13  C   UNL     1      44.592   2.850   8.825  0.00  0.00    +0.000 C 
ATOM     14  C   UNL     1      44.553   4.381   8.767  0.00  0.00    +0.000 C 
ATOM     15  C   UNL     1      45.456   5.006   9.837  0.00  0.00    +0.000 C 
ATOM     16  N   UNL     1      45.022   4.631  11.189  0.00  0.00    +0.000 NA
ATOM     17  C   UNL     1      44.958   3.164  11.356  0.00  0.00    +0.000 C 
ATOM     18  C   UNL     1      44.196   2.424  10.247  0.00  0.00    +0.000 C 
BRANCH  13  19
ATOM     19  C   UNL     1      45.967   2.351   8.336  0.00  0.00    +0.000 C 
BRANCH  19  20
ATOM     20  N   UNL     1      46.094   0.900   8.274  0.00  0.00    +0.000 NA
ATOM     21  H   UNL     1      47.074   0.659   8.142  0.00  0.00    +0.000 HD
ATOM     22  H   UNL     1      45.618   0.557   7.438  0.00  0.00    +0.000 HD
ENDBRANCH  19  20
ENDBRANCH  13  19
ENDBRANCH   1  16
TORSDOF 4
ENDMDL
MODEL 4
REMARK VINA RESULT:    -5.814      2.441      6.328
REMARK INTER + INTRA:          -7.280
REMARK INTER:                  -6.983
REMARK INTRA:                  -0.297
REMARK UNBOUND:                -0.277
REMARK  Name = 
REMARK  4 active torsions:
REMARK  status: ('A' for Active; 'I' for Inactive)
REMARK    1  A    between atoms: N_1  and  C_2
REMARK    2  A    between atoms: C_2  and  C_3
REMARK    3  A    between atoms: N_6  and  C_7
REMARK    4  A    between atoms: C_7  and  C_8
REMARK                            x       y       z     vdW  Elec       q    Type
REMARK                         _______ _______ _______ _____ _____    ______ ____
ROOT
ATOM      1  C   UNL     1      46.451   6.007  12.969  0.00  0.00    +0.000 C 
ENDROOT
BRANCH   1   2
ATOM      2  C   UNL     1      46.587   7.487  12.704  0.00  0.00    +0.000 A 
ATOM      3  C   UNL     1      45.645   8.462  12.971  0.00  0.00    +0.000 A 
ATOM      4  N   UNL     1      46.171   9.679  12.638  0.00  0.00    +0.000 N 
ATOM      5  C   UNL     1      47.466   9.532  12.197  0.00  0.00    +0.000 A 
ATOM      6  C   UNL     1      48.405  10.504  11.825  0.00  0.00    +0.000 A 
ATOM      7  C   UNL     1      49.669  10.065  11.426  0.00  0.00    +0.000 A 
ATOM      8  C   UNL     1      49.959   8.706  11.362  0.00  0.00    +0.000 A 
ATOM      9 CL   UNL     1      51.530   8.195  10.871  0.00  0.00    +0.000 Cl
ATOM     10  C   UNL     1      49.005   7.742  11.713  0.00  0.00    +0.000 A 
ATOM     11  C   UNL     1      47.738   8.165  12.175  0.00  0.00    +0.000 A 
ATOM     12  H   UNL     1      45.696  10.564  12.732  0.00  0.00    +0.000 HD
ENDBRANCH   1   2
BRANCH   1  16
ATOM     13  C   UNL     1      43.626   3.524  10.829  0.00  0.00    +0.000 C 
ATOM     14  C   UNL     1      43.674   5.033  10.569  0.00  0.00    +0.000 C 
ATOM     15  C   UNL     1      44.992   5.645  11.060  0.00  0.00    +0.000 C 
ATOM     16  N   UNL     1      45.155   5.468  12.509  0.00  0.00    +0.000 NA
ATOM     17  C   UNL     1      45.066   4.047  12.901  0.00  0.00    +0.000 C 
ATOM     18  C   UNL     1      43.850   3.300  12.333  0.00  0.00    +0.000 C 
BRANCH  13  19
ATOM     19  C   UNL     1      44.617   2.807   9.890  0.00  0.00    +0.000 C 
BRANCH  19  20
ATOM     20  N   UNL     1      44.313   2.948   8.471  0.00  0.00    +0.000 NA
ATOM     21  H   UNL     1      43.737   3.777   8.338  0.00  0.00    +0.000 HD
ATOM     22  H   UNL     1      43.728   2.165   8.174  0.00  0.00    +0.000 HD
ENDBRANCH  19  20
ENDBRANCH  13  19
ENDBRANCH   1  16
TORSDOF 4
ENDMDL
MODEL 5
REMARK VINA RESULT:    -5.786      3.413      5.018
REMARK INTER + INTRA:          -7.247
REMARK INTER:                  -7.182
REMARK INTRA:                  -0.065
REMARK UNBOUND:                -0.277
REMARK  Name = 
REMARK  4 active torsions:
REMARK  status: ('A' for Active; 'I' for Inactive)
REMARK    1  A    between atoms: N_1  and  C_2
REMARK    2  A    between atoms: C_2  and  C_3
REMARK    3  A    between atoms: N_6  and  C_7
REMARK    4  A    between atoms: C_7  and  C_8
REMARK                            x       y       z     vdW  Elec       q    Type
REMARK                         _______ _______ _______ _____ _____    ______ ____
ROOT
ATOM      1  C   UNL     1      47.682   5.637  13.754  0.00  0.00    +0.000 C 
ENDROOT
BRANCH   1   2
ATOM      2  C   UNL     1      46.431   6.266  13.191  0.00  0.00    +0.000 A 
ATOM      3  C   UNL     1      46.199   7.615  13.004  0.00  0.00    +0.000 A 
ATOM      4  N   UNL     1      44.972   7.770  12.422  0.00  0.00    +0.000 N 
ATOM      5  C   UNL     1      44.405   6.542  12.177  0.00  0.00    +0.000 A 
ATOM      6  C   UNL     1      43.201   6.219  11.534  0.00  0.00    +0.000 A 
ATOM      7  C   UNL     1      42.875   4.867  11.410  0.00  0.00    +0.000 A 
ATOM      8  C   UNL     1      43.702   3.886  11.948  0.00  0.00    +0.000 A 
ATOM      9 CL   UNL     1      43.275   2.226  11.773  0.00  0.00    +0.000 Cl
ATOM     10  C   UNL     1      44.890   4.221  12.609  0.00  0.00    +0.000 A 
ATOM     11  C   UNL     1      45.270   5.580  12.696  0.00  0.00    +0.000 A 
ATOM     12  H   UNL     1      44.553   8.654  12.174  0.00  0.00    +0.000 HD
ENDBRANCH   1   2
BRANCH   1  16
ATOM     13  C   UNL     1      48.583   3.781  17.557  0.00  0.00    +0.000 C 
ATOM     14  C   UNL     1      47.374   3.313  16.741  0.00  0.00    +0.000 C 
ATOM     15  C   UNL     1      47.482   3.755  15.276  0.00  0.00    +0.000 C 
ATOM     16  N   UNL     1      47.520   5.218  15.160  0.00  0.00    +0.000 NA
ATOM     17  C   UNL     1      48.617   5.803  15.960  0.00  0.00    +0.000 C 
ATOM     18  C   UNL     1      48.686   5.307  17.412  0.00  0.00    +0.000 C 
BRANCH  13  19
ATOM     19  C   UNL     1      49.832   2.982  17.131  0.00  0.00    +0.000 C 
BRANCH  19  20
ATOM     20  N   UNL     1      49.547   1.807  16.316  0.00  0.00    +0.000 NA
ATOM     21  H   UNL     1      48.821   2.042  15.642  0.00  0.00    +0.000 HD
ATOM     22  H   UNL     1      49.139   1.080  16.906  0.00  0.00    +0.000 HD
ENDBRANCH  19  20
ENDBRANCH  13  19
ENDBRANCH   1  16
TORSDOF 4
ENDMDL
MODEL 6
REMARK VINA RESULT:    -5.719      4.255      5.784
REMARK INTER + INTRA:          -7.167
REMARK INTER:                  -7.107
REMARK INTRA:                  -0.059
REMARK UNBOUND:                -0.277
REMARK  Name = 
REMARK  4 active torsions:
REMARK  status: ('A' for Active; 'I' for Inactive)
REMARK    1  A    between atoms: N_1  and  C_2
REMARK    2  A    between atoms: C_2  and  C_3
REMARK    3  A    between atoms: N_6  and  C_7
REMARK    4  A    between atoms: C_7  and  C_8
REMARK                            x       y       z     vdW  Elec       q    Type
REMARK                         _______ _______ _______ _____ _____    ______ ____
ROOT
ATOM      1  C   UNL     1      47.160   4.389  15.477  0.00  0.00    +0.000 C 
ENDROOT
BRANCH   1   2
ATOM      2  C   UNL     1      47.086   5.196  14.204  0.00  0.00    +0.000 A 
ATOM      3  C   UNL     1      47.910   6.245  13.844  0.00  0.00    +0.000 A 
ATOM      4  N   UNL     1      47.553   6.672  12.596  0.00  0.00    +0.000 N 
ATOM      5  C   UNL     1      46.534   5.892  12.101  0.00  0.00    +0.000 A 
ATOM      6  C   UNL     1      45.910   5.918  10.846  0.00  0.00    +0.000 A 
ATOM      7  C   UNL     1      44.898   4.986  10.606  0.00  0.00    +0.000 A 
ATOM      8  C   UNL     1      44.502   4.098  11.601  0.00  0.00    +0.000 A 
ATOM      9 CL   UNL     1      43.254   2.957  11.273  0.00  0.00    +0.000 Cl
ATOM     10  C   UNL     1      45.116   4.097  12.860  0.00  0.00    +0.000 A 
ATOM     11  C   UNL     1      46.182   4.993  13.106  0.00  0.00    +0.000 A 
ATOM     12  H   UNL     1      47.993   7.427  12.090  0.00  0.00    +0.000 HD
ENDBRANCH   1   2
BRANCH   1  16
ATOM     13  C   UNL     1      49.875   4.850  18.815  0.00  0.00    +0.000 C 
ATOM     14  C   UNL     1      49.632   6.019  17.854  0.00  0.00    +0.000 C 
ATOM     15  C   UNL     1      48.347   5.819  17.042  0.00  0.00    +0.000 C 
ATOM     16  N   UNL     1      48.421   4.609  16.213  0.00  0.00    +0.000 NA
ATOM     17  C   UNL     1      48.715   3.408  17.022  0.00  0.00    +0.000 C 
ATOM     18  C   UNL     1      49.903   3.558  17.984  0.00  0.00    +0.000 C 
BRANCH  13  19
ATOM     19  C   UNL     1      48.834   4.892  19.952  0.00  0.00    +0.000 C 
BRANCH  19  20
ATOM     20  N   UNL     1      48.534   3.593  20.542  0.00  0.00    +0.000 NA
ATOM     21  H   UNL     1      47.524   3.460  20.553  0.00  0.00    +0.000 HD
ATOM     22  H   UNL     1      48.814   3.597  21.524  0.00  0.00    +0.000 HD
ENDBRANCH  19  20
ENDBRANCH  13  19
ENDBRANCH   1  16
TORSDOF 4
ENDMDL
MODEL 7
REMARK VINA RESULT:    -5.669      2.595      6.480
REMARK INTER + INTRA:          -7.105
REMARK INTER:                  -6.775
REMARK INTRA:                  -0.330
REMARK UNBOUND:                -0.277
REMARK  Name = 
REMARK  4 active torsions:
REMARK  status: ('A' for Active; 'I' for Inactive)
REMARK    1  A    between atoms: N_1  and  C_2
REMARK    2  A    between atoms: C_2  and  C_3
REMARK    3  A    between atoms: N_6  and  C_7
REMARK    4  A    between atoms: C_7  and  C_8
REMARK                            x       y       z     vdW  Elec       q    Type
REMARK                         _______ _______ _______ _____ _____    ______ ____
ROOT
ATOM      1  C   UNL     1      46.527   5.912  13.364  0.00  0.00    +0.000 C 
ENDROOT
BRANCH   1   2
ATOM      2  C   UNL     1      47.506   6.976  12.931  0.00  0.00    +0.000 A 
ATOM      3  C   UNL     1      48.875   6.837  12.814  0.00  0.00    +0.000 A 
ATOM      4  N   UNL     1      49.394   8.010  12.343  0.00  0.00    +0.000 N 
ATOM      5  C   UNL     1      48.385   8.912  12.102  0.00  0.00    +0.000 A 
ATOM      6  C   UNL     1      48.442  10.201  11.551  0.00  0.00    +0.000 A 
ATOM      7  C   UNL     1      47.240  10.898  11.405  0.00  0.00    +0.000 A 
ATOM      8  C   UNL     1      46.041  10.339  11.836  0.00  0.00    +0.000 A 
ATOM      9 CL   UNL     1      44.575  11.222  11.637  0.00  0.00    +0.000 Cl
ATOM     10  C   UNL     1      45.998   9.061  12.407  0.00  0.00    +0.000 A 
ATOM     11  C   UNL     1      47.194   8.314  12.511  0.00  0.00    +0.000 A 
ATOM     12  H   UNL     1      50.372   8.184  12.163  0.00  0.00    +0.000 HD
ENDBRANCH   1   2
BRANCH   1  16
ATOM     13  C   UNL     1      43.259   4.346  10.999  0.00  0.00    +0.000 C 
ATOM     14  C   UNL     1      44.306   5.259  10.354  0.00  0.00    +0.000 C 
ATOM     15  C   UNL     1      45.582   5.336  11.202  0.00  0.00    +0.000 C 
ATOM     16  N   UNL     1      45.307   5.894  12.532  0.00  0.00    +0.000 NA
ATOM     17  C   UNL     1      44.259   5.131  13.241  0.00  0.00    +0.000 C 
ATOM     18  C   UNL     1      42.988   4.870  12.418  0.00  0.00    +0.000 C 
BRANCH  13  19
ATOM     19  C   UNL     1      43.727   2.879  10.907  0.00  0.00    +0.000 C 
BRANCH  19  20
ATOM     20  N   UNL     1      42.993   1.957  11.766  0.00  0.00    +0.000 NA
ATOM     21  H   UNL     1      43.042   2.291  12.726  0.00  0.00    +0.000 HD
ATOM     22  H   UNL     1      43.468   1.053  11.771  0.00  0.00    +0.000 HD
ENDBRANCH  19  20
ENDBRANCH  13  19
ENDBRANCH   1  16
TORSDOF 4
ENDMDL
MODEL 8
REMARK VINA RESULT:    -5.301      3.568      7.116
REMARK INTER + INTRA:          -6.663
REMARK INTER:                  -6.300
REMARK INTRA:                  -0.364
REMARK UNBOUND:                -0.277
REMARK  Name = 
REMARK  4 active torsions:
REMARK  status: ('A' for Active; 'I' for Inactive)
REMARK    1  A    between atoms: N_1  and  C_2
REMARK    2  A    between atoms: C_2  and  C_3
REMARK    3  A    between atoms: N_6  and  C_7
REMARK    4  A    between atoms: C_7  and  C_8
REMARK                            x       y       z     vdW  Elec       q    Type
REMARK                         _______ _______ _______ _____ _____    ______ ____
ROOT
ATOM      1  C   UNL     1      47.465   5.789  12.889  0.00  0.00    +0.000 C 
ENDROOT
BRANCH   1   2
ATOM      2  C   UNL     1      48.020   6.348  14.176  0.00  0.00    +0.000 A 
ATOM      3  C   UNL     1      48.560   7.606  14.363  0.00  0.00    +0.000 A 
ATOM      4  N   UNL     1      48.897   7.744  15.681  0.00  0.00    +0.000 N 
ATOM      5  C   UNL     1      48.546   6.614  16.382  0.00  0.00    +0.000 A 
ATOM      6  C   UNL     1      48.634   6.343  17.755  0.00  0.00    +0.000 A 
ATOM      7  C   UNL     1      48.184   5.099  18.200  0.00  0.00    +0.000 A 
ATOM      8  C   UNL     1      47.708   4.153  17.298  0.00  0.00    +0.000 A 
ATOM      9 CL   UNL     1      47.155   2.628  17.879  0.00  0.00    +0.000 Cl
ATOM     10  C   UNL     1      47.648   4.425  15.925  0.00  0.00    +0.000 A 
ATOM     11  C   UNL     1      48.044   5.699  15.458  0.00  0.00    +0.000 A 
ATOM     12  H   UNL     1      49.312   8.567  16.093  0.00  0.00    +0.000 HD
ENDBRANCH   1   2
BRANCH   1  16
ATOM     13  C   UNL     1      43.414   4.897  11.659  0.00  0.00    +0.000 C 
ATOM     14  C   UNL     1      43.999   6.293  11.424  0.00  0.00    +0.000 C 
ATOM     15  C   UNL     1      45.530   6.280  11.505  0.00  0.00    +0.000 C 
ATOM     16  N   UNL     1      45.991   5.855  12.833  0.00  0.00    +0.000 NA
ATOM     17  C   UNL     1      45.442   4.536  13.208  0.00  0.00    +0.000 C 
ATOM     18  C   UNL     1      43.924   4.397  13.020  0.00  0.00    +0.000 C 
BRANCH  13  19
ATOM     19  C   UNL     1      43.736   3.993  10.451  0.00  0.00    +0.000 C 
BRANCH  19  20
ATOM     20  N   UNL     1      43.710   2.565  10.744  0.00  0.00    +0.000 NA
ATOM     21  H   UNL     1      44.667   2.221  10.795  0.00  0.00    +0.000 HD
ATOM     22  H   UNL     1      43.289   2.068   9.957  0.00  0.00    +0.000 HD
ENDBRANCH  19  20
ENDBRANCH  13  19
ENDBRANCH   1  16
TORSDOF 4
ENDMDL
MODEL 9
REMARK VINA RESULT:    -5.190      3.082      7.062
REMARK INTER + INTRA:          -6.529
REMARK INTER:                  -6.169
REMARK INTRA:                  -0.360
REMARK UNBOUND:                -0.277
REMARK  Name = 
REMARK  4 active torsions:
REMARK  status: ('A' for Active; 'I' for Inactive)
REMARK    1  A    between atoms: N_1  and  C_2
REMARK    2  A    between atoms: C_2  and  C_3
REMARK    3  A    between atoms: N_6  and  C_7
REMARK    4  A    between atoms: C_7  and  C_8
REMARK                            x       y       z     vdW  Elec       q    Type
REMARK                         _______ _______ _______ _____ _____    ______ ____
ROOT
ATOM      1  C   UNL     1      46.219   6.359  13.268  0.00  0.00    +0.000 C 
ENDROOT
BRANCH   1   2
ATOM      2  C   UNL     1      46.834   7.737  13.226  0.00  0.00    +0.000 A 
ATOM      3  C   UNL     1      46.235   8.893  12.766  0.00  0.00    +0.000 A 
ATOM      4  N   UNL     1      47.100   9.935  12.947  0.00  0.00    +0.000 N 
ATOM      5  C   UNL     1      48.249   9.496  13.562  0.00  0.00    +0.000 A 
ATOM      6  C   UNL     1      49.366  10.220  14.005  0.00  0.00    +0.000 A 
ATOM      7  C   UNL     1      50.399   9.508  14.618  0.00  0.00    +0.000 A 
ATOM      8  C   UNL     1      50.329   8.124  14.741  0.00  0.00    +0.000 A 
ATOM      9 CL   UNL     1      51.617   7.274  15.508  0.00  0.00    +0.000 Cl
ATOM     10  C   UNL     1      49.220   7.408  14.274  0.00  0.00    +0.000 A 
ATOM     11  C   UNL     1      48.137   8.114  13.701  0.00  0.00    +0.000 A 
ATOM     12  H   UNL     1      46.916  10.896  12.699  0.00  0.00    +0.000 HD
ENDBRANCH   1   2
BRANCH   1  16
ATOM     13  C   UNL     1      43.415   4.361  10.647  0.00  0.00    +0.000 C 
ATOM     14  C   UNL     1      44.556   5.198  10.059  0.00  0.00    +0.000 C 
ATOM     15  C   UNL     1      45.665   5.438  11.090  0.00  0.00    +0.000 C 
ATOM     16  N   UNL     1      45.163   6.181  12.253  0.00  0.00    +0.000 NA
ATOM     17  C   UNL     1      44.010   5.502  12.880  0.00  0.00    +0.000 C 
ATOM     18  C   UNL     1      42.902   5.084  11.902  0.00  0.00    +0.000 C 
BRANCH  13  19
ATOM     19  C   UNL     1      43.897   2.911  10.860  0.00  0.00    +0.000 C 
BRANCH  19  20
ATOM     20  N   UNL     1      43.035   2.111  11.722  0.00  0.00    +0.000 NA
ATOM     21  H   UNL     1      42.925   2.589  12.614  0.00  0.00    +0.000 HD
ATOM     22  H   UNL     1      43.506   1.232  11.945  0.00  0.00    +0.000 HD
ENDBRANCH  19  20
ENDBRANCH  13  19
ENDBRANCH   1  16
TORSDOF 4
ENDMDL
