MODEL 1
REMARK VINA RESULT:    -7.175      0.000      0.000
REMARK INTER + INTRA:         -11.955
REMARK INTER:                 -10.531
REMARK INTRA:                  -1.424
REMARK UNBOUND:                -1.424
REMARK  Name = 
REMARK  11 active torsions:
REMARK  status: ('A' for Active; 'I' for Inactive)
REMARK    1  A    between atoms: C_1  and  C_2
REMARK    2  A    between atoms: C_2  and  C_3
REMARK    3  A    between atoms: C_3  and  N_4
REMARK    4  A    between atoms: C_3  and  C_18
REMARK    5  A    between atoms: C_5  and  C_7
REMARK    6  A    between atoms: N_13  and  C_14
REMARK    7  A    between atoms: C_21  and  O_22
REMARK    8  A    between atoms: O_22  and  C_23
REMARK    9  A    between atoms: C_23  and  C_24
REMARK   10  A    between atoms: C_24  and  N_25
REMARK   11  A    between atoms: N_28  and  C_29
REMARK                            x       y       z     vdW  Elec       q    Type
REMARK                         _______ _______ _______ _____ _____    ______ ____
ROOT
ATOM      1  C   UNL     1      47.972   7.217  12.731  0.00  0.00    +0.000 C 
ENDROOT
BRANCH   1   2
ATOM      2  C   UNL     1      46.835   6.271  12.365  0.00  0.00    +0.000 A 
ATOM      3  C   UNL     1      46.410   5.311  13.293  0.00  0.00    +0.000 A 
ATOM      4  C   UNL     1      45.434   4.369  12.954  0.00  0.00    +0.000 A 
ATOM      5  C   UNL     1      44.851   4.381  11.687  0.00  0.00    +0.000 A 
ATOM      6  C   UNL     1      45.249   5.345  10.763  0.00  0.00    +0.000 A 
ATOM      7  C   UNL     1      46.222   6.292  11.100  0.00  0.00    +0.000 A 
BRANCH   5   8
ATOM      8  O   UNL     1      43.925   3.471  11.239  0.00  0.00    +0.000 OA
BRANCH   8   9
ATOM      9  C   UNL     1      43.916   3.304   9.819  0.00  0.00    +0.000 C 
BRANCH   9  10
ATOM     10  C   UNL     1      44.665   2.018   9.425  0.00  0.00    +0.000 C 
BRANCH  10  11
ATOM     11  N   UNL     1      45.910   2.304   8.693  0.00  0.00    +0.000 NA
ATOM     12  C   UNL     1      46.365   1.174   7.863  0.00  0.00    +0.000 C 
ATOM     13  C   UNL     1      47.699   1.495   7.152  0.00  0.00    +0.000 C 
ATOM     14  N   UNL     1      47.672   2.709   6.316  0.00  0.00    +0.000 NA
ATOM     15  C   UNL     1      46.919   2.486   5.084  0.00  0.00    +0.000 C 
ATOM     16  C   UNL     1      47.111   3.825   7.106  0.00  0.00    +0.000 C 
ATOM     17  C   UNL     1      45.787   3.511   7.851  0.00  0.00    +0.000 C 
ENDBRANCH  10  11
ENDBRANCH   9  10
ENDBRANCH   8   9
ENDBRANCH   5   8
ENDBRANCH   1   2
BRANCH   1  18
ATOM     18  N   UNL     1      48.219   7.143  14.161  0.00  0.00    +0.000 N 
ATOM     19  C   UNL     1      49.419   7.443  14.746  0.00  0.00    +0.000 C 
ATOM     20  O   UNL     1      50.429   7.703  14.093  0.00  0.00    +0.000 OA
ATOM     21  H   UNL     1      47.393   7.114  14.749  0.00  0.00    +0.000 HD
BRANCH  19  22
ATOM     22  C   UNL     1      49.452   7.402  16.216  0.00  0.00    +0.000 A 
ATOM     23  C   UNL     1      49.924   8.489  16.938  0.00  0.00    +0.000 A 
ATOM     24  S   UNL     1      49.835   8.273  18.629  0.00  0.00    +0.000 S 
ATOM     25  C   UNL     1      49.144   6.729  18.455  0.00  0.00    +0.000 A 
ATOM     26  N   UNL     1      48.770   6.003  19.539  0.00  0.00    +0.000 NA
ATOM     27  C   UNL     1      48.244   4.851  19.256  0.00  0.00    +0.000 A 
ATOM     28  N   UNL     1      48.076   4.341  17.988  0.00  0.00    +0.000 N 
ATOM     29  C   UNL     1      47.540   3.009  17.791  0.00  0.00    +0.000 C 
ATOM     30  C   UNL     1      48.485   5.044  16.862  0.00  0.00    +0.000 A 
ATOM     31  O   UNL     1      48.418   4.569  15.728  0.00  0.00    +0.000 OA
ATOM     32  C   UNL     1      49.028   6.362  17.127  0.00  0.00    +0.000 A 
ENDBRANCH  19  22
ENDBRANCH   1  18
BRANCH   1  34
ATOM     33  C   UNL     1      46.385   9.236  12.877  0.00  0.00    +0.000 C 
ATOM     34  C   UNL     1      47.682   8.673  12.302  0.00  0.00    +0.000 C 
ENDBRANCH   1  34
TORSDOF 8
ENDMDL
MODEL 2
REMARK VINA RESULT:    -6.921      2.592      8.421
REMARK INTER + INTRA:         -11.582
REMARK INTER:                  -9.812
REMARK INTRA:                  -1.770
REMARK UNBOUND:                -1.424
REMARK  Name = 
REMARK  11 active torsions:
REMARK  status: ('A' for Active; 'I' for Inactive)
REMARK    1  A    between atoms: C_1  and  C_2
REMARK    2  A    between atoms: C_2  and  C_3
REMARK    3  A    between atoms: C_3  and  N_4
REMARK    4  A    between atoms: C_3  and  C_18
REMARK    5  A    between atoms: C_5  and  C_7
REMARK    6  A    between atoms: N_13  and  C_14
REMARK    7  A    between atoms: C_21  and  O_22
REMARK    8  A    between atoms: O_22  and  C_23
REMARK    9  A    between atoms: C_23  and  C_24
REMARK   10  A    between atoms: C_24  and  N_25
REMARK   11  A    between atoms: N_28  and  C_29
REMARK                            x       y       z     vdW  Elec       q    Type
REMARK                         _______ _______ _______ _____ _____    ______ ____
ROOT
ATOM      1  C   UNL     1      47.442   8.220  12.845  0.00  0.00    +0.000 C 
ENDROOT
BRANCH   1   2
ATOM      2  C   UNL     1      48.246   8.144  14.137  0.00  0.00    +0.000 A 
ATOM      3  C   UNL     1      49.273   7.198  14.257  0.00  0.00    +0.000 A 
ATOM      4  C   UNL     1      49.967   7.040  15.461  0.00  0.00    +0.000 A 
ATOM      5  C   UNL     1      49.658   7.838  16.563  0.00  0.00    +0.000 A 
ATOM      6  C   UNL     1      48.654   8.798  16.449  0.00  0.00    +0.000 A 
ATOM      7  C   UNL     1      47.962   8.961  15.244  0.00  0.00    +0.000 A 
BRANCH   5   8
ATOM      8  O   UNL     1      50.242   7.727  17.801  0.00  0.00    +0.000 OA
BRANCH   8   9
ATOM      9  C   UNL     1      49.389   7.154  18.795  0.00  0.00    +0.000 C 
BRANCH   9  10
ATOM     10  C   UNL     1      49.888   5.751  19.186  0.00  0.00    +0.000 C 
BRANCH  10  11
ATOM     11  N   UNL     1      49.048   4.685  18.615  0.00  0.00    +0.000 NA
ATOM     12  C   UNL     1      47.713   5.157  18.207  0.00  0.00    +0.000 C 
ATOM     13  C   UNL     1      46.845   4.002  17.662  0.00  0.00    +0.000 C 
ATOM     14  N   UNL     1      47.445   3.264  16.535  0.00  0.00    +0.000 NA
ATOM     15  C   UNL     1      47.401   4.050  15.305  0.00  0.00    +0.000 C 
ATOM     16  C   UNL     1      48.827   2.881  16.891  0.00  0.00    +0.000 C 
ATOM     17  C   UNL     1      49.704   4.023  17.470  0.00  0.00    +0.000 C 
ENDBRANCH  10  11
ENDBRANCH   9  10
ENDBRANCH   8   9
ENDBRANCH   5   8
ENDBRANCH   1   2
BRANCH   1  18
ATOM     18  N   UNL     1      46.676   6.996  12.682  0.00  0.00    +0.000 N 
ATOM     19  C   UNL     1      45.495   6.920  11.995  0.00  0.00    +0.000 C 
ATOM     20  O   UNL     1      44.925   7.911  11.545  0.00  0.00    +0.000 OA
ATOM     21  H   UNL     1      47.179   6.135  12.869  0.00  0.00    +0.000 HD
BRANCH  19  22
ATOM     22  C   UNL     1      44.913   5.576  11.855  0.00  0.00    +0.000 A 
ATOM     23  C   UNL     1      44.184   5.015  12.895  0.00  0.00    +0.000 A 
ATOM     24  S   UNL     1      43.547   3.475  12.527  0.00  0.00    +0.000 S 
ATOM     25  C   UNL     1      44.205   3.513  10.959  0.00  0.00    +0.000 A 
ATOM     26  N   UNL     1      43.984   2.501  10.082  0.00  0.00    +0.000 NA
ATOM     27  C   UNL     1      44.534   2.671   8.919  0.00  0.00    +0.000 A 
ATOM     28  N   UNL     1      45.307   3.750   8.551  0.00  0.00    +0.000 N 
ATOM     29  C   UNL     1      45.931   3.803   7.246  0.00  0.00    +0.000 C 
ATOM     30  C   UNL     1      45.582   4.781   9.440  0.00  0.00    +0.000 A 
ATOM     31  O   UNL     1      46.337   5.712   9.157  0.00  0.00    +0.000 OA
ATOM     32  C   UNL     1      44.942   4.662  10.736  0.00  0.00    +0.000 A 
ENDBRANCH  19  22
ENDBRANCH   1  18
BRANCH   1  34
ATOM     33  C   UNL     1      48.710   9.938  11.410  0.00  0.00    +0.000 C 
ATOM     34  C   UNL     1      48.340   8.471  11.613  0.00  0.00    +0.000 C 
ENDBRANCH   1  34
TORSDOF 8
ENDMDL
MODEL 3
REMARK VINA RESULT:    -6.026      4.467      7.941
REMARK INTER + INTRA:         -10.268
REMARK INTER:                  -9.551
REMARK INTRA:                  -0.717
REMARK UNBOUND:                -1.424
REMARK  Name = 
REMARK  11 active torsions:
REMARK  status: ('A' for Active; 'I' for Inactive)
REMARK    1  A    between atoms: C_1  and  C_2
REMARK    2  A    between atoms: C_2  and  C_3
REMARK    3  A    between atoms: C_3  and  N_4
REMARK    4  A    between atoms: C_3  and  C_18
REMARK    5  A    between atoms: C_5  and  C_7
REMARK    6  A    between atoms: N_13  and  C_14
REMARK    7  A    between atoms: C_21  and  O_22
REMARK    8  A    between atoms: O_22  and  C_23
REMARK    9  A    between atoms: C_23  and  C_24
REMARK   10  A    between atoms: C_24  and  N_25
REMARK   11  A    between atoms: N_28  and  C_29
REMARK                            x       y       z     vdW  Elec       q    Type
REMARK                         _______ _______ _______ _____ _____    ______ ____
ROOT
ATOM      1  C   UNL     1      45.813   8.246  12.140  0.00  0.00    +0.000 C 
ENDROOT
BRANCH   1   2
ATOM      2  C   UNL     1      47.322   8.432  12.042  0.00  0.00    +0.000 A 
ATOM      3  C   UNL     1      47.869   9.717  12.160  0.00  0.00    +0.000 A 
ATOM      4  C   UNL     1      49.239   9.933  11.983  0.00  0.00    +0.000 A 
ATOM      5  C   UNL     1      50.091   8.865  11.702  0.00  0.00    +0.000 A 
ATOM      6  C   UNL     1      49.562   7.579  11.604  0.00  0.00    +0.000 A 
ATOM      7  C   UNL     1      48.193   7.359  11.786  0.00  0.00    +0.000 A 
BRANCH   5   8
ATOM      8  O   UNL     1      51.438   8.977  11.459  0.00  0.00    +0.000 OA
BRANCH   8   9
ATOM      9  C   UNL     1      51.948   7.995  10.554  0.00  0.00    +0.000 C 
BRANCH   9  10
ATOM     10  C   UNL     1      52.637   8.675   9.356  0.00  0.00    +0.000 C 
BRANCH  10  11
ATOM     11  N   UNL     1      53.535   7.756   8.638  0.00  0.00    +0.000 NA
ATOM     12  C   UNL     1      53.620   6.424   9.264  0.00  0.00    +0.000 C 
ATOM     13  C   UNL     1      54.609   5.506   8.512  0.00  0.00    +0.000 C 
ATOM     14  N   UNL     1      54.314   5.331   7.078  0.00  0.00    +0.000 NA
ATOM     15  C   UNL     1      53.156   4.464   6.879  0.00  0.00    +0.000 C 
ATOM     16  C   UNL     1      54.116   6.660   6.462  0.00  0.00    +0.000 C 
ATOM     17  C   UNL     1      53.148   7.606   7.221  0.00  0.00    +0.000 C 
ENDBRANCH  10  11
ENDBRANCH   9  10
ENDBRANCH   8   9
ENDBRANCH   5   8
ENDBRANCH   1   2
BRANCH   1  18
ATOM     18  N   UNL     1      45.486   6.845  11.933  0.00  0.00    +0.000 N 
ATOM     19  C   UNL     1      44.258   6.399  11.528  0.00  0.00    +0.000 C 
ATOM     20  O   UNL     1      43.288   7.145  11.404  0.00  0.00    +0.000 OA
ATOM     21  H   UNL     1      46.279   6.217  11.843  0.00  0.00    +0.000 HD
BRANCH  19  22
ATOM     22  C   UNL     1      44.143   4.953  11.280  0.00  0.00    +0.000 A 
ATOM     23  C   UNL     1      43.395   4.153  12.131  0.00  0.00    +0.000 A 
ATOM     24  S   UNL     1      43.338   2.515  11.653  0.00  0.00    +0.000 S 
ATOM     25  C   UNL     1      44.295   2.823  10.280  0.00  0.00    +0.000 A 
ATOM     26  N   UNL     1      44.586   1.837   9.394  0.00  0.00    +0.000 NA
ATOM     27  C   UNL     1      45.311   2.219   8.388  0.00  0.00    +0.000 A 
ATOM     28  N   UNL     1      45.796   3.492   8.191  0.00  0.00    +0.000 N 
ATOM     29  C   UNL     1      46.657   3.791   7.066  0.00  0.00    +0.000 C 
ATOM     30  C   UNL     1      45.547   4.512   9.101  0.00  0.00    +0.000 A 
ATOM     31  O   UNL     1      46.039   5.635   8.984  0.00  0.00    +0.000 OA
ATOM     32  C   UNL     1      44.693   4.146  10.214  0.00  0.00    +0.000 A 
ENDBRANCH  19  22
ENDBRANCH   1  18
BRANCH   1  34
ATOM     33  C   UNL     1      44.368  10.344  11.781  0.00  0.00    +0.000 C 
ATOM     34  C   UNL     1      45.048   9.138  11.137  0.00  0.00    +0.000 C 
ENDBRANCH   1  34
TORSDOF 8
ENDMDL
MODEL 4
REMARK VINA RESULT:    -5.685      3.751      5.755
REMARK INTER + INTRA:          -9.768
REMARK INTER:                  -8.229
REMARK INTRA:                  -1.538
REMARK UNBOUND:                -1.424
REMARK  Name = 
REMARK  11 active torsions:
REMARK  status: ('A' for Active; 'I' for Inactive)
REMARK    1  A    between atoms: C_1  and  C_2
REMARK    2  A    between atoms: C_2  and  C_3
REMARK    3  A    between atoms: C_3  and  N_4
REMARK    4  A    between atoms: C_3  and  C_18
REMARK    5  A    between atoms: C_5  and  C_7
REMARK    6  A    between atoms: N_13  and  C_14
REMARK    7  A    between atoms: C_21  and  O_22
REMARK    8  A    between atoms: O_22  and  C_23
REMARK    9  A    between atoms: C_23  and  C_24
REMARK   10  A    between atoms: C_24  and  N_25
REMARK   11  A    between atoms: N_28  and  C_29
REMARK                            x       y       z     vdW  Elec       q    Type
REMARK                         _______ _______ _______ _____ _____    ______ ____
ROOT
ATOM      1  C   UNL     1      48.613   4.440  17.221  0.00  0.00    +0.000 C 
ENDROOT
BRANCH   1   2
ATOM      2  C   UNL     1      48.380   5.273  15.967  0.00  0.00    +0.000 A 
ATOM      3  C   UNL     1      49.037   6.503  15.823  0.00  0.00    +0.000 A 
ATOM      4  C   UNL     1      48.774   7.332  14.729  0.00  0.00    +0.000 A 
ATOM      5  C   UNL     1      47.862   6.941  13.749  0.00  0.00    +0.000 A 
ATOM      6  C   UNL     1      47.219   5.710  13.870  0.00  0.00    +0.000 A 
ATOM      7  C   UNL     1      47.484   4.875  14.961  0.00  0.00    +0.000 A 
BRANCH   5   8
ATOM      8  O   UNL     1      47.495   7.702  12.666  0.00  0.00    +0.000 OA
BRANCH   8   9
ATOM      9  C   UNL     1      46.739   6.989  11.685  0.00  0.00    +0.000 C 
BRANCH   9  10
ATOM     10  C   UNL     1      45.309   7.554  11.593  0.00  0.00    +0.000 C 
BRANCH  10  11
ATOM     11  N   UNL     1      44.324   6.517  11.247  0.00  0.00    +0.000 NA
ATOM     12  C   UNL     1      44.921   5.363  10.551  0.00  0.00    +0.000 C 
ATOM     13  C   UNL     1      43.849   4.321  10.160  0.00  0.00    +0.000 C 
ATOM     14  N   UNL     1      43.040   3.821  11.286  0.00  0.00    +0.000 NA
ATOM     15  C   UNL     1      43.809   2.906  12.125  0.00  0.00    +0.000 C 
ATOM     16  C   UNL     1      42.527   4.972  12.059  0.00  0.00    +0.000 C 
ATOM     17  C   UNL     1      43.585   6.043  12.434  0.00  0.00    +0.000 C 
ENDBRANCH  10  11
ENDBRANCH   9  10
ENDBRANCH   8   9
ENDBRANCH   5   8
ENDBRANCH   1   2
BRANCH   1  18
ATOM     18  N   UNL     1      50.009   4.539  17.612  0.00  0.00    +0.000 N 
ATOM     19  C   UNL     1      50.438   4.583  18.911  0.00  0.00    +0.000 C 
ATOM     20  O   UNL     1      49.662   4.650  19.864  0.00  0.00    +0.000 OA
ATOM     21  H   UNL     1      50.685   4.307  16.892  0.00  0.00    +0.000 HD
BRANCH  19  22
ATOM     22  C   UNL     1      51.895   4.587  19.113  0.00  0.00    +0.000 A 
ATOM     23  C   UNL     1      52.511   5.646  19.764  0.00  0.00    +0.000 A 
ATOM     24  S   UNL     1      54.196   5.446  19.948  0.00  0.00    +0.000 S 
ATOM     25  C   UNL     1      54.158   3.928  19.182  0.00  0.00    +0.000 A 
ATOM     26  N   UNL     1      55.284   3.180  19.054  0.00  0.00    +0.000 NA
ATOM     27  C   UNL     1      55.103   2.040  18.462  0.00  0.00    +0.000 A 
ATOM     28  N   UNL     1      53.905   1.580  17.963  0.00  0.00    +0.000 N 
ATOM     29  C   UNL     1      53.833   0.318  17.257  0.00  0.00    +0.000 C 
ATOM     30  C   UNL     1      52.746   2.340  18.044  0.00  0.00    +0.000 A 
ATOM     31  O   UNL     1      51.685   1.982  17.532  0.00  0.00    +0.000 OA
ATOM     32  C   UNL     1      52.887   3.600  18.748  0.00  0.00    +0.000 A 
ENDBRANCH  19  22
ENDBRANCH   1  18
BRANCH   1  34
ATOM     33  C   UNL     1      47.091   2.504  17.964  0.00  0.00    +0.000 C 
ATOM     34  C   UNL     1      48.204   2.963  17.026  0.00  0.00    +0.000 C 
ENDBRANCH   1  34
TORSDOF 8
ENDMDL
MODEL 5
REMARK VINA RESULT:    -5.482      2.895      8.731
REMARK INTER + INTRA:          -9.471
REMARK INTER:                  -8.472
REMARK INTRA:                  -0.999
REMARK UNBOUND:                -1.424
REMARK  Name = 
REMARK  11 active torsions:
REMARK  status: ('A' for Active; 'I' for Inactive)
REMARK    1  A    between atoms: C_1  and  C_2
REMARK    2  A    between atoms: C_2  and  C_3
REMARK    3  A    between atoms: C_3  and  N_4
REMARK    4  A    between atoms: C_3  and  C_18
REMARK    5  A    between atoms: C_5  and  C_7
REMARK    6  A    between atoms: N_13  and  C_14
REMARK    7  A    between atoms: C_21  and  O_22
REMARK    8  A    between atoms: O_22  and  C_23
REMARK    9  A    between atoms: C_23  and  C_24
REMARK   10  A    between atoms: C_24  and  N_25
REMARK   11  A    between atoms: N_28  and  C_29
REMARK                            x       y       z     vdW  Elec       q    Type
REMARK                         _______ _______ _______ _____ _____    ______ ____
ROOT
ATOM      1  C   UNL     1      44.942   8.445  11.758  0.00  0.00    +0.000 C 
ENDROOT
BRANCH   1   2
ATOM      2  C   UNL     1      46.427   8.738  11.927  0.00  0.00    +0.000 A 
ATOM      3  C   UNL     1      47.345   7.679  11.926  0.00  0.00    +0.000 A 
ATOM      4  C   UNL     1      48.702   7.906  12.172  0.00  0.00    +0.000 A 
ATOM      5  C   UNL     1      49.171   9.199  12.406  0.00  0.00    +0.000 A 
ATOM      6  C   UNL     1      48.271  10.263  12.387  0.00  0.00    +0.000 A 
ATOM      7  C   UNL     1      46.913  10.040  12.137  0.00  0.00    +0.000 A 
BRANCH   5   8
ATOM      8  O   UNL     1      50.472   9.521  12.708  0.00  0.00    +0.000 OA
BRANCH   8   9
ATOM      9  C   UNL     1      50.745   9.577  14.110  0.00  0.00    +0.000 C 
BRANCH   9  10
ATOM     10  C   UNL     1      51.605   8.374  14.538  0.00  0.00    +0.000 C 
BRANCH  10  11
ATOM     11  N   UNL     1      50.838   7.398  15.328  0.00  0.00    +0.000 NA
ATOM     12  C   UNL     1      51.656   6.702  16.338  0.00  0.00    +0.000 C 
ATOM     13  C   UNL     1      50.828   5.651  17.111  0.00  0.00    +0.000 C 
ATOM     14  N   UNL     1      49.623   6.184  17.772  0.00  0.00    +0.000 NA
ATOM     15  C   UNL     1      49.971   6.969  18.953  0.00  0.00    +0.000 C 
ATOM     16  C   UNL     1      48.850   6.980  16.794  0.00  0.00    +0.000 C 
ATOM     17  C   UNL     1      49.672   8.019  15.987  0.00  0.00    +0.000 C 
ENDBRANCH  10  11
ENDBRANCH   9  10
ENDBRANCH   8   9
ENDBRANCH   5   8
ENDBRANCH   1   2
BRANCH   1  18
ATOM     18  N   UNL     1      44.764   7.044  11.412  0.00  0.00    +0.000 N 
ATOM     19  C   UNL     1      44.564   6.050  12.331  0.00  0.00    +0.000 C 
ATOM     20  O   UNL     1      44.623   6.245  13.543  0.00  0.00    +0.000 OA
ATOM     21  H   UNL     1      44.528   6.857  10.443  0.00  0.00    +0.000 HD
BRANCH  19  22
ATOM     22  C   UNL     1      44.309   4.707  11.786  0.00  0.00    +0.000 A 
ATOM     23  C   UNL     1      43.522   3.804  12.487  0.00  0.00    +0.000 A 
ATOM     24  S   UNL     1      43.299   2.320  11.674  0.00  0.00    +0.000 S 
ATOM     25  C   UNL     1      44.228   2.841  10.347  0.00  0.00    +0.000 A 
ATOM     26  N   UNL     1      44.395   2.051   9.256  0.00  0.00    +0.000 NA
ATOM     27  C   UNL     1      45.114   2.583   8.317  0.00  0.00    +0.000 A 
ATOM     28  N   UNL     1      45.706   3.825   8.369  0.00  0.00    +0.000 N 
ATOM     29  C   UNL     1      46.549   4.291   7.288  0.00  0.00    +0.000 C 
ATOM     30  C   UNL     1      45.585   4.639   9.489  0.00  0.00    +0.000 A 
ATOM     31  O   UNL     1      46.173   5.716   9.588  0.00  0.00    +0.000 OA
ATOM     32  C   UNL     1      44.742   4.109  10.544  0.00  0.00    +0.000 A 
ENDBRANCH  19  22
ENDBRANCH   1  18
BRANCH   1  34
ATOM     33  C   UNL     1      43.412  10.460  11.292  0.00  0.00    +0.000 C 
ATOM     34  C   UNL     1      44.283   9.356  10.698  0.00  0.00    +0.000 C 
ENDBRANCH   1  34
TORSDOF 8
ENDMDL
MODEL 6
REMARK VINA RESULT:    -5.360      3.388      5.485
REMARK INTER + INTRA:          -9.291
REMARK INTER:                  -7.930
REMARK INTRA:                  -1.361
REMARK UNBOUND:                -1.424
REMARK  Name = 
REMARK  11 active torsions:
REMARK  status: ('A' for Active; 'I' for Inactive)
REMARK    1  A    between atoms: C_1  and  C_2
REMARK    2  A    between atoms: C_2  and  C_3
REMARK    3  A    between atoms: C_3  and  N_4
REMARK    4  A    between atoms: C_3  and  C_18
REMARK    5  A    between atoms: C_5  and  C_7
REMARK    6  A    between atoms: N_13  and  C_14
REMARK    7  A    between atoms: C_21  and  O_22
REMARK    8  A    between atoms: O_22  and  C_23
REMARK    9  A    between atoms: C_23  and  C_24
REMARK   10  A    between atoms: C_24  and  N_25
REMARK   11  A    between atoms: N_28  and  C_29
REMARK                            x       y       z     vdW  Elec       q    Type
REMARK                         _______ _______ _______ _____ _____    ______ ____
ROOT
ATOM      1  C   UNL     1      49.144   7.630  18.312  0.00  0.00    +0.000 C 
ENDROOT
BRANCH   1   2
ATOM      2  C   UNL     1      48.800   7.555  16.830  0.00  0.00    +0.000 A 
ATOM      3  C   UNL     1      48.591   6.305  16.232  0.00  0.00    +0.000 A 
ATOM      4  C   UNL     1      48.366   6.197  14.856  0.00  0.00    +0.000 A 
ATOM      5  C   UNL     1      48.326   7.339  14.055  0.00  0.00    +0.000 A 
ATOM      6  C   UNL     1      48.509   8.589  14.642  0.00  0.00    +0.000 A 
ATOM      7  C   UNL     1      48.731   8.701  16.019  0.00  0.00    +0.000 A 
BRANCH   5   8
ATOM      8  O   UNL     1      48.164   7.337  12.691  0.00  0.00    +0.000 OA
BRANCH   8   9
ATOM      9  C   UNL     1      47.095   6.504  12.235  0.00  0.00    +0.000 C 
BRANCH   9  10
ATOM     10  C   UNL     1      45.818   7.337  12.024  0.00  0.00    +0.000 C 
BRANCH  10  11
ATOM     11  N   UNL     1      44.658   6.497  11.684  0.00  0.00    +0.000 NA
ATOM     12  C   UNL     1      44.986   5.414  10.739  0.00  0.00    +0.000 C 
ATOM     13  C   UNL     1      43.735   4.588  10.368  0.00  0.00    +0.000 C 
ATOM     14  N   UNL     1      43.022   4.004  11.519  0.00  0.00    +0.000 NA
ATOM     15  C   UNL     1      43.759   2.876  12.082  0.00  0.00    +0.000 C 
ATOM     16  C   UNL     1      42.786   5.061  12.525  0.00  0.00    +0.000 C 
ATOM     17  C   UNL     1      44.025   5.921  12.887  0.00  0.00    +0.000 C 
ENDBRANCH  10  11
ENDBRANCH   9  10
ENDBRANCH   8   9
ENDBRANCH   5   8
ENDBRANCH   1   2
BRANCH   1  18
ATOM     18  N   UNL     1      50.274   6.759  18.589  0.00  0.00    +0.000 N 
ATOM     19  C   UNL     1      51.579   7.105  18.363  0.00  0.00    +0.000 C 
ATOM     20  O   UNL     1      51.900   8.153  17.805  0.00  0.00    +0.000 OA
ATOM     21  H   UNL     1      50.085   5.976  19.205  0.00  0.00    +0.000 HD
BRANCH  19  22
ATOM     22  C   UNL     1      52.592   6.129  18.794  0.00  0.00    +0.000 A 
ATOM     23  C   UNL     1      53.667   6.532  19.573  0.00  0.00    +0.000 A 
ATOM     24  S   UNL     1      54.705   5.251  20.015  0.00  0.00    +0.000 S 
ATOM     25  C   UNL     1      53.742   4.111  19.199  0.00  0.00    +0.000 A 
ATOM     26  N   UNL     1      54.048   2.788  19.226  0.00  0.00    +0.000 NA
ATOM     27  C   UNL     1      53.218   2.035  18.573  0.00  0.00    +0.000 A 
ATOM     28  N   UNL     1      52.118   2.478  17.873  0.00  0.00    +0.000 N 
ATOM     29  C   UNL     1      51.297   1.552  17.120  0.00  0.00    +0.000 C 
ATOM     30  C   UNL     1      51.803   3.828  17.796  0.00  0.00    +0.000 A 
ATOM     31  O   UNL     1      50.872   4.250  17.108  0.00  0.00    +0.000 OA
ATOM     32  C   UNL     1      52.671   4.705  18.557  0.00  0.00    +0.000 A 
ENDBRANCH  19  22
ENDBRANCH   1  18
BRANCH   1  34
ATOM     33  C   UNL     1      48.003   5.848  19.775  0.00  0.00    +0.000 C 
ATOM     34  C   UNL     1      47.942   7.265  19.211  0.00  0.00    +0.000 C 
ENDBRANCH   1  34
TORSDOF 8
ENDMDL
MODEL 7
REMARK VINA RESULT:    -4.910      3.725      8.606
REMARK INTER + INTRA:          -8.631
REMARK INTER:                  -6.738
REMARK INTRA:                  -1.893
REMARK UNBOUND:                -1.424
REMARK  Name = 
REMARK  11 active torsions:
REMARK  status: ('A' for Active; 'I' for Inactive)
REMARK    1  A    between atoms: C_1  and  C_2
REMARK    2  A    between atoms: C_2  and  C_3
REMARK    3  A    between atoms: C_3  and  N_4
REMARK    4  A    between atoms: C_3  and  C_18
REMARK    5  A    between atoms: C_5  and  C_7
REMARK    6  A    between atoms: N_13  and  C_14
REMARK    7  A    between atoms: C_21  and  O_22
REMARK    8  A    between atoms: O_22  and  C_23
REMARK    9  A    between atoms: C_23  and  C_24
REMARK   10  A    between atoms: C_24  and  N_25
REMARK   11  A    between atoms: N_28  and  C_29
REMARK                            x       y       z     vdW  Elec       q    Type
REMARK                         _______ _______ _______ _____ _____    ______ ____
ROOT
ATOM      1  C   UNL     1      48.726   9.347  12.470  0.00  0.00    +0.000 C 
ENDROOT
BRANCH   1   2
ATOM      2  C   UNL     1      48.973   9.580  13.955  0.00  0.00    +0.000 A 
ATOM      3  C   UNL     1      48.978  10.888  14.458  0.00  0.00    +0.000 A 
ATOM      4  C   UNL     1      49.293  11.141  15.797  0.00  0.00    +0.000 A 
ATOM      5  C   UNL     1      49.591  10.088  16.663  0.00  0.00    +0.000 A 
ATOM      6  C   UNL     1      49.567   8.781  16.180  0.00  0.00    +0.000 A 
ATOM      7  C   UNL     1      49.247   8.525  14.842  0.00  0.00    +0.000 A 
BRANCH   5   8
ATOM      8  O   UNL     1      49.962  10.233  17.977  0.00  0.00    +0.000 OA
BRANCH   8   9
ATOM      9  C   UNL     1      48.976   9.786  18.911  0.00  0.00    +0.000 C 
BRANCH   9  10
ATOM     10  C   UNL     1      49.610   8.846  19.953  0.00  0.00    +0.000 C 
BRANCH  10  11
ATOM     11  N   UNL     1      49.065   7.482  19.873  0.00  0.00    +0.000 NA
ATOM     12  C   UNL     1      47.774   7.416  19.165  0.00  0.00    +0.000 C 
ATOM     13  C   UNL     1      47.210   5.978  19.147  0.00  0.00    +0.000 C 
ATOM     14  N   UNL     1      48.115   4.971  18.562  0.00  0.00    +0.000 NA
ATOM     15  C   UNL     1      48.184   5.102  17.110  0.00  0.00    +0.000 C 
ATOM     16  C   UNL     1      49.448   5.103  19.188  0.00  0.00    +0.000 C 
ATOM     17  C   UNL     1      50.016   6.546  19.242  0.00  0.00    +0.000 C 
ENDBRANCH  10  11
ENDBRANCH   9  10
ENDBRANCH   8   9
ENDBRANCH   5   8
ENDBRANCH   1   2
BRANCH   1  18
ATOM     18  N   UNL     1      47.665   8.368  12.306  0.00  0.00    +0.000 N 
ATOM     19  C   UNL     1      46.331   8.669  12.361  0.00  0.00    +0.000 C 
ATOM     20  O   UNL     1      45.916   9.787  12.661  0.00  0.00    +0.000 OA
ATOM     21  H   UNL     1      47.941   7.488  11.883  0.00  0.00    +0.000 HD
BRANCH  19  22
ATOM     22  C   UNL     1      45.404   7.563  12.076  0.00  0.00    +0.000 A 
ATOM     23  C   UNL     1      44.259   7.783  11.324  0.00  0.00    +0.000 A 
ATOM     24  S   UNL     1      43.338   6.371  11.058  0.00  0.00    +0.000 S 
ATOM     25  C   UNL     1      44.448   5.414  11.920  0.00  0.00    +0.000 A 
ATOM     26  N   UNL     1      44.277   4.071  12.031  0.00  0.00    +0.000 NA
ATOM     27  C   UNL     1      45.208   3.468  12.703  0.00  0.00    +0.000 A 
ATOM     28  N   UNL     1      46.288   4.080  13.299  0.00  0.00    +0.000 N 
ATOM     29  C   UNL     1      47.232   3.315  14.087  0.00  0.00    +0.000 C 
ATOM     30  C   UNL     1      46.468   5.456  13.236  0.00  0.00    +0.000 A 
ATOM     31  O   UNL     1      47.380   6.030  13.830  0.00  0.00    +0.000 OA
ATOM     32  C   UNL     1      45.481   6.167  12.446  0.00  0.00    +0.000 A 
ENDBRANCH  19  22
ENDBRANCH   1  18
BRANCH   1  34
ATOM     33  C   UNL     1      50.009   7.416  11.356  0.00  0.00    +0.000 C 
ATOM     34  C   UNL     1      50.004   8.896  11.729  0.00  0.00    +0.000 C 
ENDBRANCH   1  34
TORSDOF 8
ENDMDL
MODEL 8
REMARK VINA RESULT:    -4.892     10.656     13.875
REMARK INTER + INTRA:          -8.604
REMARK INTER:                  -7.065
REMARK INTRA:                  -1.539
REMARK UNBOUND:                -1.424
REMARK  Name = 
REMARK  11 active torsions:
REMARK  status: ('A' for Active; 'I' for Inactive)
REMARK    1  A    between atoms: C_1  and  C_2
REMARK    2  A    between atoms: C_2  and  C_3
REMARK    3  A    between atoms: C_3  and  N_4
REMARK    4  A    between atoms: C_3  and  C_18
REMARK    5  A    between atoms: C_5  and  C_7
REMARK    6  A    between atoms: N_13  and  C_14
REMARK    7  A    between atoms: C_21  and  O_22
REMARK    8  A    between atoms: O_22  and  C_23
REMARK    9  A    between atoms: C_23  and  C_24
REMARK   10  A    between atoms: C_24  and  N_25
REMARK   11  A    between atoms: N_28  and  C_29
REMARK                            x       y       z     vdW  Elec       q    Type
REMARK                         _______ _______ _______ _____ _____    ______ ____
ROOT
ATOM      1  C   UNL     1      41.418  -3.974  14.169  0.00  0.00    +0.000 C 
ENDROOT
BRANCH   1   2
ATOM      2  C   UNL     1      40.953  -3.331  15.469  0.00  0.00    +0.000 A 
ATOM      3  C   UNL     1      40.223  -2.135  15.426  0.00  0.00    +0.000 A 
ATOM      4  C   UNL     1      39.862  -1.472  16.603  0.00  0.00    +0.000 A 
ATOM      5  C   UNL     1      40.208  -2.001  17.846  0.00  0.00    +0.000 A 
ATOM      6  C   UNL     1      40.914  -3.202  17.903  0.00  0.00    +0.000 A 
ATOM      7  C   UNL     1      41.272  -3.870  16.727  0.00  0.00    +0.000 A 
BRANCH   5   8
ATOM      8  O   UNL     1      39.948  -1.404  19.055  0.00  0.00    +0.000 OA
BRANCH   8   9
ATOM      9  C   UNL     1      38.620  -0.887  19.173  0.00  0.00    +0.000 C 
BRANCH   9  10
ATOM     10  C   UNL     1      38.657   0.620  19.488  0.00  0.00    +0.000 C 
BRANCH  10  11
ATOM     11  N   UNL     1      38.549   1.443  18.273  0.00  0.00    +0.000 NA
ATOM     12  C   UNL     1      37.480   0.994  17.363  0.00  0.00    +0.000 C 
ATOM     13  C   UNL     1      37.431   1.850  16.078  0.00  0.00    +0.000 C 
ATOM     14  N   UNL     1      37.269   3.297  16.311  0.00  0.00    +0.000 NA
ATOM     15  C   UNL     1      35.907   3.617  16.731  0.00  0.00    +0.000 C 
ATOM     16  C   UNL     1      38.267   3.738  17.309  0.00  0.00    +0.000 C 
ATOM     17  C   UNL     1      38.350   2.871  18.593  0.00  0.00    +0.000 C 
ENDBRANCH  10  11
ENDBRANCH   9  10
ENDBRANCH   8   9
ENDBRANCH   5   8
ENDBRANCH   1   2
BRANCH   1  18
ATOM     18  N   UNL     1      40.421  -3.749  13.137  0.00  0.00    +0.000 N 
ATOM     19  C   UNL     1      40.560  -2.837  12.126  0.00  0.00    +0.000 C 
ATOM     20  O   UNL     1      41.503  -2.051  12.067  0.00  0.00    +0.000 OA
ATOM     21  H   UNL     1      39.724  -4.480  13.032  0.00  0.00    +0.000 HD
BRANCH  19  22
ATOM     22  C   UNL     1      39.487  -2.818  11.119  0.00  0.00    +0.000 A 
ATOM     23  C   UNL     1      39.627  -3.524   9.932  0.00  0.00    +0.000 A 
ATOM     24  S   UNL     1      38.261  -3.423   8.914  0.00  0.00    +0.000 S 
ATOM     25  C   UNL     1      37.427  -2.450  10.033  0.00  0.00    +0.000 A 
ATOM     26  N   UNL     1      36.153  -2.045   9.796  0.00  0.00    +0.000 NA
ATOM     27  C   UNL     1      35.638  -1.321  10.741  0.00  0.00    +0.000 A 
ATOM     28  N   UNL     1      36.282  -0.941  11.898  0.00  0.00    +0.000 N 
ATOM     29  C   UNL     1      35.633  -0.070  12.856  0.00  0.00    +0.000 C 
ATOM     30  C   UNL     1      37.598  -1.308  12.149  0.00  0.00    +0.000 A 
ATOM     31  O   UNL     1      38.217  -0.910  13.137  0.00  0.00    +0.000 OA
ATOM     32  C   UNL     1      38.198  -2.165  11.145  0.00  0.00    +0.000 A 
ENDBRANCH  19  22
ENDBRANCH   1  18
BRANCH   1  34
ATOM     33  C   UNL     1      40.518  -6.376  13.970  0.00  0.00    +0.000 C 
ATOM     34  C   UNL     1      41.702  -5.484  14.334  0.00  0.00    +0.000 C 
ENDBRANCH   1  34
TORSDOF 8
ENDMDL
MODEL 9
REMARK VINA RESULT:    -4.795      4.034      8.400
REMARK INTER + INTRA:          -8.462
REMARK INTER:                  -6.722
REMARK INTRA:                  -1.739
REMARK UNBOUND:                -1.424
REMARK  Name = 
REMARK  11 active torsions:
REMARK  status: ('A' for Active; 'I' for Inactive)
REMARK    1  A    between atoms: C_1  and  C_2
REMARK    2  A    between atoms: C_2  and  C_3
REMARK    3  A    between atoms: C_3  and  N_4
REMARK    4  A    between atoms: C_3  and  C_18
REMARK    5  A    between atoms: C_5  and  C_7
REMARK    6  A    between atoms: N_13  and  C_14
REMARK    7  A    between atoms: C_21  and  O_22
REMARK    8  A    between atoms: O_22  and  C_23
REMARK    9  A    between atoms: C_23  and  C_24
REMARK   10  A    between atoms: C_24  and  N_25
REMARK   11  A    between atoms: N_28  and  C_29
REMARK                            x       y       z     vdW  Elec       q    Type
REMARK                         _______ _______ _______ _____ _____    ______ ____
ROOT
ATOM      1  C   UNL     1      50.599   9.580  13.040  0.00  0.00    +0.000 C 
ENDROOT
BRANCH   1   2
ATOM      2  C   UNL     1      50.791   9.029  14.447  0.00  0.00    +0.000 A 
ATOM      3  C   UNL     1      51.204   9.887  15.475  0.00  0.00    +0.000 A 
ATOM      4  C   UNL     1      51.478   9.395  16.754  0.00  0.00    +0.000 A 
ATOM      5  C   UNL     1      51.327   8.037  17.035  0.00  0.00    +0.000 A 
ATOM      6  C   UNL     1      50.895   7.177  16.027  0.00  0.00    +0.000 A 
ATOM      7  C   UNL     1      50.615   7.667  14.747  0.00  0.00    +0.000 A 
BRANCH   5   8
ATOM      8  O   UNL     1      51.619   7.446  18.240  0.00  0.00    +0.000 OA
BRANCH   8   9
ATOM      9  C   UNL     1      50.487   7.289  19.099  0.00  0.00    +0.000 C 
BRANCH   9  10
ATOM     10  C   UNL     1      50.454   5.868  19.689  0.00  0.00    +0.000 C 
BRANCH  10  11
ATOM     11  N   UNL     1      49.212   5.155  19.348  0.00  0.00    +0.000 NA
ATOM     12  C   UNL     1      48.224   6.009  18.665  0.00  0.00    +0.000 C 
ATOM     13  C   UNL     1      46.918   5.240  18.369  0.00  0.00    +0.000 C 
ATOM     14  N   UNL     1      47.096   4.008  17.579  0.00  0.00    +0.000 NA
ATOM     15  C   UNL     1      47.386   4.314  16.180  0.00  0.00    +0.000 C 
ATOM     16  C   UNL     1      48.166   3.194  18.193  0.00  0.00    +0.000 C 
ATOM     17  C   UNL     1      49.475   3.958  18.525  0.00  0.00    +0.000 C 
ENDBRANCH  10  11
ENDBRANCH   9  10
ENDBRANCH   8   9
ENDBRANCH   5   8
ENDBRANCH   1   2
BRANCH   1  18
ATOM     18  N   UNL     1      49.211   9.412  12.642  0.00  0.00    +0.000 N 
ATOM     19  C   UNL     1      48.225  10.325  12.902  0.00  0.00    +0.000 C 
ATOM     20  O   UNL     1      48.413  11.326  13.592  0.00  0.00    +0.000 OA
ATOM     21  H   UNL     1      49.040   8.712  11.928  0.00  0.00    +0.000 HD
BRANCH  19  22
ATOM     22  C   UNL     1      46.900  10.026  12.338  0.00  0.00    +0.000 A 
ATOM     23  C   UNL     1      46.158  11.025  11.723  0.00  0.00    +0.000 A 
ATOM     24  S   UNL     1      44.672  10.476  11.086  0.00  0.00    +0.000 S 
ATOM     25  C   UNL     1      44.979   8.881  11.592  0.00  0.00    +0.000 A 
ATOM     26  N   UNL     1      44.109   7.877  11.310  0.00  0.00    +0.000 NA
ATOM     27  C   UNL     1      44.479   6.712  11.744  0.00  0.00    +0.000 A 
ATOM     28  N   UNL     1      45.629   6.452  12.455  0.00  0.00    +0.000 N 
ATOM     29  C   UNL     1      45.908   5.121  12.952  0.00  0.00    +0.000 C 
ATOM     30  C   UNL     1      46.518   7.465  12.792  0.00  0.00    +0.000 A 
ATOM     31  O   UNL     1      47.508   7.266  13.496  0.00  0.00    +0.000 OA
ATOM     32  C   UNL     1      46.174   8.778  12.280  0.00  0.00    +0.000 A 
ENDBRANCH  19  22
ENDBRANCH   1  18
BRANCH   1  34
ATOM     33  C   UNL     1      51.557   9.597  10.652  0.00  0.00    +0.000 C 
ATOM     34  C   UNL     1      51.544   8.912  12.017  0.00  0.00    +0.000 C 
ENDBRANCH   1  34
TORSDOF 8
ENDMDL
