MODEL 1
REMARK VINA RESULT:    -6.473      0.000      0.000
REMARK INTER + INTRA:          -9.094
REMARK INTER:                  -8.554
REMARK INTRA:                  -0.539
REMARK UNBOUND:                -0.539
REMARK  Name = 
REMARK  6 active torsions:
REMARK  status: ('A' for Active; 'I' for Inactive)
REMARK    1  A    between atoms: N_1  and  C_2
REMARK    2  A    between atoms: C_2  and  C_3
REMARK    3  A    between atoms: C_3  and  C_4
REMARK    4  A    between atoms: N_7  and  C_8
REMARK    5  A    between atoms: C_8  and  N_9
REMARK    6  A    between atoms: C_15  and  C_16
REMARK                            x       y       z     vdW  Elec       q    Type
REMARK                         _______ _______ _______ _____ _____    ______ ____
ROOT
ATOM      1  N   UNL     1      46.520   6.525  13.231  0.00  0.00    +0.000 N 
ATOM      2  C   UNL     1      46.401   7.882  13.058  0.00  0.00    +0.000 A 
ATOM      3  C   UNL     1      45.298   8.119  12.267  0.00  0.00    +0.000 A 
ATOM      4  C   UNL     1      44.741   6.866  11.929  0.00  0.00    +0.000 A 
ATOM      5  N   UNL     1      43.688   6.594  11.119  0.00  0.00    +0.000 NA
ATOM      6  C   UNL     1      43.437   5.279  10.934  0.00  0.00    +0.000 A 
ATOM      7  C   UNL     1      44.128   4.230  11.540  0.00  0.00    +0.000 A 
ATOM      8  C   UNL     1      45.155   4.528  12.438  0.00  0.00    +0.000 A 
ATOM      9  C   UNL     1      45.487   5.877  12.576  0.00  0.00    +0.000 A 
ENDROOT
BRANCH   7  10
ATOM     10  C   UNL     1      43.790   2.842  11.155  0.00  0.00    +0.000 C 
ATOM     11  N   UNL     1      44.442   2.324  10.074  0.00  0.00    +0.000 N 
ATOM     12  O   UNL     1      42.926   2.201  11.736  0.00  0.00    +0.000 OA
ATOM     13  H   UNL     1      44.963   2.897   9.423  0.00  0.00    +0.000 HD
ATOM     14  H   UNL     1      44.092   1.439   9.723  0.00  0.00    +0.000 HD
ENDBRANCH   7  10
BRANCH   1  15
ATOM     15  C   UNL     1      47.692   5.861  13.809  0.00  0.00    +0.000 C 
BRANCH  15  19
ATOM     16  C   UNL     1      48.790   4.598  17.752  0.00  0.00    +0.000 C 
ATOM     17  C   UNL     1      47.483   4.050  17.161  0.00  0.00    +0.000 C 
ATOM     18  C   UNL     1      47.334   4.326  15.661  0.00  0.00    +0.000 C 
ATOM     19  N   UNL     1      47.563   5.728  15.272  0.00  0.00    +0.000 NA
ATOM     20  C   UNL     1      48.769   6.312  15.887  0.00  0.00    +0.000 C 
ATOM     21  C   UNL     1      48.859   6.084  17.395  0.00  0.00    +0.000 C 
BRANCH  16  22
ATOM     22  C   UNL     1      50.023   3.783  17.289  0.00  0.00    +0.000 C 
BRANCH  22  23
ATOM     23  C   UNL     1      49.858   2.258  17.352  0.00  0.00    +0.000 C 
BRANCH  23  24
ATOM     24  N   UNL     1      49.759   1.661  16.028  0.00  0.00    +0.000 NA
ATOM     25  H   UNL     1      50.693   1.469  15.667  0.00  0.00    +0.000 HD
ATOM     26  H   UNL     1      49.335   2.325  15.380  0.00  0.00    +0.000 HD
ENDBRANCH  23  24
ENDBRANCH  22  23
ENDBRANCH  16  22
ENDBRANCH  15  19
ENDBRANCH   1  15
TORSDOF 6
ENDMDL
MODEL 2
REMARK VINA RESULT:    -5.996      3.527      5.086
REMARK INTER + INTRA:          -8.464
REMARK INTER:                  -8.065
REMARK INTRA:                  -0.399
REMARK UNBOUND:                -0.539
REMARK  Name = 
REMARK  6 active torsions:
REMARK  status: ('A' for Active; 'I' for Inactive)
REMARK    1  A    between atoms: N_1  and  C_2
REMARK    2  A    between atoms: C_2  and  C_3
REMARK    3  A    between atoms: C_3  and  C_4
REMARK    4  A    between atoms: N_7  and  C_8
REMARK    5  A    between atoms: C_8  and  N_9
REMARK    6  A    between atoms: C_15  and  C_16
REMARK                            x       y       z     vdW  Elec       q    Type
REMARK                         _______ _______ _______ _____ _____    ______ ____
ROOT
ATOM      1  N   UNL     1      44.264   5.036  11.320  0.00  0.00    +0.000 N 
ATOM      2  C   UNL     1      43.328   4.455  12.140  0.00  0.00    +0.000 A 
ATOM      3  C   UNL     1      43.137   3.157  11.721  0.00  0.00    +0.000 A 
ATOM      4  C   UNL     1      43.966   2.947  10.596  0.00  0.00    +0.000 A 
ATOM      5  N   UNL     1      44.070   1.848   9.810  0.00  0.00    +0.000 NA
ATOM      6  C   UNL     1      44.908   1.978   8.757  0.00  0.00    +0.000 A 
ATOM      7  C   UNL     1      45.679   3.105   8.471  0.00  0.00    +0.000 A 
ATOM      8  C   UNL     1      45.625   4.198   9.338  0.00  0.00    +0.000 A 
ATOM      9  C   UNL     1      44.701   4.117  10.383  0.00  0.00    +0.000 A 
ENDROOT
BRANCH   7  10
ATOM     10  C   UNL     1      46.472   3.123   7.223  0.00  0.00    +0.000 C 
ATOM     11  N   UNL     1      47.330   2.080   7.022  0.00  0.00    +0.000 N 
ATOM     12  O   UNL     1      46.413   4.052   6.430  0.00  0.00    +0.000 OA
ATOM     13  H   UNL     1      47.594   1.439   7.758  0.00  0.00    +0.000 HD
ATOM     14  H   UNL     1      47.981   2.180   6.250  0.00  0.00    +0.000 HD
ENDBRANCH   7  10
BRANCH   1  15
ATOM     15  C   UNL     1      44.565   6.471  11.290  0.00  0.00    +0.000 C 
BRANCH  15  19
ATOM     16  C   UNL     1      48.141   7.902  13.164  0.00  0.00    +0.000 C 
ATOM     17  C   UNL     1      47.719   6.451  13.437  0.00  0.00    +0.000 C 
ATOM     18  C   UNL     1      46.610   5.958  12.504  0.00  0.00    +0.000 C 
ATOM     19  N   UNL     1      45.445   6.855  12.409  0.00  0.00    +0.000 NA
ATOM     20  C   UNL     1      45.817   8.270  12.227  0.00  0.00    +0.000 C 
ATOM     21  C   UNL     1      46.874   8.758  13.216  0.00  0.00    +0.000 C 
BRANCH  16  22
ATOM     22  C   UNL     1      48.936   8.036  11.842  0.00  0.00    +0.000 C 
BRANCH  22  23
ATOM     23  C   UNL     1      50.463   8.064  12.000  0.00  0.00    +0.000 C 
BRANCH  23  24
ATOM     24  N   UNL     1      50.915   9.216  12.767  0.00  0.00    +0.000 NA
ATOM     25  H   UNL     1      51.883   9.429  12.529  0.00  0.00    +0.000 HD
ATOM     26  H   UNL     1      50.911   8.992  13.762  0.00  0.00    +0.000 HD
ENDBRANCH  23  24
ENDBRANCH  22  23
ENDBRANCH  16  22
ENDBRANCH  15  19
ENDBRANCH   1  15
TORSDOF 6
ENDMDL
MODEL 3
REMARK VINA RESULT:    -5.864      1.861      2.659
REMARK INTER + INTRA:          -8.289
REMARK INTER:                  -8.205
REMARK INTRA:                  -0.084
REMARK UNBOUND:                -0.539
REMARK  Name = 
REMARK  6 active torsions:
REMARK  status: ('A' for Active; 'I' for Inactive)
REMARK    1  A    between atoms: N_1  and  C_2
REMARK    2  A    between atoms: C_2  and  C_3
REMARK    3  A    between atoms: C_3  and  C_4
REMARK    4  A    between atoms: N_7  and  C_8
REMARK    5  A    between atoms: C_8  and  N_9
REMARK    6  A    between atoms: C_15  and  C_16
REMARK                            x       y       z     vdW  Elec       q    Type
REMARK                         _______ _______ _______ _____ _____    ______ ____
ROOT
ATOM      1  N   UNL     1      47.058   5.299  14.313  0.00  0.00    +0.000 N 
ATOM      2  C   UNL     1      47.878   6.384  14.124  0.00  0.00    +0.000 A 
ATOM      3  C   UNL     1      47.671   6.861  12.847  0.00  0.00    +0.000 A 
ATOM      4  C   UNL     1      46.712   6.025  12.232  0.00  0.00    +0.000 A 
ATOM      5  N   UNL     1      46.241   6.064  10.962  0.00  0.00    +0.000 NA
ATOM      6  C   UNL     1      45.372   5.078  10.646  0.00  0.00    +0.000 A 
ATOM      7  C   UNL     1      44.909   4.097  11.523  0.00  0.00    +0.000 A 
ATOM      8  C   UNL     1      45.338   4.122  12.851  0.00  0.00    +0.000 A 
ATOM      9  C   UNL     1      46.302   5.079  13.175  0.00  0.00    +0.000 A 
ENDROOT
BRANCH   7  10
ATOM     10  C   UNL     1      44.033   3.030  10.993  0.00  0.00    +0.000 C 
ATOM     11  N   UNL     1      44.516   2.294   9.949  0.00  0.00    +0.000 N 
ATOM     12  O   UNL     1      42.904   2.844  11.424  0.00  0.00    +0.000 OA
ATOM     13  H   UNL     1      45.321   2.579   9.407  0.00  0.00    +0.000 HD
ATOM     14  H   UNL     1      43.853   1.678   9.492  0.00  0.00    +0.000 HD
ENDBRANCH   7  10
BRANCH   1  15
ATOM     15  C   UNL     1      47.151   4.376  15.448  0.00  0.00    +0.000 C 
BRANCH  15  19
ATOM     16  C   UNL     1      49.787   4.369  18.824  0.00  0.00    +0.000 C 
ATOM     17  C   UNL     1      49.516   5.710  18.129  0.00  0.00    +0.000 C 
ATOM     18  C   UNL     1      48.352   5.652  17.135  0.00  0.00    +0.000 C 
ATOM     19  N   UNL     1      48.426   4.543  16.169  0.00  0.00    +0.000 NA
ATOM     20  C   UNL     1      48.766   3.252  16.793  0.00  0.00    +0.000 C 
ATOM     21  C   UNL     1      49.974   3.320  17.725  0.00  0.00    +0.000 C 
BRANCH  16  22
ATOM     22  C   UNL     1      48.683   4.013  19.851  0.00  0.00    +0.000 C 
BRANCH  22  23
ATOM     23  C   UNL     1      48.515   5.016  21.000  0.00  0.00    +0.000 C 
BRANCH  23  24
ATOM     24  N   UNL     1      47.153   5.521  21.094  0.00  0.00    +0.000 NA
ATOM     25  H   UNL     1      46.583   5.113  20.354  0.00  0.00    +0.000 HD
ATOM     26  H   UNL     1      47.146   6.529  20.933  0.00  0.00    +0.000 HD
ENDBRANCH  23  24
ENDBRANCH  22  23
ENDBRANCH  16  22
ENDBRANCH  15  19
ENDBRANCH   1  15
TORSDOF 6
ENDMDL
MODEL 4
REMARK VINA RESULT:    -5.863      2.150      6.533
REMARK INTER + INTRA:          -8.288
REMARK INTER:                  -7.743
REMARK INTRA:                  -0.545
REMARK UNBOUND:                -0.539
REMARK  Name = 
REMARK  6 active torsions:
REMARK  status: ('A' for Active; 'I' for Inactive)
REMARK    1  A    between atoms: N_1  and  C_2
REMARK    2  A    between atoms: C_2  and  C_3
REMARK    3  A    between atoms: C_3  and  C_4
REMARK    4  A    between atoms: N_7  and  C_8
REMARK    5  A    between atoms: C_8  and  N_9
REMARK    6  A    between atoms: C_15  and  C_16
REMARK                            x       y       z     vdW  Elec       q    Type
REMARK                         _______ _______ _______ _____ _____    ______ ____
ROOT
ATOM      1  N   UNL     1      48.372   6.851  14.148  0.00  0.00    +0.000 N 
ATOM      2  C   UNL     1      48.745   8.171  14.216  0.00  0.00    +0.000 A 
ATOM      3  C   UNL     1      48.992   8.479  15.536  0.00  0.00    +0.000 A 
ATOM      4  C   UNL     1      48.740   7.316  16.298  0.00  0.00    +0.000 A 
ATOM      5  N   UNL     1      48.786   7.155  17.643  0.00  0.00    +0.000 NA
ATOM      6  C   UNL     1      48.421   5.930  18.083  0.00  0.00    +0.000 A 
ATOM      7  C   UNL     1      48.066   4.852  17.272  0.00  0.00    +0.000 A 
ATOM      8  C   UNL     1      48.107   5.009  15.885  0.00  0.00    +0.000 A 
ATOM      9  C   UNL     1      48.397   6.291  15.413  0.00  0.00    +0.000 A 
ENDROOT
BRANCH   7  10
ATOM     10  C   UNL     1      47.598   3.605  17.915  0.00  0.00    +0.000 C 
ATOM     11  N   UNL     1      48.263   3.200  19.036  0.00  0.00    +0.000 N 
ATOM     12  O   UNL     1      46.695   2.931  17.440  0.00  0.00    +0.000 OA
ATOM     13  H   UNL     1      49.160   3.581  19.307  0.00  0.00    +0.000 HD
ATOM     14  H   UNL     1      48.042   2.270  19.374  0.00  0.00    +0.000 HD
ENDBRANCH   7  10
BRANCH   1  15
ATOM     15  C   UNL     1      47.802   6.210  12.959  0.00  0.00    +0.000 C 
BRANCH  15  19
ATOM     16  C   UNL     1      43.812   5.392  11.634  0.00  0.00    +0.000 C 
ATOM     17  C   UNL     1      44.341   6.824  11.474  0.00  0.00    +0.000 C 
ATOM     18  C   UNL     1      45.851   6.940  11.703  0.00  0.00    +0.000 C 
ATOM     19  N   UNL     1      46.332   6.317  12.948  0.00  0.00    +0.000 NA
ATOM     20  C   UNL     1      45.778   4.970  13.174  0.00  0.00    +0.000 C 
ATOM     21  C   UNL     1      44.261   4.895  13.010  0.00  0.00    +0.000 C 
BRANCH  16  22
ATOM     22  C   UNL     1      44.248   4.478  10.463  0.00  0.00    +0.000 C 
BRANCH  22  23
ATOM     23  C   UNL     1      43.945   2.985  10.654  0.00  0.00    +0.000 C 
BRANCH  23  24
ATOM     24  N   UNL     1      44.657   2.153   9.695  0.00  0.00    +0.000 NA
ATOM     25  H   UNL     1      44.716   1.197  10.045  0.00  0.00    +0.000 HD
ATOM     26  H   UNL     1      45.619   2.480   9.601  0.00  0.00    +0.000 HD
ENDBRANCH  23  24
ENDBRANCH  22  23
ENDBRANCH  16  22
ENDBRANCH  15  19
ENDBRANCH   1  15
TORSDOF 6
ENDMDL
MODEL 5
REMARK VINA RESULT:    -5.420      3.045      7.535
REMARK INTER + INTRA:          -7.702
REMARK INTER:                  -7.375
REMARK INTRA:                  -0.327
REMARK UNBOUND:                -0.539
REMARK  Name = 
REMARK  6 active torsions:
REMARK  status: ('A' for Active; 'I' for Inactive)
REMARK    1  A    between atoms: N_1  and  C_2
REMARK    2  A    between atoms: C_2  and  C_3
REMARK    3  A    between atoms: C_3  and  C_4
REMARK    4  A    between atoms: N_7  and  C_8
REMARK    5  A    between atoms: C_8  and  N_9
REMARK    6  A    between atoms: C_15  and  C_16
REMARK                            x       y       z     vdW  Elec       q    Type
REMARK                         _______ _______ _______ _____ _____    ______ ____
ROOT
ATOM      1  N   UNL     1      47.331   4.836  15.072  0.00  0.00    +0.000 N 
ATOM      2  C   UNL     1      47.061   3.784  15.912  0.00  0.00    +0.000 A 
ATOM      3  C   UNL     1      47.825   3.935  17.049  0.00  0.00    +0.000 A 
ATOM      4  C   UNL     1      48.603   5.103  16.886  0.00  0.00    +0.000 A 
ATOM      5  N   UNL     1      49.547   5.617  17.711  0.00  0.00    +0.000 NA
ATOM      6  C   UNL     1      50.174   6.719  17.242  0.00  0.00    +0.000 A 
ATOM      7  C   UNL     1      49.886   7.364  16.039  0.00  0.00    +0.000 A 
ATOM      8  C   UNL     1      48.853   6.871  15.240  0.00  0.00    +0.000 A 
ATOM      9  C   UNL     1      48.251   5.683  15.664  0.00  0.00    +0.000 A 
ENDROOT
BRANCH   7  10
ATOM     10  C   UNL     1      50.732   8.504  15.626  0.00  0.00    +0.000 C 
ATOM     11  N   UNL     1      50.877   9.523  16.523  0.00  0.00    +0.000 N 
ATOM     12  O   UNL     1      51.235   8.568  14.513  0.00  0.00    +0.000 OA
ATOM     13  H   UNL     1      50.281   9.626  17.333  0.00  0.00    +0.000 HD
ATOM     14  H   UNL     1      51.322  10.365  16.174  0.00  0.00    +0.000 HD
ENDBRANCH   7  10
BRANCH   1  15
ATOM     15  C   UNL     1      46.901   4.913  13.673  0.00  0.00    +0.000 C 
BRANCH  15  19
ATOM     16  C   UNL     1      43.221   4.153  11.618  0.00  0.00    +0.000 C 
ATOM     17  C   UNL     1      43.200   5.157  12.779  0.00  0.00    +0.000 C 
ATOM     18  C   UNL     1      44.599   5.571  13.247  0.00  0.00    +0.000 C 
ATOM     19  N   UNL     1      45.512   4.446  13.515  0.00  0.00    +0.000 NA
ATOM     20  C   UNL     1      45.496   3.421  12.456  0.00  0.00    +0.000 C 
ATOM     21  C   UNL     1      44.091   2.973  12.057  0.00  0.00    +0.000 C 
BRANCH  16  22
ATOM     22  C   UNL     1      43.674   4.809  10.291  0.00  0.00    +0.000 C 
BRANCH  22  23
ATOM     23  C   UNL     1      44.328   3.855   9.282  0.00  0.00    +0.000 C 
BRANCH  23  24
ATOM     24  N   UNL     1      45.194   4.555   8.345  0.00  0.00    +0.000 NA
ATOM     25  H   UNL     1      46.166   4.464   8.641  0.00  0.00    +0.000 HD
ATOM     26  H   UNL     1      44.985   5.553   8.361  0.00  0.00    +0.000 HD
ENDBRANCH  23  24
ENDBRANCH  22  23
ENDBRANCH  16  22
ENDBRANCH  15  19
ENDBRANCH   1  15
TORSDOF 6
ENDMDL
MODEL 6
REMARK VINA RESULT:    -5.357      1.328      1.420
REMARK INTER + INTRA:          -7.619
REMARK INTER:                  -7.099
REMARK INTRA:                  -0.520
REMARK UNBOUND:                -0.539
REMARK  Name = 
REMARK  6 active torsions:
REMARK  status: ('A' for Active; 'I' for Inactive)
REMARK    1  A    between atoms: N_1  and  C_2
REMARK    2  A    between atoms: C_2  and  C_3
REMARK    3  A    between atoms: C_3  and  C_4
REMARK    4  A    between atoms: N_7  and  C_8
REMARK    5  A    between atoms: C_8  and  N_9
REMARK    6  A    between atoms: C_15  and  C_16
REMARK                            x       y       z     vdW  Elec       q    Type
REMARK                         _______ _______ _______ _____ _____    ______ ____
ROOT
ATOM      1  N   UNL     1      47.188   7.275  13.392  0.00  0.00    +0.000 N 
ATOM      2  C   UNL     1      46.996   8.600  13.087  0.00  0.00    +0.000 A 
ATOM      3  C   UNL     1      45.819   8.712  12.379  0.00  0.00    +0.000 A 
ATOM      4  C   UNL     1      45.290   7.411  12.228  0.00  0.00    +0.000 A 
ATOM      5  N   UNL     1      44.184   7.017  11.550  0.00  0.00    +0.000 NA
ATOM      6  C   UNL     1      43.975   5.681  11.529  0.00  0.00    +0.000 A 
ATOM      7  C   UNL     1      44.761   4.729  12.177  0.00  0.00    +0.000 A 
ATOM      8  C   UNL     1      45.847   5.158  12.942  0.00  0.00    +0.000 A 
ATOM      9  C   UNL     1      46.132   6.525  12.905  0.00  0.00    +0.000 A 
ENDROOT
BRANCH   7  10
ATOM     10  C   UNL     1      44.451   3.297  11.974  0.00  0.00    +0.000 C 
ATOM     11  N   UNL     1      44.950   2.711  10.847  0.00  0.00    +0.000 N 
ATOM     12  O   UNL     1      43.734   2.673  12.743  0.00  0.00    +0.000 OA
ATOM     13  H   UNL     1      45.321   3.244  10.072  0.00  0.00    +0.000 HD
ATOM     14  H   UNL     1      44.603   1.781  10.636  0.00  0.00    +0.000 HD
ENDBRANCH   7  10
BRANCH   1  15
ATOM     15  C   UNL     1      48.433   6.718  13.929  0.00  0.00    +0.000 C 
BRANCH  15  19
ATOM     16  C   UNL     1      49.818   5.724  17.858  0.00  0.00    +0.000 C 
ATOM     17  C   UNL     1      48.469   5.149  17.406  0.00  0.00    +0.000 C 
ATOM     18  C   UNL     1      48.209   5.321  15.907  0.00  0.00    +0.000 C 
ATOM     19  N   UNL     1      48.414   6.690  15.402  0.00  0.00    +0.000 NA
ATOM     20  C   UNL     1      49.665   7.303  15.883  0.00  0.00    +0.000 C 
ATOM     21  C   UNL     1      49.867   7.182  17.393  0.00  0.00    +0.000 C 
BRANCH  16  22
ATOM     22  C   UNL     1      51.009   4.867  17.364  0.00  0.00    +0.000 C 
BRANCH  22  23
ATOM     23  C   UNL     1      50.961   3.388  17.771  0.00  0.00    +0.000 C 
BRANCH  23  24
ATOM     24  N   UNL     1      52.020   3.041  18.708  0.00  0.00    +0.000 NA
ATOM     25  H   UNL     1      52.107   2.027  18.768  0.00  0.00    +0.000 HD
ATOM     26  H   UNL     1      51.772   3.361  19.644  0.00  0.00    +0.000 HD
ENDBRANCH  23  24
ENDBRANCH  22  23
ENDBRANCH  16  22
ENDBRANCH  15  19
ENDBRANCH   1  15
TORSDOF 6
ENDMDL
MODEL 7
REMARK VINA RESULT:    -5.176      2.137      3.345
REMARK INTER + INTRA:          -7.380
REMARK INTER:                  -7.380
REMARK INTRA:                   0.000
REMARK UNBOUND:                -0.539
REMARK  Name = 
REMARK  6 active torsions:
REMARK  status: ('A' for Active; 'I' for Inactive)
REMARK    1  A    between atoms: N_1  and  C_2
REMARK    2  A    between atoms: C_2  and  C_3
REMARK    3  A    between atoms: C_3  and  C_4
REMARK    4  A    between atoms: N_7  and  C_8
REMARK    5  A    between atoms: C_8  and  N_9
REMARK    6  A    between atoms: C_15  and  C_16
REMARK                            x       y       z     vdW  Elec       q    Type
REMARK                         _______ _______ _______ _____ _____    ______ ____
ROOT
ATOM      1  N   UNL     1      46.465   4.810  12.939  0.00  0.00    +0.000 N 
ATOM      2  C   UNL     1      45.907   3.556  12.893  0.00  0.00    +0.000 A 
ATOM      3  C   UNL     1      44.690   3.650  12.254  0.00  0.00    +0.000 A 
ATOM      4  C   UNL     1      44.489   5.008  11.921  0.00  0.00    +0.000 A 
ATOM      5  N   UNL     1      43.411   5.591  11.343  0.00  0.00    +0.000 NA
ATOM      6  C   UNL     1      43.489   6.935  11.216  0.00  0.00    +0.000 A 
ATOM      7  C   UNL     1      44.584   7.719  11.578  0.00  0.00    +0.000 A 
ATOM      8  C   UNL     1      45.721   7.094  12.094  0.00  0.00    +0.000 A 
ATOM      9  C   UNL     1      45.627   5.717  12.314  0.00  0.00    +0.000 A 
ENDROOT
BRANCH   7  10
ATOM     10  C   UNL     1      44.471   9.189  11.464  0.00  0.00    +0.000 C 
ATOM     11  N   UNL     1      44.658   9.914  12.606  0.00  0.00    +0.000 N 
ATOM     12  O   UNL     1      44.169   9.736  10.413  0.00  0.00    +0.000 OA
ATOM     13  H   UNL     1      44.654   9.495  13.526  0.00  0.00    +0.000 HD
ATOM     14  H   UNL     1      44.423  10.899  12.552  0.00  0.00    +0.000 HD
ENDBRANCH   7  10
BRANCH   1  15
ATOM     15  C   UNL     1      47.639   5.168  13.739  0.00  0.00    +0.000 C 
BRANCH  15  19
ATOM     16  C   UNL     1      48.661   4.015  17.736  0.00  0.00    +0.000 C 
ATOM     17  C   UNL     1      47.641   3.153  16.979  0.00  0.00    +0.000 C 
ATOM     18  C   UNL     1      47.568   3.474  15.483  0.00  0.00    +0.000 C 
ATOM     19  N   UNL     1      47.410   4.905  15.172  0.00  0.00    +0.000 NA
ATOM     20  C   UNL     1      48.320   5.771  15.942  0.00  0.00    +0.000 C 
ATOM     21  C   UNL     1      48.322   5.478  17.442  0.00  0.00    +0.000 C 
BRANCH  16  22
ATOM     22  C   UNL     1      50.119   3.626  17.391  0.00  0.00    +0.000 C 
BRANCH  22  23
ATOM     23  C   UNL     1      50.386   2.118  17.294  0.00  0.00    +0.000 C 
BRANCH  23  24
ATOM     24  N   UNL     1      51.653   1.743  17.906  0.00  0.00    +0.000 NA
ATOM     25  H   UNL     1      52.362   1.624  17.183  0.00  0.00    +0.000 HD
ATOM     26  H   UNL     1      51.561   0.837  18.365  0.00  0.00    +0.000 HD
ENDBRANCH  23  24
ENDBRANCH  22  23
ENDBRANCH  16  22
ENDBRANCH  15  19
ENDBRANCH   1  15
TORSDOF 6
ENDMDL
MODEL 8
REMARK VINA RESULT:    -5.123      2.472      3.707
REMARK INTER + INTRA:          -7.309
REMARK INTER:                  -7.447
REMARK INTRA:                   0.137
REMARK UNBOUND:                -0.539
REMARK  Name = 
REMARK  6 active torsions:
REMARK  status: ('A' for Active; 'I' for Inactive)
REMARK    1  A    between atoms: N_1  and  C_2
REMARK    2  A    between atoms: C_2  and  C_3
REMARK    3  A    between atoms: C_3  and  C_4
REMARK    4  A    between atoms: N_7  and  C_8
REMARK    5  A    between atoms: C_8  and  N_9
REMARK    6  A    between atoms: C_15  and  C_16
REMARK                            x       y       z     vdW  Elec       q    Type
REMARK                         _______ _______ _______ _____ _____    ______ ____
ROOT
ATOM      1  N   UNL     1      46.885   5.230  13.571  0.00  0.00    +0.000 N 
ATOM      2  C   UNL     1      46.749   3.864  13.539  0.00  0.00    +0.000 A 
ATOM      3  C   UNL     1      45.742   3.554  12.652  0.00  0.00    +0.000 A 
ATOM      4  C   UNL     1      45.233   4.770  12.144  0.00  0.00    +0.000 A 
ATOM      5  N   UNL     1      44.196   4.968  11.293  0.00  0.00    +0.000 NA
ATOM      6  C   UNL     1      43.902   6.264  11.047  0.00  0.00    +0.000 A 
ATOM      7  C   UNL     1      44.601   7.362  11.548  0.00  0.00    +0.000 A 
ATOM      8  C   UNL     1      45.719   7.140  12.355  0.00  0.00    +0.000 A 
ATOM      9  C   UNL     1      45.987   5.811  12.692  0.00  0.00    +0.000 A 
ENDROOT
BRANCH   7  10
ATOM     10  C   UNL     1      44.090   8.720  11.260  0.00  0.00    +0.000 C 
ATOM     11  N   UNL     1      42.821   8.811  10.766  0.00  0.00    +0.000 N 
ATOM     12  O   UNL     1      44.784   9.717  11.399  0.00  0.00    +0.000 OA
ATOM     13  H   UNL     1      42.318   8.013  10.401  0.00  0.00    +0.000 HD
ATOM     14  H   UNL     1      42.539   9.723  10.423  0.00  0.00    +0.000 HD
ENDBRANCH   7  10
BRANCH   1  15
ATOM     15  C   UNL     1      47.681   5.963  14.560  0.00  0.00    +0.000 C 
BRANCH  15  19
ATOM     16  C   UNL     1      48.797   4.416  18.395  0.00  0.00    +0.000 C 
ATOM     17  C   UNL     1      49.913   4.937  17.479  0.00  0.00    +0.000 C 
ATOM     18  C   UNL     1      49.390   5.724  16.274  0.00  0.00    +0.000 C 
ATOM     19  N   UNL     1      48.332   5.042  15.510  0.00  0.00    +0.000 NA
ATOM     20  C   UNL     1      47.283   4.459  16.365  0.00  0.00    +0.000 C 
ATOM     21  C   UNL     1      47.828   3.618  17.518  0.00  0.00    +0.000 C 
BRANCH  16  22
ATOM     22  C   UNL     1      48.125   5.557  19.197  0.00  0.00    +0.000 C 
BRANCH  22  23
ATOM     23  C   UNL     1      48.212   5.421  20.723  0.00  0.00    +0.000 C 
BRANCH  23  24
ATOM     24  N   UNL     1      48.462   4.048  21.139  0.00  0.00    +0.000 NA
ATOM     25  H   UNL     1      49.351   3.730  20.757  0.00  0.00    +0.000 HD
ATOM     26  H   UNL     1      47.748   3.433  20.747  0.00  0.00    +0.000 HD
ENDBRANCH  23  24
ENDBRANCH  22  23
ENDBRANCH  16  22
ENDBRANCH  15  19
ENDBRANCH   1  15
TORSDOF 6
ENDMDL
MODEL 9
REMARK VINA RESULT:    -5.108      3.026      7.229
REMARK INTER + INTRA:          -7.290
REMARK INTER:                  -6.914
REMARK INTRA:                  -0.376
REMARK UNBOUND:                -0.539
REMARK  Name = 
REMARK  6 active torsions:
REMARK  status: ('A' for Active; 'I' for Inactive)
REMARK    1  A    between atoms: N_1  and  C_2
REMARK    2  A    between atoms: C_2  and  C_3
REMARK    3  A    between atoms: C_3  and  C_4
REMARK    4  A    between atoms: N_7  and  C_8
REMARK    5  A    between atoms: C_8  and  N_9
REMARK    6  A    between atoms: C_15  and  C_16
REMARK                            x       y       z     vdW  Elec       q    Type
REMARK                         _______ _______ _______ _____ _____    ______ ____
ROOT
ATOM      1  N   UNL     1      49.234   7.082  14.918  0.00  0.00    +0.000 N 
ATOM      2  C   UNL     1      50.321   7.797  14.478  0.00  0.00    +0.000 A 
ATOM      3  C   UNL     1      51.378   7.533  15.321  0.00  0.00    +0.000 A 
ATOM      4  C   UNL     1      50.915   6.647  16.319  0.00  0.00    +0.000 A 
ATOM      5  N   UNL     1      51.577   6.160  17.397  0.00  0.00    +0.000 NA
ATOM      6  C   UNL     1      50.836   5.381  18.216  0.00  0.00    +0.000 A 
ATOM      7  C   UNL     1      49.505   5.019  18.004  0.00  0.00    +0.000 A 
ATOM      8  C   UNL     1      48.863   5.459  16.845  0.00  0.00    +0.000 A 
ATOM      9  C   UNL     1      49.584   6.336  16.030  0.00  0.00    +0.000 A 
ENDROOT
BRANCH   7  10
ATOM     10  C   UNL     1      48.808   4.238  19.048  0.00  0.00    +0.000 C 
ATOM     11  N   UNL     1      47.931   3.282  18.622  0.00  0.00    +0.000 N 
ATOM     12  O   UNL     1      48.958   4.468  20.239  0.00  0.00    +0.000 OA
ATOM     13  H   UNL     1      47.592   3.236  17.671  0.00  0.00    +0.000 HD
ATOM     14  H   UNL     1      47.344   2.865  19.336  0.00  0.00    +0.000 HD
ENDBRANCH   7  10
BRANCH   1  15
ATOM     15  C   UNL     1      47.863   7.272  14.434  0.00  0.00    +0.000 C 
BRANCH  15  19
ATOM     16  C   UNL     1      45.260   4.824  12.073  0.00  0.00    +0.000 C 
ATOM     17  C   UNL     1      46.200   4.124  13.064  0.00  0.00    +0.000 C 
ATOM     18  C   UNL     1      46.867   5.087  14.051  0.00  0.00    +0.000 C 
ATOM     19  N   UNL     1      47.507   6.257  13.426  0.00  0.00    +0.000 NA
ATOM     20  C   UNL     1      46.661   6.907  12.409  0.00  0.00    +0.000 C 
ATOM     21  C   UNL     1      46.066   5.933  11.393  0.00  0.00    +0.000 C 
BRANCH  16  22
ATOM     22  C   UNL     1      43.961   5.318  12.756  0.00  0.00    +0.000 C 
BRANCH  22  23
ATOM     23  C   UNL     1      42.692   5.205  11.901  0.00  0.00    +0.000 C 
BRANCH  23  24
ATOM     24  N   UNL     1      42.003   6.481  11.769  0.00  0.00    +0.000 NA
ATOM     25  H   UNL     1      41.237   6.391  11.101  0.00  0.00    +0.000 HD
ATOM     26  H   UNL     1      42.637   7.178  11.379  0.00  0.00    +0.000 HD
ENDBRANCH  23  24
ENDBRANCH  22  23
ENDBRANCH  16  22
ENDBRANCH  15  19
ENDBRANCH   1  15
TORSDOF 6
ENDMDL
