MODEL 1
REMARK VINA RESULT:    -8.297      0.000      0.000
REMARK INTER + INTRA:         -12.415
REMARK INTER:                 -11.208
REMARK INTRA:                  -1.208
REMARK UNBOUND:                -1.208
REMARK  Name = 
REMARK  6 active torsions:
REMARK  status: ('A' for Active; 'I' for Inactive)
REMARK    1  A    between atoms: C_2  and  C_26
REMARK    2  A    between atoms: N_3  and  C_4
REMARK    3  A    between atoms: C_4  and  C_5
REMARK    4  A    between atoms: C_8  and  C_9
REMARK    5  A    between atoms: C_9  and  N_10
REMARK    6  A    between atoms: C_11  and  C_13
REMARK                            x       y       z     vdW  Elec       q    Type
REMARK                         _______ _______ _______ _____ _____    ______ ____
ROOT
ATOM      1  C   UNL     1      44.759   5.814  10.853  0.00  0.00    +0.000 A 
ATOM      2  C   UNL     1      44.199   6.352  12.020  0.00  0.00    +0.000 A 
ATOM      3  C   UNL     1      44.968   7.138  12.885  0.00  0.00    +0.000 A 
ATOM      4  C   UNL     1      46.316   7.397  12.603  0.00  0.00    +0.000 A 
ATOM      5  C   UNL     1      46.860   6.876  11.429  0.00  0.00    +0.000 A 
ATOM      6  F   UNL     1      48.143   7.116  11.120  0.00  0.00    +0.000 F 
ATOM      7  C   UNL     1      46.100   6.096  10.558  0.00  0.00    +0.000 A 
ENDROOT
BRANCH   1   8
ATOM      8  C   UNL     1      43.940   4.944   9.941  0.00  0.00    +0.000 C 
BRANCH   8  11
ATOM      9  O   UNL     1      45.106   2.465  10.069  0.00  0.00    +0.000 OA
ATOM     10  C   UNL     1      45.266   3.109   9.035  0.00  0.00    +0.000 C 
ATOM     11  N   UNL     1      44.716   4.364   8.875  0.00  0.00    +0.000 N 
ATOM     12  H   UNL     1      44.837   4.842   7.991  0.00  0.00    +0.000 HD
BRANCH  10  13
ATOM     13  C   UNL     1      46.023   2.607   7.908  0.00  0.00    +0.000 A 
ATOM     14  C   UNL     1      46.351   3.223   6.713  0.00  0.00    +0.000 A 
ATOM     15  C   UNL     1      47.085   2.283   5.955  0.00  0.00    +0.000 A 
ATOM     16  C   UNL     1      47.159   1.147   6.728  0.00  0.00    +0.000 A 
ATOM     17  O   UNL     1      46.526   1.332   7.917  0.00  0.00    +0.000 OA
ENDBRANCH  10  13
ENDBRANCH   8  11
ENDBRANCH   1   8
BRANCH   4  18
ATOM     18  C   UNL     1      47.141   8.252  13.523  0.00  0.00    +0.000 C 
BRANCH  18  19
ATOM     19  N   UNL     1      47.564   7.515  14.690  0.00  0.00    +0.000 N 
ATOM     20  C   UNL     1      48.798   6.922  14.743  0.00  0.00    +0.000 C 
ATOM     21  O   UNL     1      49.599   7.004  13.815  0.00  0.00    +0.000 OA
ATOM     22  H   UNL     1      46.859   7.277  15.380  0.00  0.00    +0.000 HD
BRANCH  20  23
ATOM     23  C   UNL     1      49.142   6.230  15.990  0.00  0.00    +0.000 A 
ATOM     24  C   UNL     1      50.213   6.678  16.751  0.00  0.00    +0.000 A 
ATOM     25  S   UNL     1      50.455   5.789  18.185  0.00  0.00    +0.000 S 
ATOM     26  C   UNL     1      49.163   4.745  17.820  0.00  0.00    +0.000 A 
ATOM     27  N   UNL     1      48.841   3.717  18.650  0.00  0.00    +0.000 NA
ATOM     28  C   UNL     1      47.860   2.985  18.237  0.00  0.00    +0.000 A 
ATOM     29  N   UNL     1      47.170   3.192  17.070  0.00  0.00    +0.000 N 
ATOM     30  C   UNL     1      47.439   4.236  16.217  0.00  0.00    +0.000 A 
ATOM     31  O   UNL     1      46.768   4.421  15.206  0.00  0.00    +0.000 OA
ATOM     32  C   UNL     1      48.544   5.080  16.629  0.00  0.00    +0.000 A 
ATOM     33  H   UNL     1      46.405   2.588  16.810  0.00  0.00    +0.000 HD
ENDBRANCH  20  23
ENDBRANCH  18  19
ENDBRANCH   4  18
TORSDOF 6
ENDMDL
MODEL 2
REMARK VINA RESULT:    -7.978      1.284      1.397
REMARK INTER + INTRA:         -11.984
REMARK INTER:                 -11.187
REMARK INTRA:                  -0.797
REMARK UNBOUND:                -1.208
REMARK  Name = 
REMARK  6 active torsions:
REMARK  status: ('A' for Active; 'I' for Inactive)
REMARK    1  A    between atoms: C_2  and  C_26
REMARK    2  A    between atoms: N_3  and  C_4
REMARK    3  A    between atoms: C_4  and  C_5
REMARK    4  A    between atoms: C_8  and  C_9
REMARK    5  A    between atoms: C_9  and  N_10
REMARK    6  A    between atoms: C_11  and  C_13
REMARK                            x       y       z     vdW  Elec       q    Type
REMARK                         _______ _______ _______ _____ _____    ______ ____
ROOT
ATOM      1  C   UNL     1      44.749   4.893  11.578  0.00  0.00    +0.000 A 
ATOM      2  C   UNL     1      45.789   4.521  12.443  0.00  0.00    +0.000 A 
ATOM      3  C   UNL     1      46.565   5.492  13.084  0.00  0.00    +0.000 A 
ATOM      4  C   UNL     1      46.323   6.856  12.869  0.00  0.00    +0.000 A 
ATOM      5  C   UNL     1      45.273   7.217  12.024  0.00  0.00    +0.000 A 
ATOM      6  F   UNL     1      45.003   8.512  11.806  0.00  0.00    +0.000 F 
ATOM      7  C   UNL     1      44.489   6.256  11.384  0.00  0.00    +0.000 A 
ENDROOT
BRANCH   1   8
ATOM      8  C   UNL     1      43.936   3.848  10.866  0.00  0.00    +0.000 C 
BRANCH   8  11
ATOM      9  O   UNL     1      44.910   4.396   8.362  0.00  0.00    +0.000 OA
ATOM     10  C   UNL     1      45.188   3.302   8.846  0.00  0.00    +0.000 C 
ATOM     11  N   UNL     1      44.745   2.936  10.100  0.00  0.00    +0.000 N 
ATOM     12  H   UNL     1      45.032   2.042  10.478  0.00  0.00    +0.000 HD
BRANCH  10  13
ATOM     13  C   UNL     1      46.000   2.322   8.156  0.00  0.00    +0.000 A 
ATOM     14  C   UNL     1      46.926   2.491   7.142  0.00  0.00    +0.000 A 
ATOM     15  C   UNL     1      47.417   1.207   6.816  0.00  0.00    +0.000 A 
ATOM     16  C   UNL     1      46.760   0.328   7.647  0.00  0.00    +0.000 A 
ATOM     17  O   UNL     1      45.904   0.991   8.469  0.00  0.00    +0.000 OA
ENDBRANCH  10  13
ENDBRANCH   8  11
ENDBRANCH   1   8
BRANCH   4  18
ATOM     18  C   UNL     1      47.147   7.900  13.566  0.00  0.00    +0.000 C 
BRANCH  18  19
ATOM     19  N   UNL     1      47.704   7.397  14.798  0.00  0.00    +0.000 N 
ATOM     20  C   UNL     1      49.002   6.964  14.863  0.00  0.00    +0.000 C 
ATOM     21  O   UNL     1      49.748   6.999  13.888  0.00  0.00    +0.000 OA
ATOM     22  H   UNL     1      47.062   7.184  15.555  0.00  0.00    +0.000 HD
BRANCH  20  23
ATOM     23  C   UNL     1      49.478   6.507  16.173  0.00  0.00    +0.000 A 
ATOM     24  C   UNL     1      50.609   7.087  16.732  0.00  0.00    +0.000 A 
ATOM     25  S   UNL     1      51.006   6.470  18.271  0.00  0.00    +0.000 S 
ATOM     26  C   UNL     1      49.707   5.374  18.227  0.00  0.00    +0.000 A 
ATOM     27  N   UNL     1      49.487   4.510  19.254  0.00  0.00    +0.000 NA
ATOM     28  C   UNL     1      48.486   3.714  19.076  0.00  0.00    +0.000 A 
ATOM     29  N   UNL     1      47.682   3.706  17.966  0.00  0.00    +0.000 N 
ATOM     30  C   UNL     1      47.846   4.581  16.918  0.00  0.00    +0.000 A 
ATOM     31  O   UNL     1      47.077   4.581  15.962  0.00  0.00    +0.000 OA
ATOM     32  C   UNL     1      48.969   5.489  17.062  0.00  0.00    +0.000 A 
ATOM     33  H   UNL     1      46.908   3.063  17.894  0.00  0.00    +0.000 HD
ENDBRANCH  20  23
ENDBRANCH  18  19
ENDBRANCH   4  18
TORSDOF 6
ENDMDL
MODEL 3
REMARK VINA RESULT:    -7.311      4.932      9.366
REMARK INTER + INTRA:         -11.084
REMARK INTER:                 -10.247
REMARK INTRA:                  -0.837
REMARK UNBOUND:                -1.208
REMARK  Name = 
REMARK  6 active torsions:
REMARK  status: ('A' for Active; 'I' for Inactive)
REMARK    1  A    between atoms: C_2  and  C_26
REMARK    2  A    between atoms: N_3  and  C_4
REMARK    3  A    between atoms: C_4  and  C_5
REMARK    4  A    between atoms: C_8  and  C_9
REMARK    5  A    between atoms: C_9  and  N_10
REMARK    6  A    between atoms: C_11  and  C_13
REMARK                            x       y       z     vdW  Elec       q    Type
REMARK                         _______ _______ _______ _____ _____    ______ ____
ROOT
ATOM      1  C   UNL     1      51.341   2.912  17.777  0.00  0.00    +0.000 A 
ATOM      2  C   UNL     1      50.635   1.939  17.055  0.00  0.00    +0.000 A 
ATOM      3  C   UNL     1      49.277   2.110  16.766  0.00  0.00    +0.000 A 
ATOM      4  C   UNL     1      48.594   3.254  17.200  0.00  0.00    +0.000 A 
ATOM      5  C   UNL     1      49.309   4.227  17.900  0.00  0.00    +0.000 A 
ATOM      6  F   UNL     1      48.691   5.341  18.319  0.00  0.00    +0.000 F 
ATOM      7  C   UNL     1      50.664   4.068  18.188  0.00  0.00    +0.000 A 
ENDROOT
BRANCH   1   8
ATOM      8  C   UNL     1      52.793   2.712  18.114  0.00  0.00    +0.000 C 
BRANCH   8  11
ATOM      9  O   UNL     1      54.654   1.172  16.816  0.00  0.00    +0.000 OA
ATOM     10  C   UNL     1      54.054   0.656  17.756  0.00  0.00    +0.000 C 
ATOM     11  N   UNL     1      53.102   1.351  18.471  0.00  0.00    +0.000 N 
ATOM     12  H   UNL     1      52.662   0.902  19.265  0.00  0.00    +0.000 HD
BRANCH  10  13
ATOM     13  C   UNL     1      54.301  -0.701  18.193  0.00  0.00    +0.000 A 
ATOM     14  C   UNL     1      55.022  -1.714  17.585  0.00  0.00    +0.000 A 
ATOM     15  C   UNL     1      54.928  -2.846  18.425  0.00  0.00    +0.000 A 
ATOM     16  C   UNL     1      54.152  -2.461  19.494  0.00  0.00    +0.000 A 
ATOM     17  O   UNL     1      53.771  -1.162  19.371  0.00  0.00    +0.000 OA
ENDBRANCH  10  13
ENDBRANCH   8  11
ENDBRANCH   1   8
BRANCH   4  18
ATOM     18  C   UNL     1      47.139   3.446  16.881  0.00  0.00    +0.000 C 
BRANCH  18  19
ATOM     19  N   UNL     1      46.948   4.477  15.890  0.00  0.00    +0.000 N 
ATOM     20  C   UNL     1      47.003   4.189  14.551  0.00  0.00    +0.000 C 
ATOM     21  O   UNL     1      47.199   3.049  14.138  0.00  0.00    +0.000 OA
ATOM     22  H   UNL     1      46.974   5.443  16.200  0.00  0.00    +0.000 HD
BRANCH  20  23
ATOM     23  C   UNL     1      46.757   5.304  13.629  0.00  0.00    +0.000 A 
ATOM     24  C   UNL     1      47.780   6.201  13.349  0.00  0.00    +0.000 A 
ATOM     25  S   UNL     1      47.342   7.412  12.232  0.00  0.00    +0.000 S 
ATOM     26  C   UNL     1      45.757   6.809  12.116  0.00  0.00    +0.000 A 
ATOM     27  N   UNL     1      44.835   7.418  11.324  0.00  0.00    +0.000 NA
ATOM     28  C   UNL     1      43.664   6.874  11.352  0.00  0.00    +0.000 A 
ATOM     29  N   UNL     1      43.332   5.773  12.100  0.00  0.00    +0.000 N 
ATOM     30  C   UNL     1      44.239   5.107  12.890  0.00  0.00    +0.000 A 
ATOM     31  O   UNL     1      43.922   4.094  13.507  0.00  0.00    +0.000 OA
ATOM     32  C   UNL     1      45.568   5.687  12.905  0.00  0.00    +0.000 A 
ATOM     33  H   UNL     1      42.400   5.391  12.069  0.00  0.00    +0.000 HD
ENDBRANCH  20  23
ENDBRANCH  18  19
ENDBRANCH   4  18
TORSDOF 6
ENDMDL
MODEL 4
REMARK VINA RESULT:    -7.263      2.239      2.647
REMARK INTER + INTRA:         -11.018
REMARK INTER:                 -10.104
REMARK INTRA:                  -0.915
REMARK UNBOUND:                -1.208
REMARK  Name = 
REMARK  6 active torsions:
REMARK  status: ('A' for Active; 'I' for Inactive)
REMARK    1  A    between atoms: C_2  and  C_26
REMARK    2  A    between atoms: N_3  and  C_4
REMARK    3  A    between atoms: C_4  and  C_5
REMARK    4  A    between atoms: C_8  and  C_9
REMARK    5  A    between atoms: C_9  and  N_10
REMARK    6  A    between atoms: C_11  and  C_13
REMARK                            x       y       z     vdW  Elec       q    Type
REMARK                         _______ _______ _______ _____ _____    ______ ____
ROOT
ATOM      1  C   UNL     1      45.316   6.194  11.305  0.00  0.00    +0.000 A 
ATOM      2  C   UNL     1      46.558   5.690  11.716  0.00  0.00    +0.000 A 
ATOM      3  C   UNL     1      47.367   6.417  12.596  0.00  0.00    +0.000 A 
ATOM      4  C   UNL     1      46.954   7.666  13.078  0.00  0.00    +0.000 A 
ATOM      5  C   UNL     1      45.707   8.151  12.681  0.00  0.00    +0.000 A 
ATOM      6  F   UNL     1      45.274   9.336  13.134  0.00  0.00    +0.000 F 
ATOM      7  C   UNL     1      44.891   7.432  11.809  0.00  0.00    +0.000 A 
ENDROOT
BRANCH   1   8
ATOM      8  C   UNL     1      44.461   5.427  10.335  0.00  0.00    +0.000 C 
BRANCH   8  11
ATOM      9  O   UNL     1      43.983   2.784   9.784  0.00  0.00    +0.000 OA
ATOM     10  C   UNL     1      44.918   3.320   9.195  0.00  0.00    +0.000 C 
ATOM     11  N   UNL     1      45.235   4.646   9.405  0.00  0.00    +0.000 N 
ATOM     12  H   UNL     1      45.986   5.061   8.867  0.00  0.00    +0.000 HD
BRANCH  10  13
ATOM     13  C   UNL     1      45.747   2.621   8.237  0.00  0.00    +0.000 A 
ATOM     14  C   UNL     1      46.224   3.033   7.005  0.00  0.00    +0.000 A 
ATOM     15  C   UNL     1      46.968   1.957   6.472  0.00  0.00    +0.000 A 
ATOM     16  C   UNL     1      46.900   0.949   7.406  0.00  0.00    +0.000 A 
ATOM     17  O   UNL     1      46.170   1.340   8.484  0.00  0.00    +0.000 OA
ENDBRANCH  10  13
ENDBRANCH   8  11
ENDBRANCH   1   8
BRANCH   4  18
ATOM     18  C   UNL     1      47.816   8.442  14.033  0.00  0.00    +0.000 C 
BRANCH  18  19
ATOM     19  N   UNL     1      47.817   7.846  15.347  0.00  0.00    +0.000 N 
ATOM     20  C   UNL     1      48.863   7.068  15.769  0.00  0.00    +0.000 C 
ATOM     21  O   UNL     1      49.845   6.858  15.061  0.00  0.00    +0.000 OA
ATOM     22  H   UNL     1      46.947   7.848  15.869  0.00  0.00    +0.000 HD
BRANCH  20  23
ATOM     23  C   UNL     1      48.780   6.541  17.136  0.00  0.00    +0.000 A 
ATOM     24  C   UNL     1      49.145   5.225  17.387  0.00  0.00    +0.000 A 
ATOM     25  S   UNL     1      49.026   4.783  19.030  0.00  0.00    +0.000 S 
ATOM     26  C   UNL     1      48.441   6.321  19.458  0.00  0.00    +0.000 A 
ATOM     27  N   UNL     1      48.111   6.609  20.745  0.00  0.00    +0.000 NA
ATOM     28  C   UNL     1      47.652   7.802  20.925  0.00  0.00    +0.000 A 
ATOM     29  N   UNL     1      47.497   8.736  19.933  0.00  0.00    +0.000 N 
ATOM     30  C   UNL     1      47.846   8.501  18.624  0.00  0.00    +0.000 A 
ATOM     31  O   UNL     1      47.741   9.376  17.770  0.00  0.00    +0.000 OA
ATOM     32  C   UNL     1      48.354   7.167  18.366  0.00  0.00    +0.000 A 
ATOM     33  H   UNL     1      47.141   9.656  20.143  0.00  0.00    +0.000 HD
ENDBRANCH  20  23
ENDBRANCH  18  19
ENDBRANCH   4  18
TORSDOF 6
ENDMDL
MODEL 5
REMARK VINA RESULT:    -6.855      4.904      9.450
REMARK INTER + INTRA:         -10.467
REMARK INTER:                  -9.368
REMARK INTRA:                  -1.098
REMARK UNBOUND:                -1.208
REMARK  Name = 
REMARK  6 active torsions:
REMARK  status: ('A' for Active; 'I' for Inactive)
REMARK    1  A    between atoms: C_2  and  C_26
REMARK    2  A    between atoms: N_3  and  C_4
REMARK    3  A    between atoms: C_4  and  C_5
REMARK    4  A    between atoms: C_8  and  C_9
REMARK    5  A    between atoms: C_9  and  N_10
REMARK    6  A    between atoms: C_11  and  C_13
REMARK                            x       y       z     vdW  Elec       q    Type
REMARK                         _______ _______ _______ _____ _____    ______ ____
ROOT
ATOM      1  C   UNL     1      51.446   3.071  17.790  0.00  0.00    +0.000 A 
ATOM      2  C   UNL     1      50.722   2.003  17.241  0.00  0.00    +0.000 A 
ATOM      3  C   UNL     1      49.366   2.146  16.929  0.00  0.00    +0.000 A 
ATOM      4  C   UNL     1      48.704   3.358  17.166  0.00  0.00    +0.000 A 
ATOM      5  C   UNL     1      49.437   4.422  17.693  0.00  0.00    +0.000 A 
ATOM      6  F   UNL     1      48.839   5.601  17.920  0.00  0.00    +0.000 F 
ATOM      7  C   UNL     1      50.790   4.291  18.002  0.00  0.00    +0.000 A 
ENDROOT
BRANCH   1   8
ATOM      8  C   UNL     1      52.896   2.906  18.153  0.00  0.00    +0.000 C 
BRANCH   8  11
ATOM      9  O   UNL     1      54.795   1.290  17.011  0.00  0.00    +0.000 OA
ATOM     10  C   UNL     1      54.181   0.840  17.975  0.00  0.00    +0.000 C 
ATOM     11  N   UNL     1      53.208   1.578  18.617  0.00  0.00    +0.000 N 
ATOM     12  H   UNL     1      52.756   1.186  19.434  0.00  0.00    +0.000 HD
BRANCH  10  13
ATOM     13  C   UNL     1      54.429  -0.478  18.517  0.00  0.00    +0.000 A 
ATOM     14  C   UNL     1      54.651  -1.679  17.867  0.00  0.00    +0.000 A 
ATOM     15  C   UNL     1      54.816  -2.663  18.867  0.00  0.00    +0.000 A 
ATOM     16  C   UNL     1      54.681  -2.008  20.070  0.00  0.00    +0.000 A 
ATOM     17  O   UNL     1      54.453  -0.682  19.873  0.00  0.00    +0.000 OA
ENDBRANCH  10  13
ENDBRANCH   8  11
ENDBRANCH   1   8
BRANCH   4  18
ATOM     18  C   UNL     1      47.250   3.519  16.820  0.00  0.00    +0.000 C 
BRANCH  18  19
ATOM     19  N   UNL     1      47.053   4.555  15.836  0.00  0.00    +0.000 N 
ATOM     20  C   UNL     1      47.076   4.271  14.496  0.00  0.00    +0.000 C 
ATOM     21  O   UNL     1      47.246   3.129  14.076  0.00  0.00    +0.000 OA
ATOM     22  H   UNL     1      47.100   5.519  16.148  0.00  0.00    +0.000 HD
BRANCH  20  23
ATOM     23  C   UNL     1      46.827   5.392  13.582  0.00  0.00    +0.000 A 
ATOM     24  C   UNL     1      45.742   5.344  12.717  0.00  0.00    +0.000 A 
ATOM     25  S   UNL     1      45.574   6.738  11.751  0.00  0.00    +0.000 S 
ATOM     26  C   UNL     1      46.971   7.438  12.422  0.00  0.00    +0.000 A 
ATOM     27  N   UNL     1      47.411   8.655  12.005  0.00  0.00    +0.000 NA
ATOM     28  C   UNL     1      48.499   9.054  12.576  0.00  0.00    +0.000 A 
ATOM     29  N   UNL     1      49.185   8.346  13.530  0.00  0.00    +0.000 N 
ATOM     30  C   UNL     1      48.760   7.127  14.004  0.00  0.00    +0.000 A 
ATOM     31  O   UNL     1      49.370   6.544  14.896  0.00  0.00    +0.000 OA
ATOM     32  C   UNL     1      47.549   6.627  13.384  0.00  0.00    +0.000 A 
ATOM     33  H   UNL     1      50.024   8.720  13.944  0.00  0.00    +0.000 HD
ENDBRANCH  20  23
ENDBRANCH  18  19
ENDBRANCH   4  18
TORSDOF 6
ENDMDL
MODEL 6
REMARK VINA RESULT:    -6.826      3.669      8.068
REMARK INTER + INTRA:         -10.428
REMARK INTER:                  -9.506
REMARK INTRA:                  -0.922
REMARK UNBOUND:                -1.208
REMARK  Name = 
REMARK  6 active torsions:
REMARK  status: ('A' for Active; 'I' for Inactive)
REMARK    1  A    between atoms: C_2  and  C_26
REMARK    2  A    between atoms: N_3  and  C_4
REMARK    3  A    between atoms: C_4  and  C_5
REMARK    4  A    between atoms: C_8  and  C_9
REMARK    5  A    between atoms: C_9  and  N_10
REMARK    6  A    between atoms: C_11  and  C_13
REMARK                            x       y       z     vdW  Elec       q    Type
REMARK                         _______ _______ _______ _____ _____    ______ ____
ROOT
ATOM      1  C   UNL     1      50.079   6.921  15.910  0.00  0.00    +0.000 A 
ATOM      2  C   UNL     1      48.806   6.452  15.558  0.00  0.00    +0.000 A 
ATOM      3  C   UNL     1      48.239   6.784  14.323  0.00  0.00    +0.000 A 
ATOM      4  C   UNL     1      48.932   7.598  13.416  0.00  0.00    +0.000 A 
ATOM      5  C   UNL     1      50.207   8.043  13.766  0.00  0.00    +0.000 A 
ATOM      6  F   UNL     1      50.905   8.813  12.918  0.00  0.00    +0.000 F 
ATOM      7  C   UNL     1      50.783   7.713  14.993  0.00  0.00    +0.000 A 
ENDROOT
BRANCH   1   8
ATOM      8  C   UNL     1      50.674   6.589  17.251  0.00  0.00    +0.000 C 
BRANCH   8  11
ATOM      9  O   UNL     1      49.563   4.279  18.225  0.00  0.00    +0.000 OA
ATOM     10  C   UNL     1      50.704   4.208  17.777  0.00  0.00    +0.000 C 
ATOM     11  N   UNL     1      51.347   5.315  17.264  0.00  0.00    +0.000 N 
ATOM     12  H   UNL     1      52.271   5.204  16.867  0.00  0.00    +0.000 HD
BRANCH  10  13
ATOM     13  C   UNL     1      51.457   2.973  17.741  0.00  0.00    +0.000 A 
ATOM     14  C   UNL     1      51.087   1.719  17.288  0.00  0.00    +0.000 A 
ATOM     15  C   UNL     1      52.191   0.863  17.500  0.00  0.00    +0.000 A 
ATOM     16  C   UNL     1      53.169   1.642  18.074  0.00  0.00    +0.000 A 
ATOM     17  O   UNL     1      52.742   2.924  18.219  0.00  0.00    +0.000 OA
ENDBRANCH  10  13
ENDBRANCH   8  11
ENDBRANCH   1   8
BRANCH   4  18
ATOM     18  C   UNL     1      48.331   7.945  12.084  0.00  0.00    +0.000 C 
BRANCH  18  19
ATOM     19  N   UNL     1      47.600   6.833  11.529  0.00  0.00    +0.000 N 
ATOM     20  C   UNL     1      46.233   6.863  11.432  0.00  0.00    +0.000 C 
ATOM     21  O   UNL     1      45.577   7.836  11.795  0.00  0.00    +0.000 OA
ATOM     22  H   UNL     1      48.096   5.957  11.401  0.00  0.00    +0.000 HD
BRANCH  20  23
ATOM     23  C   UNL     1      45.592   5.695  10.818  0.00  0.00    +0.000 A 
ATOM     24  C   UNL     1      45.696   5.497   9.447  0.00  0.00    +0.000 A 
ATOM     25  S   UNL     1      44.928   4.076   8.900  0.00  0.00    +0.000 S 
ATOM     26  C   UNL     1      44.390   3.698  10.468  0.00  0.00    +0.000 A 
ATOM     27  N   UNL     1      43.636   2.590  10.699  0.00  0.00    +0.000 NA
ATOM     28  C   UNL     1      43.271   2.440  11.928  0.00  0.00    +0.000 A 
ATOM     29  N   UNL     1      43.595   3.296  12.949  0.00  0.00    +0.000 N 
ATOM     30  C   UNL     1      44.380   4.410  12.769  0.00  0.00    +0.000 A 
ATOM     31  O   UNL     1      44.694   5.127  13.715  0.00  0.00    +0.000 OA
ATOM     32  C   UNL     1      44.806   4.633  11.401  0.00  0.00    +0.000 A 
ATOM     33  H   UNL     1      43.285   3.115  13.892  0.00  0.00    +0.000 HD
ENDBRANCH  20  23
ENDBRANCH  18  19
ENDBRANCH   4  18
TORSDOF 6
ENDMDL
MODEL 7
REMARK VINA RESULT:    -6.724      3.934      8.228
REMARK INTER + INTRA:         -10.290
REMARK INTER:                  -9.249
REMARK INTRA:                  -1.041
REMARK UNBOUND:                -1.208
REMARK  Name = 
REMARK  6 active torsions:
REMARK  status: ('A' for Active; 'I' for Inactive)
REMARK    1  A    between atoms: C_2  and  C_26
REMARK    2  A    between atoms: N_3  and  C_4
REMARK    3  A    between atoms: C_4  and  C_5
REMARK    4  A    between atoms: C_8  and  C_9
REMARK    5  A    between atoms: C_9  and  N_10
REMARK    6  A    between atoms: C_11  and  C_13
REMARK                            x       y       z     vdW  Elec       q    Type
REMARK                         _______ _______ _______ _____ _____    ______ ____
ROOT
ATOM      1  C   UNL     1      49.580   4.605  17.564  0.00  0.00    +0.000 A 
ATOM      2  C   UNL     1      48.326   4.507  16.945  0.00  0.00    +0.000 A 
ATOM      3  C   UNL     1      47.919   5.456  16.001  0.00  0.00    +0.000 A 
ATOM      4  C   UNL     1      48.755   6.528  15.662  0.00  0.00    +0.000 A 
ATOM      5  C   UNL     1      50.010   6.607  16.266  0.00  0.00    +0.000 A 
ATOM      6  F   UNL     1      50.843   7.611  15.955  0.00  0.00    +0.000 F 
ATOM      7  C   UNL     1      50.427   5.662  17.204  0.00  0.00    +0.000 A 
ENDROOT
BRANCH   1   8
ATOM      8  C   UNL     1      50.004   3.602  18.600  0.00  0.00    +0.000 C 
BRANCH   8  11
ATOM      9  O   UNL     1      50.668   1.418  17.080  0.00  0.00    +0.000 OA
ATOM     10  C   UNL     1      51.587   2.024  17.625  0.00  0.00    +0.000 C 
ATOM     11  N   UNL     1      51.353   3.135  18.408  0.00  0.00    +0.000 N 
ATOM     12  H   UNL     1      52.143   3.630  18.804  0.00  0.00    +0.000 HD
BRANCH  10  13
ATOM     13  C   UNL     1      52.974   1.636  17.485  0.00  0.00    +0.000 A 
ATOM     14  C   UNL     1      54.128   2.376  17.675  0.00  0.00    +0.000 A 
ATOM     15  C   UNL     1      55.216   1.522  17.385  0.00  0.00    +0.000 A 
ATOM     16  C   UNL     1      54.664   0.312  17.032  0.00  0.00    +0.000 A 
ATOM     17  O   UNL     1      53.307   0.364  17.096  0.00  0.00    +0.000 OA
ENDBRANCH  10  13
ENDBRANCH   8  11
ENDBRANCH   1   8
BRANCH   4  18
ATOM     18  C   UNL     1      48.326   7.542  14.639  0.00  0.00    +0.000 C 
BRANCH  18  19
ATOM     19  N   UNL     1      47.086   7.161  14.007  0.00  0.00    +0.000 N 
ATOM     20  C   UNL     1      47.076   6.561  12.775  0.00  0.00    +0.000 C 
ATOM     21  O   UNL     1      48.113   6.307  12.166  0.00  0.00    +0.000 OA
ATOM     22  H   UNL     1      46.224   7.526  14.397  0.00  0.00    +0.000 HD
BRANCH  20  23
ATOM     23  C   UNL     1      45.764   6.181  12.239  0.00  0.00    +0.000 A 
ATOM     24  C   UNL     1      44.950   7.150  11.668  0.00  0.00    +0.000 A 
ATOM     25  S   UNL     1      43.478   6.537  11.062  0.00  0.00    +0.000 S 
ATOM     26  C   UNL     1      43.857   4.963  11.582  0.00  0.00    +0.000 A 
ATOM     27  N   UNL     1      42.986   3.936  11.388  0.00  0.00    +0.000 NA
ATOM     28  C   UNL     1      43.386   2.802  11.858  0.00  0.00    +0.000 A 
ATOM     29  N   UNL     1      44.581   2.600  12.501  0.00  0.00    +0.000 N 
ATOM     30  C   UNL     1      45.505   3.600  12.690  0.00  0.00    +0.000 A 
ATOM     31  O   UNL     1      46.587   3.375  13.224  0.00  0.00    +0.000 OA
ATOM     32  C   UNL     1      45.097   4.900  12.193  0.00  0.00    +0.000 A 
ATOM     33  H   UNL     1      44.838   1.684  12.835  0.00  0.00    +0.000 HD
ENDBRANCH  20  23
ENDBRANCH  18  19
ENDBRANCH   4  18
TORSDOF 6
ENDMDL
MODEL 8
REMARK VINA RESULT:    -6.596      4.787      7.213
REMARK INTER + INTRA:         -10.117
REMARK INTER:                  -9.156
REMARK INTRA:                  -0.962
REMARK UNBOUND:                -1.208
REMARK  Name = 
REMARK  6 active torsions:
REMARK  status: ('A' for Active; 'I' for Inactive)
REMARK    1  A    between atoms: C_2  and  C_26
REMARK    2  A    between atoms: N_3  and  C_4
REMARK    3  A    between atoms: C_4  and  C_5
REMARK    4  A    between atoms: C_8  and  C_9
REMARK    5  A    between atoms: C_9  and  N_10
REMARK    6  A    between atoms: C_11  and  C_13
REMARK                            x       y       z     vdW  Elec       q    Type
REMARK                         _______ _______ _______ _____ _____    ______ ____
ROOT
ATOM      1  C   UNL     1      50.691   8.671  11.168  0.00  0.00    +0.000 A 
ATOM      2  C   UNL     1      50.143   7.411  11.448  0.00  0.00    +0.000 A 
ATOM      3  C   UNL     1      48.850   7.295  11.969  0.00  0.00    +0.000 A 
ATOM      4  C   UNL     1      48.080   8.438  12.228  0.00  0.00    +0.000 A 
ATOM      5  C   UNL     1      48.626   9.687  11.927  0.00  0.00    +0.000 A 
ATOM      6  F   UNL     1      47.913  10.800  12.148  0.00  0.00    +0.000 F 
ATOM      7  C   UNL     1      49.912   9.812  11.402  0.00  0.00    +0.000 A 
ENDROOT
BRANCH   1   8
ATOM      8  C   UNL     1      52.093   8.795  10.638  0.00  0.00    +0.000 C 
BRANCH   8  11
ATOM      9  O   UNL     1      52.766   8.638   7.984  0.00  0.00    +0.000 OA
ATOM     10  C   UNL     1      52.869   7.612   8.652  0.00  0.00    +0.000 C 
ATOM     11  N   UNL     1      52.556   7.592   9.995  0.00  0.00    +0.000 N 
ATOM     12  H   UNL     1      52.695   6.736  10.517  0.00  0.00    +0.000 HD
BRANCH  10  13
ATOM     13  C   UNL     1      53.331   6.358   8.096  0.00  0.00    +0.000 A 
ATOM     14  C   UNL     1      54.360   5.530   8.507  0.00  0.00    +0.000 A 
ATOM     15  C   UNL     1      54.400   4.445   7.603  0.00  0.00    +0.000 A 
ATOM     16  C   UNL     1      53.396   4.675   6.691  0.00  0.00    +0.000 A 
ATOM     17  O   UNL     1      52.735   5.827   6.982  0.00  0.00    +0.000 OA
ENDBRANCH  10  13
ENDBRANCH   8  11
ENDBRANCH   1   8
BRANCH   4  18
ATOM     18  C   UNL     1      46.686   8.316  12.775  0.00  0.00    +0.000 C 
BRANCH  18  19
ATOM     19  N   UNL     1      46.150   6.994  12.562  0.00  0.00    +0.000 N 
ATOM     20  C   UNL     1      45.041   6.798  11.781  0.00  0.00    +0.000 C 
ATOM     21  O   UNL     1      44.469   7.728  11.218  0.00  0.00    +0.000 OA
ATOM     22  H   UNL     1      46.485   6.245  13.160  0.00  0.00    +0.000 HD
BRANCH  20  23
ATOM     23  C   UNL     1      44.601   5.409  11.601  0.00  0.00    +0.000 A 
ATOM     24  C   UNL     1      43.891   4.778  12.614  0.00  0.00    +0.000 A 
ATOM     25  S   UNL     1      43.424   3.184  12.231  0.00  0.00    +0.000 S 
ATOM     26  C   UNL     1      44.192   3.264  10.716  0.00  0.00    +0.000 A 
ATOM     27  N   UNL     1      44.189   2.196   9.875  0.00  0.00    +0.000 NA
ATOM     28  C   UNL     1      44.834   2.383   8.772  0.00  0.00    +0.000 A 
ATOM     29  N   UNL     1      45.479   3.545   8.432  0.00  0.00    +0.000 N 
ATOM     30  C   UNL     1      45.482   4.660   9.236  0.00  0.00    +0.000 A 
ATOM     31  O   UNL     1      46.026   5.701   8.880  0.00  0.00    +0.000 OA
ATOM     32  C   UNL     1      44.782   4.497  10.496  0.00  0.00    +0.000 A 
ATOM     33  H   UNL     1      45.957   3.629   7.549  0.00  0.00    +0.000 HD
ENDBRANCH  20  23
ENDBRANCH  18  19
ENDBRANCH   4  18
TORSDOF 6
ENDMDL
MODEL 9
REMARK VINA RESULT:    -6.498      3.507      5.028
REMARK INTER + INTRA:          -9.985
REMARK INTER:                  -8.973
REMARK INTRA:                  -1.012
REMARK UNBOUND:                -1.208
REMARK  Name = 
REMARK  6 active torsions:
REMARK  status: ('A' for Active; 'I' for Inactive)
REMARK    1  A    between atoms: C_2  and  C_26
REMARK    2  A    between atoms: N_3  and  C_4
REMARK    3  A    between atoms: C_4  and  C_5
REMARK    4  A    between atoms: C_8  and  C_9
REMARK    5  A    between atoms: C_9  and  N_10
REMARK    6  A    between atoms: C_11  and  C_13
REMARK                            x       y       z     vdW  Elec       q    Type
REMARK                         _______ _______ _______ _____ _____    ______ ____
ROOT
ATOM      1  C   UNL     1      45.435   5.328  11.661  0.00  0.00    +0.000 A 
ATOM      2  C   UNL     1      45.909   4.507  12.694  0.00  0.00    +0.000 A 
ATOM      3  C   UNL     1      46.832   4.994  13.626  0.00  0.00    +0.000 A 
ATOM      4  C   UNL     1      47.306   6.310  13.540  0.00  0.00    +0.000 A 
ATOM      5  C   UNL     1      46.813   7.126  12.521  0.00  0.00    +0.000 A 
ATOM      6  F   UNL     1      47.234   8.395  12.417  0.00  0.00    +0.000 F 
ATOM      7  C   UNL     1      45.889   6.652  11.591  0.00  0.00    +0.000 A 
ENDROOT
BRANCH   1   8
ATOM      8  C   UNL     1      44.467   4.794  10.642  0.00  0.00    +0.000 C 
BRANCH   8  11
ATOM      9  O   UNL     1      45.910   5.201   8.346  0.00  0.00    +0.000 OA
ATOM     10  C   UNL     1      45.735   4.038   8.701  0.00  0.00    +0.000 C 
ATOM     11  N   UNL     1      45.025   3.733   9.843  0.00  0.00    +0.000 N 
ATOM     12  H   UNL     1      44.940   2.763  10.123  0.00  0.00    +0.000 HD
BRANCH  10  13
ATOM     13  C   UNL     1      46.262   2.907   7.969  0.00  0.00    +0.000 A 
ATOM     14  C   UNL     1      46.905   2.862   6.744  0.00  0.00    +0.000 A 
ATOM     15  C   UNL     1      47.193   1.504   6.481  0.00  0.00    +0.000 A 
ATOM     16  C   UNL     1      46.706   0.798   7.557  0.00  0.00    +0.000 A 
ATOM     17  O   UNL     1      46.147   1.636   8.470  0.00  0.00    +0.000 OA
ENDBRANCH  10  13
ENDBRANCH   8  11
ENDBRANCH   1   8
BRANCH   4  18
ATOM     18  C   UNL     1      48.288   6.839  14.546  0.00  0.00    +0.000 C 
BRANCH  18  19
ATOM     19  N   UNL     1      49.563   7.128  13.938  0.00  0.00    +0.000 N 
ATOM     20  C   UNL     1      50.177   8.339  14.124  0.00  0.00    +0.000 C 
ATOM     21  O   UNL     1      49.681   9.219  14.823  0.00  0.00    +0.000 OA
ATOM     22  H   UNL     1      49.896   6.499  13.214  0.00  0.00    +0.000 HD
BRANCH  20  23
ATOM     23  C   UNL     1      51.489   8.515  13.491  0.00  0.00    +0.000 A 
ATOM     24  C   UNL     1      52.634   8.108  14.162  0.00  0.00    +0.000 A 
ATOM     25  S   UNL     1      54.070   8.348  13.274  0.00  0.00    +0.000 S 
ATOM     26  C   UNL     1      53.217   9.046  11.979  0.00  0.00    +0.000 A 
ATOM     27  N   UNL     1      53.871   9.501  10.877  0.00  0.00    +0.000 NA
ATOM     28  C   UNL     1      53.106  10.034   9.984  0.00  0.00    +0.000 A 
ATOM     29  N   UNL     1      51.744  10.149  10.091  0.00  0.00    +0.000 N 
ATOM     30  C   UNL     1      51.037   9.674  11.171  0.00  0.00    +0.000 A 
ATOM     31  O   UNL     1      49.812   9.747  11.212  0.00  0.00    +0.000 OA
ATOM     32  C   UNL     1      51.853   9.079  12.212  0.00  0.00    +0.000 A 
ATOM     33  H   UNL     1      51.202  10.567   9.351  0.00  0.00    +0.000 HD
ENDBRANCH  20  23
ENDBRANCH  18  19
ENDBRANCH   4  18
TORSDOF 6
ENDMDL
