MODEL 1
REMARK VINA RESULT:    -8.315      0.000      0.000
REMARK INTER + INTRA:         -12.188
REMARK INTER:                 -11.231
REMARK INTRA:                  -0.957
REMARK UNBOUND:                -0.957
REMARK  Name = 
REMARK  7 active torsions:
REMARK  status: ('A' for Active; 'I' for Inactive)
REMARK    1  A    between atoms: C_1  and  C_2
REMARK    2  A    between atoms: C_6  and  S_7
REMARK    3  A    between atoms: S_7  and  C_8
REMARK    4  A    between atoms: C_8  and  C_9
REMARK    5  A    between atoms: C_12  and  C_13
REMARK    6  A    between atoms: C_13  and  N_14
REMARK    7  A    between atoms: C_15  and  C_17
REMARK                            x       y       z     vdW  Elec       q    Type
REMARK                         _______ _______ _______ _____ _____    ______ ____
ROOT
ATOM      1  C   UNL     1      47.616   8.108  13.632  0.00  0.00    +0.000 C 
ENDROOT
BRANCH   1   5
ATOM      2  C   UNL     1      44.748   5.807  11.330  0.00  0.00    +0.000 A 
ATOM      3  C   UNL     1      44.652   7.207  11.418  0.00  0.00    +0.000 A 
ATOM      4  C   UNL     1      45.580   7.947  12.152  0.00  0.00    +0.000 A 
ATOM      5  C   UNL     1      46.616   7.309  12.841  0.00  0.00    +0.000 A 
ATOM      6  C   UNL     1      46.676   5.910  12.819  0.00  0.00    +0.000 A 
ATOM      7  C   UNL     1      45.755   5.170  12.069  0.00  0.00    +0.000 A 
BRANCH   2   8
ATOM      8  C   UNL     1      43.755   4.974  10.543  0.00  0.00    +0.000 C 
BRANCH   8   9
ATOM      9  S   UNL     1      44.053   3.170  10.632  0.00  0.00    +0.000 S 
BRANCH   9  15
ATOM     10  C   UNL     1      46.825   0.123   7.631  0.00  0.00    +0.000 C 
ATOM     11  C   UNL     1      46.360   1.524   7.879  0.00  0.00    +0.000 A 
ATOM     12  C   UNL     1      46.755   2.575   7.060  0.00  0.00    +0.000 A 
ATOM     13  C   UNL     1      46.286   3.853   7.345  0.00  0.00    +0.000 A 
ATOM     14  C   UNL     1      45.445   4.042   8.438  0.00  0.00    +0.000 A 
ATOM     15  C   UNL     1      45.102   2.942   9.213  0.00  0.00    +0.000 A 
ATOM     16  N   UNL     1      45.544   1.696   8.945  0.00  0.00    +0.000 NA
ENDBRANCH   9  15
ENDBRANCH   8   9
ENDBRANCH   2   8
ENDBRANCH   1   5
BRANCH   1  17
ATOM     17  N   UNL     1      47.898   7.480  14.897  0.00  0.00    +0.000 N 
ATOM     18  C   UNL     1      49.150   7.006  15.192  0.00  0.00    +0.000 C 
ATOM     19  O   UNL     1      50.093   7.131  14.416  0.00  0.00    +0.000 OA
ATOM     20  H   UNL     1      47.102   7.173  15.446  0.00  0.00    +0.000 HD
BRANCH  18  21
ATOM     21  C   UNL     1      49.323   6.392  16.514  0.00  0.00    +0.000 A 
ATOM     22  C   UNL     1      50.111   7.025  17.466  0.00  0.00    +0.000 A 
ATOM     23  S   UNL     1      50.167   6.208  18.962  0.00  0.00    +0.000 S 
ATOM     24  C   UNL     1      49.180   4.951  18.372  0.00  0.00    +0.000 A 
ATOM     25  N   UNL     1      48.854   3.891  19.160  0.00  0.00    +0.000 NA
ATOM     26  C   UNL     1      48.124   3.000  18.578  0.00  0.00    +0.000 A 
ATOM     27  N   UNL     1      47.685   3.076  17.282  0.00  0.00    +0.000 N 
ATOM     28  C   UNL     1      47.967   4.138  16.456  0.00  0.00    +0.000 A 
ATOM     29  O   UNL     1      47.528   4.190  15.316  0.00  0.00    +0.000 OA
ATOM     30  C   UNL     1      48.796   5.164  17.059  0.00  0.00    +0.000 A 
ATOM     31  H   UNL     1      47.107   2.346  16.887  0.00  0.00    +0.000 HD
ENDBRANCH  18  21
ENDBRANCH   1  17
TORSDOF 6
ENDMDL
MODEL 2
REMARK VINA RESULT:    -8.103      2.090      2.704
REMARK INTER + INTRA:         -11.902
REMARK INTER:                 -10.848
REMARK INTRA:                  -1.054
REMARK UNBOUND:                -0.957
REMARK  Name = 
REMARK  7 active torsions:
REMARK  status: ('A' for Active; 'I' for Inactive)
REMARK    1  A    between atoms: C_1  and  C_2
REMARK    2  A    between atoms: C_6  and  S_7
REMARK    3  A    between atoms: S_7  and  C_8
REMARK    4  A    between atoms: C_8  and  C_9
REMARK    5  A    between atoms: C_12  and  C_13
REMARK    6  A    between atoms: C_13  and  N_14
REMARK    7  A    between atoms: C_15  and  C_17
REMARK                            x       y       z     vdW  Elec       q    Type
REMARK                         _______ _______ _______ _____ _____    ______ ____
ROOT
ATOM      1  C   UNL     1      48.623   6.681  14.120  0.00  0.00    +0.000 C 
ENDROOT
BRANCH   1   5
ATOM      2  C   UNL     1      45.258   5.426  11.684  0.00  0.00    +0.000 A 
ATOM      3  C   UNL     1      46.098   6.478  11.277  0.00  0.00    +0.000 A 
ATOM      4  C   UNL     1      47.184   6.875  12.056  0.00  0.00    +0.000 A 
ATOM      5  C   UNL     1      47.450   6.251  13.279  0.00  0.00    +0.000 A 
ATOM      6  C   UNL     1      46.577   5.253  13.728  0.00  0.00    +0.000 A 
ATOM      7  C   UNL     1      45.498   4.843  12.937  0.00  0.00    +0.000 A 
BRANCH   2   8
ATOM      8  C   UNL     1      44.069   4.971  10.861  0.00  0.00    +0.000 C 
BRANCH   8   9
ATOM      9  S   UNL     1      43.980   3.160  10.608  0.00  0.00    +0.000 S 
BRANCH   9  15
ATOM     10  C   UNL     1      46.837   0.212   7.588  0.00  0.00    +0.000 C 
ATOM     11  C   UNL     1      46.348   1.601   7.855  0.00  0.00    +0.000 A 
ATOM     12  C   UNL     1      46.738   2.673   7.062  0.00  0.00    +0.000 A 
ATOM     13  C   UNL     1      46.246   3.938   7.364  0.00  0.00    +0.000 A 
ATOM     14  C   UNL     1      45.388   4.094   8.449  0.00  0.00    +0.000 A 
ATOM     15  C   UNL     1      45.051   2.975   9.199  0.00  0.00    +0.000 A 
ATOM     16  N   UNL     1      45.516   1.741   8.913  0.00  0.00    +0.000 NA
ENDBRANCH   9  15
ENDBRANCH   8   9
ENDBRANCH   2   8
ENDBRANCH   1   5
BRANCH   1  17
ATOM     17  N   UNL     1      48.297   6.643  15.522  0.00  0.00    +0.000 N 
ATOM     18  C   UNL     1      49.237   6.308  16.461  0.00  0.00    +0.000 C 
ATOM     19  O   UNL     1      50.403   6.067  16.158  0.00  0.00    +0.000 OA
ATOM     20  H   UNL     1      47.312   6.619  15.765  0.00  0.00    +0.000 HD
BRANCH  18  21
ATOM     21  C   UNL     1      48.794   6.309  17.861  0.00  0.00    +0.000 A 
ATOM     22  C   UNL     1      48.882   5.143  18.609  0.00  0.00    +0.000 A 
ATOM     23  S   UNL     1      48.375   5.327  20.226  0.00  0.00    +0.000 S 
ATOM     24  C   UNL     1      47.971   6.961  19.969  0.00  0.00    +0.000 A 
ATOM     25  N   UNL     1      47.444   7.716  20.970  0.00  0.00    +0.000 NA
ATOM     26  C   UNL     1      47.159   8.928  20.630  0.00  0.00    +0.000 A 
ATOM     27  N   UNL     1      47.360   9.455  19.380  0.00  0.00    +0.000 N 
ATOM     28  C   UNL     1      47.912   8.740  18.345  0.00  0.00    +0.000 A 
ATOM     29  O   UNL     1      48.110   9.254  17.253  0.00  0.00    +0.000 OA
ATOM     30  C   UNL     1      48.240   7.366  18.672  0.00  0.00    +0.000 A 
ATOM     31  H   UNL     1      47.123  10.418  19.180  0.00  0.00    +0.000 HD
ENDBRANCH  18  21
ENDBRANCH   1  17
TORSDOF 6
ENDMDL
MODEL 3
REMARK VINA RESULT:    -7.507      4.303      9.186
REMARK INTER + INTRA:         -11.097
REMARK INTER:                 -10.229
REMARK INTRA:                  -0.867
REMARK UNBOUND:                -0.957
REMARK  Name = 
REMARK  7 active torsions:
REMARK  status: ('A' for Active; 'I' for Inactive)
REMARK    1  A    between atoms: C_1  and  C_2
REMARK    2  A    between atoms: C_6  and  S_7
REMARK    3  A    between atoms: S_7  and  C_8
REMARK    4  A    between atoms: C_8  and  C_9
REMARK    5  A    between atoms: C_12  and  C_13
REMARK    6  A    between atoms: C_13  and  N_14
REMARK    7  A    between atoms: C_15  and  C_17
REMARK                            x       y       z     vdW  Elec       q    Type
REMARK                         _______ _______ _______ _____ _____    ______ ____
ROOT
ATOM      1  C   UNL     1      47.181   3.422  16.796  0.00  0.00    +0.000 C 
ENDROOT
BRANCH   1   5
ATOM      2  C   UNL     1      51.425   3.852  17.594  0.00  0.00    +0.000 A 
ATOM      3  C   UNL     1      50.845   2.584  17.407  0.00  0.00    +0.000 A 
ATOM      4  C   UNL     1      49.482   2.447  17.142  0.00  0.00    +0.000 A 
ATOM      5  C   UNL     1      48.652   3.571  17.081  0.00  0.00    +0.000 A 
ATOM      6  C   UNL     1      49.206   4.831  17.339  0.00  0.00    +0.000 A 
ATOM      7  C   UNL     1      50.576   4.968  17.587  0.00  0.00    +0.000 A 
BRANCH   2   8
ATOM      8  C   UNL     1      52.902   4.034  17.885  0.00  0.00    +0.000 C 
BRANCH   8   9
ATOM      9  S   UNL     1      53.528   2.995  19.256  0.00  0.00    +0.000 S 
BRANCH   9  15
ATOM     10  C   UNL     1      54.125  -2.056  18.931  0.00  0.00    +0.000 C 
ATOM     11  C   UNL     1      54.338  -0.740  18.251  0.00  0.00    +0.000 A 
ATOM     12  C   UNL     1      54.952  -0.657  17.007  0.00  0.00    +0.000 A 
ATOM     13  C   UNL     1      55.118   0.597  16.430  0.00  0.00    +0.000 A 
ATOM     14  C   UNL     1      54.672   1.726  17.112  0.00  0.00    +0.000 A 
ATOM     15  C   UNL     1      54.076   1.561  18.355  0.00  0.00    +0.000 A 
ATOM     16  N   UNL     1      53.902   0.350  18.924  0.00  0.00    +0.000 NA
ENDBRANCH   9  15
ENDBRANCH   8   9
ENDBRANCH   2   8
ENDBRANCH   1   5
BRANCH   1  17
ATOM     17  N   UNL     1      46.738   4.400  15.837  0.00  0.00    +0.000 N 
ATOM     18  C   UNL     1      46.827   4.165  14.489  0.00  0.00    +0.000 C 
ATOM     19  O   UNL     1      47.247   3.101  14.040  0.00  0.00    +0.000 OA
ATOM     20  H   UNL     1      46.601   5.347  16.174  0.00  0.00    +0.000 HD
BRANCH  18  21
ATOM     21  C   UNL     1      46.336   5.229  13.605  0.00  0.00    +0.000 A 
ATOM     22  C   UNL     1      47.138   6.334  13.352  0.00  0.00    +0.000 A 
ATOM     23  S   UNL     1      46.443   7.451  12.268  0.00  0.00    +0.000 S 
ATOM     24  C   UNL     1      45.022   6.522  12.139  0.00  0.00    +0.000 A 
ATOM     25  N   UNL     1      43.983   6.937  11.365  0.00  0.00    +0.000 NA
ATOM     26  C   UNL     1      42.960   6.151  11.380  0.00  0.00    +0.000 A 
ATOM     27  N   UNL     1      42.883   4.984  12.094  0.00  0.00    +0.000 N 
ATOM     28  C   UNL     1      43.915   4.510  12.869  0.00  0.00    +0.000 A 
ATOM     29  O   UNL     1      43.825   3.446  13.465  0.00  0.00    +0.000 OA
ATOM     30  C   UNL     1      45.087   5.364  12.896  0.00  0.00    +0.000 A 
ATOM     31  H   UNL     1      42.054   4.407  12.056  0.00  0.00    +0.000 HD
ENDBRANCH  18  21
ENDBRANCH   1  17
TORSDOF 6
ENDMDL
MODEL 4
REMARK VINA RESULT:    -7.392      2.236      8.161
REMARK INTER + INTRA:         -10.942
REMARK INTER:                  -9.582
REMARK INTRA:                  -1.359
REMARK UNBOUND:                -0.957
REMARK  Name = 
REMARK  7 active torsions:
REMARK  status: ('A' for Active; 'I' for Inactive)
REMARK    1  A    between atoms: C_1  and  C_2
REMARK    2  A    between atoms: C_6  and  S_7
REMARK    3  A    between atoms: S_7  and  C_8
REMARK    4  A    between atoms: C_8  and  C_9
REMARK    5  A    between atoms: C_12  and  C_13
REMARK    6  A    between atoms: C_13  and  N_14
REMARK    7  A    between atoms: C_15  and  C_17
REMARK                            x       y       z     vdW  Elec       q    Type
REMARK                         _______ _______ _______ _____ _____    ______ ____
ROOT
ATOM      1  C   UNL     1      47.405   7.847  12.040  0.00  0.00    +0.000 C 
ENDROOT
BRANCH   1   5
ATOM      2  C   UNL     1      49.134   7.884  16.019  0.00  0.00    +0.000 A 
ATOM      3  C   UNL     1      48.203   8.860  15.623  0.00  0.00    +0.000 A 
ATOM      4  C   UNL     1      47.641   8.842  14.346  0.00  0.00    +0.000 A 
ATOM      5  C   UNL     1      48.011   7.865  13.417  0.00  0.00    +0.000 A 
ATOM      6  C   UNL     1      48.992   6.933  13.778  0.00  0.00    +0.000 A 
ATOM      7  C   UNL     1      49.542   6.941  15.064  0.00  0.00    +0.000 A 
BRANCH   2   8
ATOM      8  C   UNL     1      49.765   7.877  17.398  0.00  0.00    +0.000 C 
BRANCH   8   9
ATOM      9  S   UNL     1      48.706   7.150  18.702  0.00  0.00    +0.000 S 
BRANCH   9  15
ATOM     10  C   UNL     1      50.876   2.711  17.451  0.00  0.00    +0.000 C 
ATOM     11  C   UNL     1      49.594   3.477  17.546  0.00  0.00    +0.000 A 
ATOM     12  C   UNL     1      48.382   2.912  17.167  0.00  0.00    +0.000 A 
ATOM     13  C   UNL     1      47.227   3.678  17.281  0.00  0.00    +0.000 A 
ATOM     14  C   UNL     1      47.317   4.980  17.763  0.00  0.00    +0.000 A 
ATOM     15  C   UNL     1      48.566   5.476  18.114  0.00  0.00    +0.000 A 
ATOM     16  N   UNL     1      49.694   4.742  18.014  0.00  0.00    +0.000 NA
ENDBRANCH   9  15
ENDBRANCH   8   9
ENDBRANCH   2   8
ENDBRANCH   1   5
BRANCH   1  17
ATOM     17  N   UNL     1      46.755   6.590  11.776  0.00  0.00    +0.000 N 
ATOM     18  C   UNL     1      45.388   6.490  11.737  0.00  0.00    +0.000 C 
ATOM     19  O   UNL     1      44.660   7.468  11.883  0.00  0.00    +0.000 OA
ATOM     20  H   UNL     1      47.318   5.751  11.874  0.00  0.00    +0.000 HD
BRANCH  18  21
ATOM     21  C   UNL     1      44.837   5.160  11.451  0.00  0.00    +0.000 A 
ATOM     22  C   UNL     1      44.099   4.499  12.424  0.00  0.00    +0.000 A 
ATOM     23  S   UNL     1      43.489   2.991  11.915  0.00  0.00    +0.000 S 
ATOM     24  C   UNL     1      44.234   3.144  10.392  0.00  0.00    +0.000 A 
ATOM     25  N   UNL     1      44.125   2.159   9.460  0.00  0.00    +0.000 NA
ATOM     26  C   UNL     1      44.761   2.394   8.361  0.00  0.00    +0.000 A 
ATOM     27  N   UNL     1      45.490   3.527   8.108  0.00  0.00    +0.000 N 
ATOM     28  C   UNL     1      45.608   4.559   9.008  0.00  0.00    +0.000 A 
ATOM     29  O   UNL     1      46.237   5.571   8.734  0.00  0.00    +0.000 OA
ATOM     30  C   UNL     1      44.920   4.340  10.266  0.00  0.00    +0.000 A 
ATOM     31  H   UNL     1      45.958   3.653   7.221  0.00  0.00    +0.000 HD
ENDBRANCH  18  21
ENDBRANCH   1  17
TORSDOF 6
ENDMDL
MODEL 5
REMARK VINA RESULT:    -7.091      2.463      7.745
REMARK INTER + INTRA:         -10.535
REMARK INTER:                  -9.366
REMARK INTRA:                  -1.169
REMARK UNBOUND:                -0.957
REMARK  Name = 
REMARK  7 active torsions:
REMARK  status: ('A' for Active; 'I' for Inactive)
REMARK    1  A    between atoms: C_1  and  C_2
REMARK    2  A    between atoms: C_6  and  S_7
REMARK    3  A    between atoms: S_7  and  C_8
REMARK    4  A    between atoms: C_8  and  C_9
REMARK    5  A    between atoms: C_12  and  C_13
REMARK    6  A    between atoms: C_13  and  N_14
REMARK    7  A    between atoms: C_15  and  C_17
REMARK                            x       y       z     vdW  Elec       q    Type
REMARK                         _______ _______ _______ _____ _____    ______ ____
ROOT
ATOM      1  C   UNL     1      48.251   8.227  11.991  0.00  0.00    +0.000 C 
ENDROOT
BRANCH   1   5
ATOM      2  C   UNL     1      48.877   7.748  16.257  0.00  0.00    +0.000 A 
ATOM      3  C   UNL     1      48.268   8.904  15.738  0.00  0.00    +0.000 A 
ATOM      4  C   UNL     1      48.059   9.053  14.367  0.00  0.00    +0.000 A 
ATOM      5  C   UNL     1      48.476   8.064  13.470  0.00  0.00    +0.000 A 
ATOM      6  C   UNL     1      49.149   6.944  13.972  0.00  0.00    +0.000 A 
ATOM      7  C   UNL     1      49.342   6.787  15.348  0.00  0.00    +0.000 A 
BRANCH   2   8
ATOM      8  C   UNL     1      49.120   7.557  17.742  0.00  0.00    +0.000 C 
BRANCH   8   9
ATOM      9  S   UNL     1      47.890   6.483  18.570  0.00  0.00    +0.000 S 
BRANCH   9  15
ATOM     10  C   UNL     1      51.561   3.040  17.765  0.00  0.00    +0.000 C 
ATOM     11  C   UNL     1      50.104   3.350  17.622  0.00  0.00    +0.000 A 
ATOM     12  C   UNL     1      49.224   2.447  17.038  0.00  0.00    +0.000 A 
ATOM     13  C   UNL     1      47.882   2.796  16.937  0.00  0.00    +0.000 A 
ATOM     14  C   UNL     1      47.462   4.033  17.417  0.00  0.00    +0.000 A 
ATOM     15  C   UNL     1      48.403   4.884  17.980  0.00  0.00    +0.000 A 
ATOM     16  N   UNL     1      49.707   4.556  18.090  0.00  0.00    +0.000 NA
ENDBRANCH   9  15
ENDBRANCH   8   9
ENDBRANCH   2   8
ENDBRANCH   1   5
BRANCH   1  17
ATOM     17  N   UNL     1      47.568   7.084  11.442  0.00  0.00    +0.000 N 
ATOM     18  C   UNL     1      46.199   7.016  11.421  0.00  0.00    +0.000 C 
ATOM     19  O   UNL     1      45.495   7.936  11.828  0.00  0.00    +0.000 OA
ATOM     20  H   UNL     1      48.116   6.240  11.310  0.00  0.00    +0.000 HD
BRANCH  18  21
ATOM     21  C   UNL     1      45.613   5.807  10.830  0.00  0.00    +0.000 A 
ATOM     22  C   UNL     1      45.777   5.558   9.473  0.00  0.00    +0.000 A 
ATOM     23  S   UNL     1      45.079   4.091   8.957  0.00  0.00    +0.000 S 
ATOM     24  C   UNL     1      44.488   3.761  10.519  0.00  0.00    +0.000 A 
ATOM     25  N   UNL     1      43.759   2.639  10.768  0.00  0.00    +0.000 NA
ATOM     26  C   UNL     1      43.352   2.529  11.987  0.00  0.00    +0.000 A 
ATOM     27  N   UNL     1      43.612   3.435  12.982  0.00  0.00    +0.000 N 
ATOM     28  C   UNL     1      44.363   4.569  12.786  0.00  0.00    +0.000 A 
ATOM     29  O   UNL     1      44.606   5.337  13.706  0.00  0.00    +0.000 OA
ATOM     30  C   UNL     1      44.837   4.747  11.427  0.00  0.00    +0.000 A 
ATOM     31  H   UNL     1      43.270   3.284  13.922  0.00  0.00    +0.000 HD
ENDBRANCH  18  21
ENDBRANCH   1  17
TORSDOF 6
ENDMDL
MODEL 6
REMARK VINA RESULT:    -6.931      3.521      9.380
REMARK INTER + INTRA:         -10.319
REMARK INTER:                  -9.123
REMARK INTRA:                  -1.196
REMARK UNBOUND:                -0.957
REMARK  Name = 
REMARK  7 active torsions:
REMARK  status: ('A' for Active; 'I' for Inactive)
REMARK    1  A    between atoms: C_1  and  C_2
REMARK    2  A    between atoms: C_6  and  S_7
REMARK    3  A    between atoms: S_7  and  C_8
REMARK    4  A    between atoms: C_8  and  C_9
REMARK    5  A    between atoms: C_12  and  C_13
REMARK    6  A    between atoms: C_13  and  N_14
REMARK    7  A    between atoms: C_15  and  C_17
REMARK                            x       y       z     vdW  Elec       q    Type
REMARK                         _______ _______ _______ _____ _____    ______ ____
ROOT
ATOM      1  C   UNL     1      47.513   3.574  16.469  0.00  0.00    +0.000 C 
ENDROOT
BRANCH   1   5
ATOM      2  C   UNL     1      49.265   5.625  19.868  0.00  0.00    +0.000 A 
ATOM      3  C   UNL     1      50.041   4.793  19.043  0.00  0.00    +0.000 A 
ATOM      4  C   UNL     1      49.479   4.141  17.945  0.00  0.00    +0.000 A 
ATOM      5  C   UNL     1      48.119   4.279  17.653  0.00  0.00    +0.000 A 
ATOM      6  C   UNL     1      47.322   5.047  18.512  0.00  0.00    +0.000 A 
ATOM      7  C   UNL     1      47.890   5.715  19.602  0.00  0.00    +0.000 A 
BRANCH   2   8
ATOM      8  C   UNL     1      49.845   6.347  21.069  0.00  0.00    +0.000 C 
BRANCH   8   9
ATOM      9  S   UNL     1      50.782   7.863  20.652  0.00  0.00    +0.000 S 
BRANCH   9  15
ATOM     10  C   UNL     1      46.433  10.454  20.065  0.00  0.00    +0.000 C 
ATOM     11  C   UNL     1      47.620   9.860  19.374  0.00  0.00    +0.000 A 
ATOM     12  C   UNL     1      47.769   9.933  17.995  0.00  0.00    +0.000 A 
ATOM     13  C   UNL     1      48.897   9.360  17.416  0.00  0.00    +0.000 A 
ATOM     14  C   UNL     1      49.834   8.730  18.230  0.00  0.00    +0.000 A 
ATOM     15  C   UNL     1      49.610   8.692  19.600  0.00  0.00    +0.000 A 
ATOM     16  N   UNL     1      48.524   9.249  20.175  0.00  0.00    +0.000 NA
ENDBRANCH   9  15
ENDBRANCH   8   9
ENDBRANCH   2   8
ENDBRANCH   1   5
BRANCH   1  17
ATOM     17  N   UNL     1      46.886   4.511  15.573  0.00  0.00    +0.000 N 
ATOM     18  C   UNL     1      46.784   4.252  14.231  0.00  0.00    +0.000 C 
ATOM     19  O   UNL     1      47.181   3.199  13.739  0.00  0.00    +0.000 OA
ATOM     20  H   UNL     1      46.757   5.458  15.914  0.00  0.00    +0.000 HD
BRANCH  18  21
ATOM     21  C   UNL     1      46.117   5.275  13.416  0.00  0.00    +0.000 A 
ATOM     22  C   UNL     1      46.752   6.488  13.185  0.00  0.00    +0.000 A 
ATOM     23  S   UNL     1      45.867   7.543  12.179  0.00  0.00    +0.000 S 
ATOM     24  C   UNL     1      44.580   6.435  12.060  0.00  0.00    +0.000 A 
ATOM     25  N   UNL     1      43.463   6.736  11.344  0.00  0.00    +0.000 NA
ATOM     26  C   UNL     1      42.556   5.818  11.361  0.00  0.00    +0.000 A 
ATOM     27  N   UNL     1      42.668   4.623  12.023  0.00  0.00    +0.000 N 
ATOM     28  C   UNL     1      43.785   4.263  12.737  0.00  0.00    +0.000 A 
ATOM     29  O   UNL     1      43.865   3.173  13.286  0.00  0.00    +0.000 OA
ATOM     30  C   UNL     1      44.832   5.267  12.760  0.00  0.00    +0.000 A 
ATOM     31  H   UNL     1      41.922   3.941  11.988  0.00  0.00    +0.000 HD
ENDBRANCH  18  21
ENDBRANCH   1  17
TORSDOF 6
ENDMDL
MODEL 7
REMARK VINA RESULT:    -6.391      4.581      7.909
REMARK INTER + INTRA:          -9.589
REMARK INTER:                  -8.564
REMARK INTRA:                  -1.025
REMARK UNBOUND:                -0.957
REMARK  Name = 
REMARK  7 active torsions:
REMARK  status: ('A' for Active; 'I' for Inactive)
REMARK    1  A    between atoms: C_1  and  C_2
REMARK    2  A    between atoms: C_6  and  S_7
REMARK    3  A    between atoms: S_7  and  C_8
REMARK    4  A    between atoms: C_8  and  C_9
REMARK    5  A    between atoms: C_12  and  C_13
REMARK    6  A    between atoms: C_13  and  N_14
REMARK    7  A    between atoms: C_15  and  C_17
REMARK                            x       y       z     vdW  Elec       q    Type
REMARK                         _______ _______ _______ _____ _____    ______ ____
ROOT
ATOM      1  C   UNL     1      45.967   8.191  12.013  0.00  0.00    +0.000 C 
ENDROOT
BRANCH   1   5
ATOM      2  C   UNL     1      50.242   8.868  12.317  0.00  0.00    +0.000 A 
ATOM      3  C   UNL     1      49.341   9.943  12.223  0.00  0.00    +0.000 A 
ATOM      4  C   UNL     1      47.966   9.725  12.134  0.00  0.00    +0.000 A 
ATOM      5  C   UNL     1      47.451   8.425  12.110  0.00  0.00    +0.000 A 
ATOM      6  C   UNL     1      48.345   7.348  12.128  0.00  0.00    +0.000 A 
ATOM      7  C   UNL     1      49.722   7.568  12.235  0.00  0.00    +0.000 A 
BRANCH   2   8
ATOM      8  C   UNL     1      51.742   9.072  12.413  0.00  0.00    +0.000 C 
BRANCH   8   9
ATOM      9  S   UNL     1      52.524   9.626  10.853  0.00  0.00    +0.000 S 
BRANCH   9  15
ATOM     10  C   UNL     1      52.597   6.118   7.156  0.00  0.00    +0.000 C 
ATOM     11  C   UNL     1      53.108   6.497   8.511  0.00  0.00    +0.000 A 
ATOM     12  C   UNL     1      53.963   5.665   9.223  0.00  0.00    +0.000 A 
ATOM     13  C   UNL     1      54.401   6.077  10.477  0.00  0.00    +0.000 A 
ATOM     14  C   UNL     1      53.971   7.302  10.980  0.00  0.00    +0.000 A 
ATOM     15  C   UNL     1      53.110   8.073  10.211  0.00  0.00    +0.000 A 
ATOM     16  N   UNL     1      52.681   7.688   8.991  0.00  0.00    +0.000 NA
ENDBRANCH   9  15
ENDBRANCH   8   9
ENDBRANCH   2   8
ENDBRANCH   1   5
BRANCH   1  17
ATOM     17  N   UNL     1      45.678   6.808  11.737  0.00  0.00    +0.000 N 
ATOM     18  C   UNL     1      44.403   6.391  11.454  0.00  0.00    +0.000 C 
ATOM     19  O   UNL     1      43.462   7.176  11.382  0.00  0.00    +0.000 OA
ATOM     20  H   UNL     1      46.381   6.127  12.006  0.00  0.00    +0.000 HD
BRANCH  18  21
ATOM     21  C   UNL     1      44.228   4.959  11.181  0.00  0.00    +0.000 A 
ATOM     22  C   UNL     1      43.484   4.180  12.058  0.00  0.00    +0.000 A 
ATOM     23  S   UNL     1      43.336   2.553  11.570  0.00  0.00    +0.000 S 
ATOM     24  C   UNL     1      44.305   2.821  10.196  0.00  0.00    +0.000 A 
ATOM     25  N   UNL     1      44.600   1.805   9.340  0.00  0.00    +0.000 NA
ATOM     26  C   UNL     1      45.365   2.142   8.357  0.00  0.00    +0.000 A 
ATOM     27  N   UNL     1      45.857   3.405   8.148  0.00  0.00    +0.000 N 
ATOM     28  C   UNL     1      45.566   4.468   8.970  0.00  0.00    +0.000 A 
ATOM     29  O   UNL     1      45.994   5.589   8.733  0.00  0.00    +0.000 OA
ATOM     30  C   UNL     1      44.717   4.139  10.099  0.00  0.00    +0.000 A 
ATOM     31  H   UNL     1      46.446   3.605   7.351  0.00  0.00    +0.000 HD
ENDBRANCH  18  21
ENDBRANCH   1  17
TORSDOF 6
ENDMDL
MODEL 8
REMARK VINA RESULT:    -6.038      3.424      8.978
REMARK INTER + INTRA:          -9.112
REMARK INTER:                  -7.585
REMARK INTRA:                  -1.527
REMARK UNBOUND:                -0.957
REMARK  Name = 
REMARK  7 active torsions:
REMARK  status: ('A' for Active; 'I' for Inactive)
REMARK    1  A    between atoms: C_1  and  C_2
REMARK    2  A    between atoms: C_6  and  S_7
REMARK    3  A    between atoms: S_7  and  C_8
REMARK    4  A    between atoms: C_8  and  C_9
REMARK    5  A    between atoms: C_12  and  C_13
REMARK    6  A    between atoms: C_13  and  N_14
REMARK    7  A    between atoms: C_15  and  C_17
REMARK                            x       y       z     vdW  Elec       q    Type
REMARK                         _______ _______ _______ _____ _____    ______ ____
ROOT
ATOM      1  C   UNL     1      47.578   3.494  16.052  0.00  0.00    +0.000 C 
ENDROOT
BRANCH   1   5
ATOM      2  C   UNL     1      48.948   5.462  19.668  0.00  0.00    +0.000 A 
ATOM      3  C   UNL     1      49.794   4.605  18.943  0.00  0.00    +0.000 A 
ATOM      4  C   UNL     1      49.356   3.979  17.775  0.00  0.00    +0.000 A 
ATOM      5  C   UNL     1      48.051   4.170  17.311  0.00  0.00    +0.000 A 
ATOM      6  C   UNL     1      47.179   4.963  18.067  0.00  0.00    +0.000 A 
ATOM      7  C   UNL     1      47.624   5.604  19.228  0.00  0.00    +0.000 A 
BRANCH   2   8
ATOM      8  C   UNL     1      49.394   6.155  20.941  0.00  0.00    +0.000 C 
BRANCH   8   9
ATOM      9  S   UNL     1      49.185   7.974  20.916  0.00  0.00    +0.000 S 
BRANCH   9  15
ATOM     10  C   UNL     1      48.288   9.588  16.166  0.00  0.00    +0.000 C 
ATOM     11  C   UNL     1      49.318   9.077  17.124  0.00  0.00    +0.000 A 
ATOM     12  C   UNL     1      50.638   8.884  16.735  0.00  0.00    +0.000 A 
ATOM     13  C   UNL     1      51.546   8.408  17.675  0.00  0.00    +0.000 A 
ATOM     14  C   UNL     1      51.108   8.136  18.968  0.00  0.00    +0.000 A 
ATOM     15  C   UNL     1      49.770   8.347  19.277  0.00  0.00    +0.000 A 
ATOM     16  N   UNL     1      48.880   8.814  18.377  0.00  0.00    +0.000 NA
ENDBRANCH   9  15
ENDBRANCH   8   9
ENDBRANCH   2   8
ENDBRANCH   1   5
BRANCH   1  17
ATOM     17  N   UNL     1      46.824   4.402  15.227  0.00  0.00    +0.000 N 
ATOM     18  C   UNL     1      46.483   4.077  13.940  0.00  0.00    +0.000 C 
ATOM     19  O   UNL     1      46.766   2.989  13.446  0.00  0.00    +0.000 OA
ATOM     20  H   UNL     1      46.777   5.369  15.531  0.00  0.00    +0.000 HD
BRANCH  18  21
ATOM     21  C   UNL     1      45.707   5.077  13.197  0.00  0.00    +0.000 A 
ATOM     22  C   UNL     1      44.501   4.712  12.612  0.00  0.00    +0.000 A 
ATOM     23  S   UNL     1      43.702   6.000  11.831  0.00  0.00    +0.000 S 
ATOM     24  C   UNL     1      44.966   7.079  12.202  0.00  0.00    +0.000 A 
ATOM     25  N   UNL     1      44.921   8.375  11.790  0.00  0.00    +0.000 NA
ATOM     26  C   UNL     1      45.956   9.074  12.117  0.00  0.00    +0.000 A 
ATOM     27  N   UNL     1      47.028   8.595  12.824  0.00  0.00    +0.000 N 
ATOM     28  C   UNL     1      47.108   7.302  13.282  0.00  0.00    +0.000 A 
ATOM     29  O   UNL     1      48.065   6.919  13.941  0.00  0.00    +0.000 OA
ATOM     30  C   UNL     1      45.973   6.470  12.931  0.00  0.00    +0.000 A 
ATOM     31  H   UNL     1      47.806   9.199  13.056  0.00  0.00    +0.000 HD
ENDBRANCH  18  21
ENDBRANCH   1  17
TORSDOF 6
ENDMDL
