MODEL 1
REMARK VINA RESULT:    -8.748      0.000      0.000
REMARK INTER + INTRA:         -12.046
REMARK INTER:                 -11.305
REMARK INTRA:                  -0.741
REMARK UNBOUND:                -0.741
REMARK  Name = 
REMARK  5 active torsions:
REMARK  status: ('A' for Active; 'I' for Inactive)
REMARK    1  A    between atoms: C_2  and  C_18
REMARK    2  A    between atoms: N_3  and  C_4
REMARK    3  A    between atoms: C_4  and  C_5
REMARK    4  A    between atoms: C_8  and  C_9
REMARK    5  A    between atoms: C_9  and  C_10
REMARK                            x       y       z     vdW  Elec       q    Type
REMARK                         _______ _______ _______ _____ _____    ______ ____
ROOT
ATOM      1  O   UNL     1      48.853   6.905  13.045  0.00  0.00    +0.000 OA
ATOM      2  C   UNL     1      48.119   6.738  14.015  0.00  0.00    +0.000 C 
ATOM      3  N   UNL     1      46.766   6.948  13.956  0.00  0.00    +0.000 N 
ATOM      4  H   UNL     1      46.223   6.963  14.813  0.00  0.00    +0.000 HD
ENDROOT
BRANCH   2   5
ATOM      5  C   UNL     1      48.648   6.243  15.292  0.00  0.00    +0.000 A 
ATOM      6  C   UNL     1      49.666   6.942  15.928  0.00  0.00    +0.000 A 
ATOM      7  S   UNL     1      50.165   6.240  17.398  0.00  0.00    +0.000 S 
ATOM      8  C   UNL     1      49.010   4.998  17.258  0.00  0.00    +0.000 A 
ATOM      9  N   UNL     1      48.876   4.061  18.234  0.00  0.00    +0.000 NA
ATOM     10  C   UNL     1      47.935   3.203  18.021  0.00  0.00    +0.000 A 
ATOM     11  N   UNL     1      47.131   3.184  16.909  0.00  0.00    +0.000 N 
ATOM     12  C   UNL     1      47.284   4.062  15.862  0.00  0.00    +0.000 A 
ATOM     13  O   UNL     1      46.648   3.931  14.819  0.00  0.00    +0.000 OA
ATOM     14  C   UNL     1      48.282   5.092  16.084  0.00  0.00    +0.000 A 
ATOM     15  H   UNL     1      46.433   2.464  16.787  0.00  0.00    +0.000 HD
ENDBRANCH   2   5
BRANCH   3  16
ATOM     16  C   UNL     1      46.108   7.434  12.772  0.00  0.00    +0.000 C 
BRANCH  16  17
ATOM     17  C   UNL     1      45.644   6.307  11.887  0.00  0.00    +0.000 A 
ATOM     18  C   UNL     1      46.027   6.268  10.541  0.00  0.00    +0.000 A 
ATOM     19  C   UNL     1      45.643   5.203   9.724  0.00  0.00    +0.000 A 
ATOM     20  C   UNL     1      44.872   4.152  10.237  0.00  0.00    +0.000 A 
ATOM     21  C   UNL     1      44.456   4.210  11.574  0.00  0.00    +0.000 A 
ATOM     22  C   UNL     1      44.827   5.285  12.388  0.00  0.00    +0.000 A 
BRANCH  20  23
ATOM     23  C   UNL     1      44.495   2.977   9.362  0.00  0.00    +0.000 C 
BRANCH  23  24
ATOM     24  C   UNL     1      45.528   2.559   8.336  0.00  0.00    +0.000 A 
ATOM     25  C   UNL     1      45.822   3.365   7.235  0.00  0.00    +0.000 A 
ATOM     26  C   UNL     1      46.686   2.886   6.253  0.00  0.00    +0.000 A 
ATOM     27  C   UNL     1      47.239   1.620   6.389  0.00  0.00    +0.000 A 
ATOM     28  C   UNL     1      46.912   0.887   7.517  0.00  0.00    +0.000 A 
ATOM     29  N   UNL     1      46.072   1.322   8.484  0.00  0.00    +0.000 NA
ENDBRANCH  23  24
ENDBRANCH  20  23
ENDBRANCH  16  17
ENDBRANCH   3  16
TORSDOF 5
ENDMDL
MODEL 2
REMARK VINA RESULT:    -8.467      0.834      1.438
REMARK INTER + INTRA:         -11.683
REMARK INTER:                 -10.785
REMARK INTRA:                  -0.899
REMARK UNBOUND:                -0.741
REMARK  Name = 
REMARK  5 active torsions:
REMARK  status: ('A' for Active; 'I' for Inactive)
REMARK    1  A    between atoms: C_2  and  C_18
REMARK    2  A    between atoms: N_3  and  C_4
REMARK    3  A    between atoms: C_4  and  C_5
REMARK    4  A    between atoms: C_8  and  C_9
REMARK    5  A    between atoms: C_9  and  C_10
REMARK                            x       y       z     vdW  Elec       q    Type
REMARK                         _______ _______ _______ _____ _____    ______ ____
ROOT
ATOM      1  O   UNL     1      49.217   6.841  13.325  0.00  0.00    +0.000 OA
ATOM      2  C   UNL     1      48.476   6.797  14.304  0.00  0.00    +0.000 C 
ATOM      3  N   UNL     1      47.181   7.245  14.266  0.00  0.00    +0.000 N 
ATOM      4  H   UNL     1      46.660   7.347  15.130  0.00  0.00    +0.000 HD
ENDROOT
BRANCH   2   5
ATOM      5  C   UNL     1      48.923   6.200  15.569  0.00  0.00    +0.000 A 
ATOM      6  C   UNL     1      50.005   6.754  16.242  0.00  0.00    +0.000 A 
ATOM      7  S   UNL     1      50.395   5.950  17.693  0.00  0.00    +0.000 S 
ATOM      8  C   UNL     1      49.106   4.856  17.495  0.00  0.00    +0.000 A 
ATOM      9  N   UNL     1      48.848   3.909  18.435  0.00  0.00    +0.000 NA
ATOM     10  C   UNL     1      47.818   3.174  18.180  0.00  0.00    +0.000 A 
ATOM     11  N   UNL     1      47.035   3.286  17.058  0.00  0.00    +0.000 N 
ATOM     12  C   UNL     1      47.307   4.175  16.044  0.00  0.00    +0.000 A 
ATOM     13  O   UNL     1      46.677   4.155  14.990  0.00  0.00    +0.000 OA
ATOM     14  C   UNL     1      48.413   5.074  16.316  0.00  0.00    +0.000 A 
ATOM     15  H   UNL     1      46.261   2.657  16.903  0.00  0.00    +0.000 HD
ENDBRANCH   2   5
BRANCH   3  16
ATOM     16  C   UNL     1      46.607   7.854  13.095  0.00  0.00    +0.000 C 
BRANCH  16  17
ATOM     17  C   UNL     1      46.007   6.829  12.168  0.00  0.00    +0.000 A 
ATOM     18  C   UNL     1      44.836   6.153  12.534  0.00  0.00    +0.000 A 
ATOM     19  C   UNL     1      44.244   5.237  11.662  0.00  0.00    +0.000 A 
ATOM     20  C   UNL     1      44.807   4.982  10.405  0.00  0.00    +0.000 A 
ATOM     21  C   UNL     1      45.999   5.630  10.055  0.00  0.00    +0.000 A 
ATOM     22  C   UNL     1      46.601   6.534  10.935  0.00  0.00    +0.000 A 
BRANCH  20  23
ATOM     23  C   UNL     1      44.139   4.022   9.444  0.00  0.00    +0.000 C 
BRANCH  23  24
ATOM     24  C   UNL     1      45.067   3.268   8.513  0.00  0.00    +0.000 A 
ATOM     25  C   UNL     1      45.481   1.967   8.802  0.00  0.00    +0.000 A 
ATOM     26  C   UNL     1      46.430   1.358   7.984  0.00  0.00    +0.000 A 
ATOM     27  C   UNL     1      46.942   2.054   6.899  0.00  0.00    +0.000 A 
ATOM     28  C   UNL     1      46.470   3.335   6.667  0.00  0.00    +0.000 A 
ATOM     29  N   UNL     1      45.554   3.954   7.446  0.00  0.00    +0.000 NA
ENDBRANCH  23  24
ENDBRANCH  20  23
ENDBRANCH  16  17
ENDBRANCH   3  16
TORSDOF 5
ENDMDL
MODEL 3
REMARK VINA RESULT:    -7.781      2.157      3.654
REMARK INTER + INTRA:         -10.797
REMARK INTER:                  -9.987
REMARK INTRA:                  -0.810
REMARK UNBOUND:                -0.741
REMARK  Name = 
REMARK  5 active torsions:
REMARK  status: ('A' for Active; 'I' for Inactive)
REMARK    1  A    between atoms: C_2  and  C_18
REMARK    2  A    between atoms: N_3  and  C_4
REMARK    3  A    between atoms: C_4  and  C_5
REMARK    4  A    between atoms: C_8  and  C_9
REMARK    5  A    between atoms: C_9  and  C_10
REMARK                            x       y       z     vdW  Elec       q    Type
REMARK                         _______ _______ _______ _____ _____    ______ ____
ROOT
ATOM      1  O   UNL     1      48.504   4.936  15.945  0.00  0.00    +0.000 OA
ATOM      2  C   UNL     1      48.274   5.893  15.211  0.00  0.00    +0.000 C 
ATOM      3  N   UNL     1      47.194   5.929  14.367  0.00  0.00    +0.000 N 
ATOM      4  H   UNL     1      47.133   6.655  13.662  0.00  0.00    +0.000 HD
ENDROOT
BRANCH   2   5
ATOM      5  C   UNL     1      49.120   7.093  15.239  0.00  0.00    +0.000 A 
ATOM      6  C   UNL     1      49.406   7.700  16.455  0.00  0.00    +0.000 A 
ATOM      7  S   UNL     1      50.402   9.076  16.317  0.00  0.00    +0.000 S 
ATOM      8  C   UNL     1      50.521   8.886  14.630  0.00  0.00    +0.000 A 
ATOM      9  N   UNL     1      51.285   9.730  13.888  0.00  0.00    +0.000 NA
ATOM     10  C   UNL     1      51.321   9.447  12.629  0.00  0.00    +0.000 A 
ATOM     11  N   UNL     1      50.641   8.410  12.041  0.00  0.00    +0.000 N 
ATOM     12  C   UNL     1      49.794   7.581  12.739  0.00  0.00    +0.000 A 
ATOM     13  O   UNL     1      49.090   6.755  12.165  0.00  0.00    +0.000 OA
ATOM     14  C   UNL     1      49.776   7.812  14.172  0.00  0.00    +0.000 A 
ATOM     15  H   UNL     1      50.685   8.262  11.043  0.00  0.00    +0.000 HD
ENDBRANCH   2   5
BRANCH   3  16
ATOM     16  C   UNL     1      46.279   4.826  14.234  0.00  0.00    +0.000 C 
BRANCH  16  17
ATOM     17  C   UNL     1      45.823   4.647  12.810  0.00  0.00    +0.000 A 
ATOM     18  C   UNL     1      45.936   5.704  11.898  0.00  0.00    +0.000 A 
ATOM     19  C   UNL     1      45.562   5.533  10.564  0.00  0.00    +0.000 A 
ATOM     20  C   UNL     1      45.073   4.300  10.111  0.00  0.00    +0.000 A 
ATOM     21  C   UNL     1      44.924   3.255  11.032  0.00  0.00    +0.000 A 
ATOM     22  C   UNL     1      45.282   3.431  12.372  0.00  0.00    +0.000 A 
BRANCH  20  23
ATOM     23  C   UNL     1      44.711   4.104   8.656  0.00  0.00    +0.000 C 
BRANCH  23  24
ATOM     24  C   UNL     1      45.639   3.211   7.858  0.00  0.00    +0.000 A 
ATOM     25  C   UNL     1      45.904   1.901   8.260  0.00  0.00    +0.000 A 
ATOM     26  C   UNL     1      46.858   1.157   7.569  0.00  0.00    +0.000 A 
ATOM     27  C   UNL     1      47.523   1.732   6.495  0.00  0.00    +0.000 A 
ATOM     28  C   UNL     1      47.194   3.030   6.147  0.00  0.00    +0.000 A 
ATOM     29  N   UNL     1      46.277   3.779   6.802  0.00  0.00    +0.000 NA
ENDBRANCH  23  24
ENDBRANCH  20  23
ENDBRANCH  16  17
ENDBRANCH   3  16
TORSDOF 5
ENDMDL
MODEL 4
REMARK VINA RESULT:    -7.634      2.615      3.439
REMARK INTER + INTRA:         -10.606
REMARK INTER:                  -9.630
REMARK INTRA:                  -0.976
REMARK UNBOUND:                -0.741
REMARK  Name = 
REMARK  5 active torsions:
REMARK  status: ('A' for Active; 'I' for Inactive)
REMARK    1  A    between atoms: C_2  and  C_18
REMARK    2  A    between atoms: N_3  and  C_4
REMARK    3  A    between atoms: C_4  and  C_5
REMARK    4  A    between atoms: C_8  and  C_9
REMARK    5  A    between atoms: C_9  and  C_10
REMARK                            x       y       z     vdW  Elec       q    Type
REMARK                         _______ _______ _______ _____ _____    ______ ____
ROOT
ATOM      1  O   UNL     1      46.528   8.633  13.492  0.00  0.00    +0.000 OA
ATOM      2  C   UNL     1      47.470   7.848  13.421  0.00  0.00    +0.000 C 
ATOM      3  N   UNL     1      47.301   6.489  13.472  0.00  0.00    +0.000 N 
ATOM      4  H   UNL     1      48.109   5.886  13.579  0.00  0.00    +0.000 HD
ENDROOT
BRANCH   2   5
ATOM      5  C   UNL     1      48.843   8.327  13.215  0.00  0.00    +0.000 A 
ATOM      6  C   UNL     1      49.103   9.249  12.209  0.00  0.00    +0.000 A 
ATOM      7  S   UNL     1      50.741   9.706  12.103  0.00  0.00    +0.000 S 
ATOM      8  C   UNL     1      51.156   8.719  13.426  0.00  0.00    +0.000 A 
ATOM      9  N   UNL     1      52.432   8.683  13.892  0.00  0.00    +0.000 NA
ATOM     10  C   UNL     1      52.600   7.926  14.924  0.00  0.00    +0.000 A 
ATOM     11  N   UNL     1      51.611   7.183  15.518  0.00  0.00    +0.000 N 
ATOM     12  C   UNL     1      50.326   7.126  15.031  0.00  0.00    +0.000 A 
ATOM     13  O   UNL     1      49.500   6.343  15.495  0.00  0.00    +0.000 OA
ATOM     14  C   UNL     1      50.068   8.016  13.915  0.00  0.00    +0.000 A 
ATOM     15  H   UNL     1      51.815   6.584  16.305  0.00  0.00    +0.000 HD
ENDBRANCH   2   5
BRANCH   3  16
ATOM     16  C   UNL     1      46.013   5.876  13.671  0.00  0.00    +0.000 C 
BRANCH  16  17
ATOM     17  C   UNL     1      45.567   5.106  12.456  0.00  0.00    +0.000 A 
ATOM     18  C   UNL     1      45.510   5.736  11.207  0.00  0.00    +0.000 A 
ATOM     19  C   UNL     1      45.144   5.019  10.067  0.00  0.00    +0.000 A 
ATOM     20  C   UNL     1      44.833   3.655  10.150  0.00  0.00    +0.000 A 
ATOM     21  C   UNL     1      44.853   3.034  11.405  0.00  0.00    +0.000 A 
ATOM     22  C   UNL     1      45.203   3.757  12.551  0.00  0.00    +0.000 A 
BRANCH  20  23
ATOM     23  C   UNL     1      44.481   2.870   8.906  0.00  0.00    +0.000 C 
BRANCH  23  24
ATOM     24  C   UNL     1      45.644   2.493   8.011  0.00  0.00    +0.000 A 
ATOM     25  C   UNL     1      46.027   3.303   6.941  0.00  0.00    +0.000 A 
ATOM     26  C   UNL     1      47.020   2.858   6.071  0.00  0.00    +0.000 A 
ATOM     27  C   UNL     1      47.610   1.620   6.287  0.00  0.00    +0.000 A 
ATOM     28  C   UNL     1      47.188   0.881   7.378  0.00  0.00    +0.000 A 
ATOM     29  N   UNL     1      46.223   1.284   8.237  0.00  0.00    +0.000 NA
ENDBRANCH  23  24
ENDBRANCH  20  23
ENDBRANCH  16  17
ENDBRANCH   3  16
TORSDOF 5
ENDMDL
MODEL 5
REMARK VINA RESULT:    -7.467      1.930      2.750
REMARK INTER + INTRA:         -10.391
REMARK INTER:                 -10.023
REMARK INTRA:                  -0.368
REMARK UNBOUND:                -0.741
REMARK  Name = 
REMARK  5 active torsions:
REMARK  status: ('A' for Active; 'I' for Inactive)
REMARK    1  A    between atoms: C_2  and  C_18
REMARK    2  A    between atoms: N_3  and  C_4
REMARK    3  A    between atoms: C_4  and  C_5
REMARK    4  A    between atoms: C_8  and  C_9
REMARK    5  A    between atoms: C_9  and  C_10
REMARK                            x       y       z     vdW  Elec       q    Type
REMARK                         _______ _______ _______ _____ _____    ______ ____
ROOT
ATOM      1  O   UNL     1      46.514   3.669  17.037  0.00  0.00    +0.000 OA
ATOM      2  C   UNL     1      47.224   4.311  16.267  0.00  0.00    +0.000 C 
ATOM      3  N   UNL     1      46.781   4.739  15.043  0.00  0.00    +0.000 N 
ATOM      4  H   UNL     1      47.443   5.115  14.373  0.00  0.00    +0.000 HD
ENDROOT
BRANCH   2   5
ATOM      5  C   UNL     1      48.585   4.712  16.645  0.00  0.00    +0.000 A 
ATOM      6  C   UNL     1      48.912   6.062  16.697  0.00  0.00    +0.000 A 
ATOM      7  S   UNL     1      50.526   6.360  17.155  0.00  0.00    +0.000 S 
ATOM      8  C   UNL     1      50.836   4.697  17.340  0.00  0.00    +0.000 A 
ATOM      9  N   UNL     1      52.050   4.260  17.767  0.00  0.00    +0.000 NA
ATOM     10  C   UNL     1      52.136   2.979  17.903  0.00  0.00    +0.000 A 
ATOM     11  N   UNL     1      51.125   2.094  17.629  0.00  0.00    +0.000 N 
ATOM     12  C   UNL     1      49.909   2.484  17.118  0.00  0.00    +0.000 A 
ATOM     13  O   UNL     1      49.076   1.661  16.748  0.00  0.00    +0.000 OA
ATOM     14  C   UNL     1      49.736   3.921  17.015  0.00  0.00    +0.000 A 
ATOM     15  H   UNL     1      51.267   1.098  17.725  0.00  0.00    +0.000 HD
ENDBRANCH   2   5
BRANCH   3  16
ATOM     16  C   UNL     1      45.471   4.420  14.539  0.00  0.00    +0.000 C 
BRANCH  16  17
ATOM     17  C   UNL     1      45.438   4.404  13.034  0.00  0.00    +0.000 A 
ATOM     18  C   UNL     1      45.012   3.257  12.353  0.00  0.00    +0.000 A 
ATOM     19  C   UNL     1      44.931   3.248  10.960  0.00  0.00    +0.000 A 
ATOM     20  C   UNL     1      45.271   4.386  10.217  0.00  0.00    +0.000 A 
ATOM     21  C   UNL     1      45.734   5.521  10.896  0.00  0.00    +0.000 A 
ATOM     22  C   UNL     1      45.831   5.525  12.291  0.00  0.00    +0.000 A 
BRANCH  20  23
ATOM     23  C   UNL     1      45.140   4.388   8.710  0.00  0.00    +0.000 C 
BRANCH  23  24
ATOM     24  C   UNL     1      45.976   3.362   7.973  0.00  0.00    +0.000 A 
ATOM     25  C   UNL     1      45.873   2.001   8.264  0.00  0.00    +0.000 A 
ATOM     26  C   UNL     1      46.748   1.106   7.652  0.00  0.00    +0.000 A 
ATOM     27  C   UNL     1      47.701   1.585   6.764  0.00  0.00    +0.000 A 
ATOM     28  C   UNL     1      47.731   2.946   6.515  0.00  0.00    +0.000 A 
ATOM     29  N   UNL     1      46.900   3.839   7.098  0.00  0.00    +0.000 NA
ENDBRANCH  23  24
ENDBRANCH  20  23
ENDBRANCH  16  17
ENDBRANCH   3  16
TORSDOF 5
ENDMDL
MODEL 6
REMARK VINA RESULT:    -7.450      1.992      2.933
REMARK INTER + INTRA:         -10.369
REMARK INTER:                  -9.503
REMARK INTRA:                  -0.866
REMARK UNBOUND:                -0.741
REMARK  Name = 
REMARK  5 active torsions:
REMARK  status: ('A' for Active; 'I' for Inactive)
REMARK    1  A    between atoms: C_2  and  C_18
REMARK    2  A    between atoms: N_3  and  C_4
REMARK    3  A    between atoms: C_4  and  C_5
REMARK    4  A    between atoms: C_8  and  C_9
REMARK    5  A    between atoms: C_9  and  C_10
REMARK                            x       y       z     vdW  Elec       q    Type
REMARK                         _______ _______ _______ _____ _____    ______ ____
ROOT
ATOM      1  O   UNL     1      46.329   4.085  16.612  0.00  0.00    +0.000 OA
ATOM      2  C   UNL     1      47.401   4.281  16.046  0.00  0.00    +0.000 C 
ATOM      3  N   UNL     1      47.511   5.069  14.931  0.00  0.00    +0.000 N 
ATOM      4  H   UNL     1      48.375   5.070  14.400  0.00  0.00    +0.000 HD
ENDROOT
BRANCH   2   5
ATOM      5  C   UNL     1      48.652   3.721  16.575  0.00  0.00    +0.000 A 
ATOM      6  C   UNL     1      48.834   2.343  16.586  0.00  0.00    +0.000 A 
ATOM      7  S   UNL     1      50.335   1.855  17.226  0.00  0.00    +0.000 S 
ATOM      8  C   UNL     1      50.814   3.469  17.474  0.00  0.00    +0.000 A 
ATOM      9  N   UNL     1      52.046   3.760  17.969  0.00  0.00    +0.000 NA
ATOM     10  C   UNL     1      52.295   5.023  18.067  0.00  0.00    +0.000 A 
ATOM     11  N   UNL     1      51.414   6.021  17.737  0.00  0.00    +0.000 N 
ATOM     12  C   UNL     1      50.130   5.773  17.310  0.00  0.00    +0.000 A 
ATOM     13  O   UNL     1      49.318   6.683  17.160  0.00  0.00    +0.000 OA
ATOM     14  C   UNL     1      49.825   4.369  17.113  0.00  0.00    +0.000 A 
ATOM     15  H   UNL     1      51.659   6.993  17.868  0.00  0.00    +0.000 HD
ENDBRANCH   2   5
BRANCH   3  16
ATOM     16  C   UNL     1      46.371   5.683  14.301  0.00  0.00    +0.000 C 
BRANCH  16  17
ATOM     17  C   UNL     1      45.960   4.951  13.052  0.00  0.00    +0.000 A 
ATOM     18  C   UNL     1      45.768   3.563  13.082  0.00  0.00    +0.000 A 
ATOM     19  C   UNL     1      45.340   2.882  11.942  0.00  0.00    +0.000 A 
ATOM     20  C   UNL     1      45.089   3.572  10.749  0.00  0.00    +0.000 A 
ATOM     21  C   UNL     1      45.318   4.954  10.708  0.00  0.00    +0.000 A 
ATOM     22  C   UNL     1      45.764   5.635  11.845  0.00  0.00    +0.000 A 
BRANCH  20  23
ATOM     23  C   UNL     1      44.582   2.837   9.527  0.00  0.00    +0.000 C 
BRANCH  23  24
ATOM     24  C   UNL     1      45.617   2.535   8.462  0.00  0.00    +0.000 A 
ATOM     25  C   UNL     1      45.937   3.471   7.477  0.00  0.00    +0.000 A 
ATOM     26  C   UNL     1      46.800   3.106   6.447  0.00  0.00    +0.000 A 
ATOM     27  C   UNL     1      47.326   1.823   6.420  0.00  0.00    +0.000 A 
ATOM     28  C   UNL     1      46.974   0.956   7.440  0.00  0.00    +0.000 A 
ATOM     29  N   UNL     1      46.134   1.279   8.450  0.00  0.00    +0.000 NA
ENDBRANCH  23  24
ENDBRANCH  20  23
ENDBRANCH  16  17
ENDBRANCH   3  16
TORSDOF 5
ENDMDL
MODEL 7
REMARK VINA RESULT:    -7.117      1.988      2.482
REMARK INTER + INTRA:          -9.938
REMARK INTER:                  -8.930
REMARK INTRA:                  -1.008
REMARK UNBOUND:                -0.741
REMARK  Name = 
REMARK  5 active torsions:
REMARK  status: ('A' for Active; 'I' for Inactive)
REMARK    1  A    between atoms: C_2  and  C_18
REMARK    2  A    between atoms: N_3  and  C_4
REMARK    3  A    between atoms: C_4  and  C_5
REMARK    4  A    between atoms: C_8  and  C_9
REMARK    5  A    between atoms: C_9  and  C_10
REMARK                            x       y       z     vdW  Elec       q    Type
REMARK                         _______ _______ _______ _____ _____    ______ ____
ROOT
ATOM      1  O   UNL     1      49.441   9.397  15.717  0.00  0.00    +0.000 OA
ATOM      2  C   UNL     1      48.647   8.525  16.061  0.00  0.00    +0.000 C 
ATOM      3  N   UNL     1      47.830   7.882  15.170  0.00  0.00    +0.000 N 
ATOM      4  H   UNL     1      47.077   7.295  15.512  0.00  0.00    +0.000 HD
ENDROOT
BRANCH   2   5
ATOM      5  C   UNL     1      48.570   8.078  17.458  0.00  0.00    +0.000 A 
ATOM      6  C   UNL     1      48.344   9.009  18.463  0.00  0.00    +0.000 A 
ATOM      7  S   UNL     1      48.278   8.330  20.025  0.00  0.00    +0.000 S 
ATOM      8  C   UNL     1      48.508   6.760  19.409  0.00  0.00    +0.000 A 
ATOM      9  N   UNL     1      48.509   5.683  20.238  0.00  0.00    +0.000 NA
ATOM     10  C   UNL     1      48.651   4.550  19.636  0.00  0.00    +0.000 A 
ATOM     11  N   UNL     1      48.817   4.399  18.282  0.00  0.00    +0.000 N 
ATOM     12  C   UNL     1      48.904   5.465  17.417  0.00  0.00    +0.000 A 
ATOM     13  O   UNL     1      49.196   5.307  16.234  0.00  0.00    +0.000 OA
ATOM     14  C   UNL     1      48.677   6.758  18.035  0.00  0.00    +0.000 A 
ATOM     15  H   UNL     1      48.957   3.485  17.876  0.00  0.00    +0.000 HD
ENDBRANCH   2   5
BRANCH   3  16
ATOM     16  C   UNL     1      47.797   8.216  13.770  0.00  0.00    +0.000 C 
BRANCH  16  17
ATOM     17  C   UNL     1      46.883   7.301  12.998  0.00  0.00    +0.000 A 
ATOM     18  C   UNL     1      45.986   7.832  12.062  0.00  0.00    +0.000 A 
ATOM     19  C   UNL     1      45.169   6.990  11.306  0.00  0.00    +0.000 A 
ATOM     20  C   UNL     1      45.234   5.599  11.465  0.00  0.00    +0.000 A 
ATOM     21  C   UNL     1      46.104   5.070  12.429  0.00  0.00    +0.000 A 
ATOM     22  C   UNL     1      46.910   5.915  13.198  0.00  0.00    +0.000 A 
BRANCH  20  23
ATOM     23  C   UNL     1      44.379   4.686  10.613  0.00  0.00    +0.000 C 
BRANCH  23  24
ATOM     24  C   UNL     1      45.118   3.878   9.566  0.00  0.00    +0.000 A 
ATOM     25  C   UNL     1      45.748   4.497   8.485  0.00  0.00    +0.000 A 
ATOM     26  C   UNL     1      46.308   3.709   7.482  0.00  0.00    +0.000 A 
ATOM     27  C   UNL     1      46.230   2.327   7.578  0.00  0.00    +0.000 A 
ATOM     28  C   UNL     1      45.603   1.787   8.687  0.00  0.00    +0.000 A 
ATOM     29  N   UNL     1      45.046   2.525   9.674  0.00  0.00    +0.000 NA
ENDBRANCH  23  24
ENDBRANCH  20  23
ENDBRANCH  16  17
ENDBRANCH   3  16
TORSDOF 5
ENDMDL
MODEL 8
REMARK VINA RESULT:    -6.744      3.633      4.757
REMARK INTER + INTRA:          -9.456
REMARK INTER:                  -8.535
REMARK INTRA:                  -0.922
REMARK UNBOUND:                -0.741
REMARK  Name = 
REMARK  5 active torsions:
REMARK  status: ('A' for Active; 'I' for Inactive)
REMARK    1  A    between atoms: C_2  and  C_18
REMARK    2  A    between atoms: N_3  and  C_4
REMARK    3  A    between atoms: C_4  and  C_5
REMARK    4  A    between atoms: C_8  and  C_9
REMARK    5  A    between atoms: C_9  and  C_10
REMARK                            x       y       z     vdW  Elec       q    Type
REMARK                         _______ _______ _______ _____ _____    ______ ____
ROOT
ATOM      1  O   UNL     1      48.648   9.369  13.447  0.00  0.00    +0.000 OA
ATOM      2  C   UNL     1      49.437   8.451  13.236  0.00  0.00    +0.000 C 
ATOM      3  N   UNL     1      49.128   7.143  13.500  0.00  0.00    +0.000 N 
ATOM      4  H   UNL     1      49.858   6.439  13.471  0.00  0.00    +0.000 HD
ENDROOT
BRANCH   2   5
ATOM      5  C   UNL     1      50.749   8.703  12.627  0.00  0.00    +0.000 A 
ATOM      6  C   UNL     1      50.819   9.194  11.330  0.00  0.00    +0.000 A 
ATOM      7  S   UNL     1      52.411   9.435  10.772  0.00  0.00    +0.000 S 
ATOM      8  C   UNL     1      53.065   8.929  12.260  0.00  0.00    +0.000 A 
ATOM      9  N   UNL     1      54.408   8.940  12.468  0.00  0.00    +0.000 NA
ATOM     10  C   UNL     1      54.765   8.572  13.653  0.00  0.00    +0.000 A 
ATOM     11  N   UNL     1      53.901   8.173  14.641  0.00  0.00    +0.000 N 
ATOM     12  C   UNL     1      52.543   8.070  14.449  0.00  0.00    +0.000 A 
ATOM     13  O   UNL     1      51.812   7.574  15.303  0.00  0.00    +0.000 OA
ATOM     14  C   UNL     1      52.083   8.540  13.156  0.00  0.00    +0.000 A 
ATOM     15  H   UNL     1      54.248   7.865  15.539  0.00  0.00    +0.000 HD
ENDBRANCH   2   5
BRANCH   3  16
ATOM     16  C   UNL     1      47.880   6.747  14.097  0.00  0.00    +0.000 C 
BRANCH  16  17
ATOM     17  C   UNL     1      46.939   6.150  13.083  0.00  0.00    +0.000 A 
ATOM     18  C   UNL     1      46.677   6.827  11.885  0.00  0.00    +0.000 A 
ATOM     19  C   UNL     1      45.845   6.261  10.918  0.00  0.00    +0.000 A 
ATOM     20  C   UNL     1      45.261   5.004  11.125  0.00  0.00    +0.000 A 
ATOM     21  C   UNL     1      45.493   4.344  12.340  0.00  0.00    +0.000 A 
ATOM     22  C   UNL     1      46.312   4.919  13.316  0.00  0.00    +0.000 A 
BRANCH  20  23
ATOM     23  C   UNL     1      44.396   4.372  10.057  0.00  0.00    +0.000 C 
BRANCH  23  24
ATOM     24  C   UNL     1      45.130   3.572   8.999  0.00  0.00    +0.000 A 
ATOM     25  C   UNL     1      45.306   2.194   9.127  0.00  0.00    +0.000 A 
ATOM     26  C   UNL     1      46.093   1.519   8.196  0.00  0.00    +0.000 A 
ATOM     27  C   UNL     1      46.683   2.230   7.161  0.00  0.00    +0.000 A 
ATOM     28  C   UNL     1      46.450   3.592   7.092  0.00  0.00    +0.000 A 
ATOM     29  N   UNL     1      45.696   4.276   7.984  0.00  0.00    +0.000 NA
ENDBRANCH  23  24
ENDBRANCH  20  23
ENDBRANCH  16  17
ENDBRANCH   3  16
TORSDOF 5
ENDMDL
MODEL 9
REMARK VINA RESULT:    -6.743      2.517      3.672
REMARK INTER + INTRA:          -9.455
REMARK INTER:                  -8.444
REMARK INTRA:                  -1.011
REMARK UNBOUND:                -0.741
REMARK  Name = 
REMARK  5 active torsions:
REMARK  status: ('A' for Active; 'I' for Inactive)
REMARK    1  A    between atoms: C_2  and  C_18
REMARK    2  A    between atoms: N_3  and  C_4
REMARK    3  A    between atoms: C_4  and  C_5
REMARK    4  A    between atoms: C_8  and  C_9
REMARK    5  A    between atoms: C_9  and  C_10
REMARK                            x       y       z     vdW  Elec       q    Type
REMARK                         _______ _______ _______ _____ _____    ______ ____
ROOT
ATOM      1  O   UNL     1      48.192   8.451  16.338  0.00  0.00    +0.000 OA
ATOM      2  C   UNL     1      48.895   7.731  15.633  0.00  0.00    +0.000 C 
ATOM      3  N   UNL     1      48.737   7.653  14.275  0.00  0.00    +0.000 N 
ATOM      4  H   UNL     1      49.218   6.928  13.754  0.00  0.00    +0.000 HD
ENDROOT
BRANCH   2   5
ATOM      5  C   UNL     1      49.996   6.948  16.208  0.00  0.00    +0.000 A 
ATOM      6  C   UNL     1      49.726   6.015  17.202  0.00  0.00    +0.000 A 
ATOM      7  S   UNL     1      51.108   5.189  17.760  0.00  0.00    +0.000 S 
ATOM      8  C   UNL     1      52.112   6.019  16.665  0.00  0.00    +0.000 A 
ATOM      9  N   UNL     1      53.441   5.743  16.594  0.00  0.00    +0.000 NA
ATOM     10  C   UNL     1      54.076   6.414  15.693  0.00  0.00    +0.000 A 
ATOM     11  N   UNL     1      53.506   7.354  14.872  0.00  0.00    +0.000 N 
ATOM     12  C   UNL     1      52.185   7.724  14.964  0.00  0.00    +0.000 A 
ATOM     13  O   UNL     1      51.737   8.667  14.316  0.00  0.00    +0.000 OA
ATOM     14  C   UNL     1      51.410   6.946  15.913  0.00  0.00    +0.000 A 
ATOM     15  H   UNL     1      54.067   7.870  14.208  0.00  0.00    +0.000 HD
ENDBRANCH   2   5
BRANCH   3  16
ATOM     16  C   UNL     1      47.700   8.364  13.574  0.00  0.00    +0.000 C 
BRANCH  16  17
ATOM     17  C   UNL     1      46.761   7.426  12.861  0.00  0.00    +0.000 A 
ATOM     18  C   UNL     1      45.742   7.936  12.047  0.00  0.00    +0.000 A 
ATOM     19  C   UNL     1      44.898   7.076  11.344  0.00  0.00    +0.000 A 
ATOM     20  C   UNL     1      45.057   5.687  11.435  0.00  0.00    +0.000 A 
ATOM     21  C   UNL     1      46.051   5.175  12.280  0.00  0.00    +0.000 A 
ATOM     22  C   UNL     1      46.887   6.038  12.998  0.00  0.00    +0.000 A 
BRANCH  20  23
ATOM     23  C   UNL     1      44.170   4.757  10.638  0.00  0.00    +0.000 C 
BRANCH  23  24
ATOM     24  C   UNL     1      44.858   3.962   9.546  0.00  0.00    +0.000 A 
ATOM     25  C   UNL     1      44.903   2.567   9.586  0.00  0.00    +0.000 A 
ATOM     26  C   UNL     1      45.651   1.884   8.630  0.00  0.00    +0.000 A 
ATOM     27  C   UNL     1      46.333   2.601   7.658  0.00  0.00    +0.000 A 
ATOM     28  C   UNL     1      46.226   3.981   7.674  0.00  0.00    +0.000 A 
ATOM     29  N   UNL     1      45.513   4.673   8.592  0.00  0.00    +0.000 NA
ENDBRANCH  23  24
ENDBRANCH  20  23
ENDBRANCH  16  17
ENDBRANCH   3  16
TORSDOF 5
ENDMDL
