MODEL 1
REMARK VINA RESULT:    -8.497      0.000      0.000
REMARK INTER + INTRA:         -13.675
REMARK INTER:                 -12.471
REMARK INTRA:                  -1.204
REMARK UNBOUND:                -1.204
REMARK  Name = 
REMARK  9 active torsions:
REMARK  status: ('A' for Active; 'I' for Inactive)
REMARK    1  A    between atoms: C_1  and  O_2
REMARK    2  A    between atoms: O_2  and  C_3
REMARK    3  A    between atoms: C_10  and  C_11
REMARK    4  A    between atoms: N_13  and  C_14
REMARK    5  A    between atoms: C_14  and  C_15
REMARK    6  A    between atoms: C_18  and  C_19
REMARK    7  A    between atoms: C_19  and  O_20
REMARK    8  A    between atoms: O_20  and  C_21
REMARK    9  A    between atoms: C_21  and  C_22
REMARK                            x       y       z     vdW  Elec       q    Type
REMARK                         _______ _______ _______ _____ _____    ______ ____
ROOT
ATOM      1  C   UNL     1      48.040   6.860  13.238  0.00  0.00    +0.000 C 
ENDROOT
BRANCH   1   2
ATOM      2  C   UNL     1      46.910   6.036  12.669  0.00  0.00    +0.000 A 
ATOM      3  C   UNL     1      46.378   4.953  13.382  0.00  0.00    +0.000 A 
ATOM      4  C   UNL     1      45.320   4.200  12.856  0.00  0.00    +0.000 A 
ATOM      5  C   UNL     1      44.778   4.507  11.602  0.00  0.00    +0.000 A 
ATOM      6  C   UNL     1      45.331   5.572  10.876  0.00  0.00    +0.000 A 
ATOM      7  C   UNL     1      46.389   6.322  11.401  0.00  0.00    +0.000 A 
BRANCH   5   8
ATOM      8  C   UNL     1      43.636   3.699  11.031  0.00  0.00    +0.000 C 
BRANCH   8   9
ATOM      9  O   UNL     1      43.906   3.401   9.664  0.00  0.00    +0.000 OA
BRANCH   9  10
ATOM     10  C   UNL     1      44.642   2.186   9.519  0.00  0.00    +0.000 C 
BRANCH  10  11
ATOM     11  C   UNL     1      45.605   2.284   8.358  0.00  0.00    +0.000 A 
ATOM     12  C   UNL     1      46.413   1.193   7.989  0.00  0.00    +0.000 A 
ATOM     13  C   UNL     1      47.267   1.279   6.889  0.00  0.00    +0.000 A 
ATOM     14  C   UNL     1      47.311   2.453   6.147  0.00  0.00    +0.000 A 
ATOM     15  F   UNL     1      48.128   2.534   5.088  0.00  0.00    +0.000 F 
ATOM     16  C   UNL     1      46.516   3.540   6.483  0.00  0.00    +0.000 A 
ATOM     17  C   UNL     1      45.659   3.456   7.586  0.00  0.00    +0.000 A 
ENDBRANCH  10  11
ENDBRANCH   9  10
ENDBRANCH   8   9
ENDBRANCH   5   8
ENDBRANCH   1   2
BRANCH   1  20
ATOM     18  C   UNL     1      49.047   6.914  15.488  0.00  0.00    +0.000 C 
ATOM     19  O   UNL     1      50.180   6.791  15.028  0.00  0.00    +0.000 OA
ATOM     20  N   UNL     1      47.947   6.951  14.673  0.00  0.00    +0.000 N 
ATOM     21  H   UNL     1      47.021   6.940  15.078  0.00  0.00    +0.000 HD
BRANCH  18  29
ATOM     22  C   UNL     1      49.068   4.673  18.101  0.00  0.00    +0.000 A 
ATOM     23  N   UNL     1      48.948   4.014  19.271  0.00  0.00    +0.000 NA
ATOM     24  C   UNL     1      48.583   4.711  20.349  0.00  0.00    +0.000 A 
ATOM     25  N   UNL     1      48.328   6.014  20.411  0.00  0.00    +0.000 NA
ATOM     26  C   UNL     1      48.459   6.631  19.226  0.00  0.00    +0.000 A 
ATOM     27  S   UNL     1      48.186   8.306  19.119  0.00  0.00    +0.000 S 
ATOM     28  C   UNL     1      48.503   8.301  17.450  0.00  0.00    +0.000 A 
ATOM     29  C   UNL     1      48.814   7.047  16.938  0.00  0.00    +0.000 A 
ATOM     30  C   UNL     1      48.815   6.053  18.011  0.00  0.00    +0.000 A 
BRANCH  22  32
ATOM     31  C   UNL     1      50.116   2.717  17.361  0.00  0.00    +0.000 C 
ATOM     32  O   UNL     1      49.522   3.963  17.008  0.00  0.00    +0.000 OA
ENDBRANCH  22  32
ENDBRANCH  18  29
ENDBRANCH   1  20
TORSDOF 8
ENDMDL
MODEL 2
REMARK VINA RESULT:    -7.594      1.854      2.287
REMARK INTER + INTRA:         -12.350
REMARK INTER:                 -11.190
REMARK INTRA:                  -1.159
REMARK UNBOUND:                -1.204
REMARK  Name = 
REMARK  9 active torsions:
REMARK  status: ('A' for Active; 'I' for Inactive)
REMARK    1  A    between atoms: C_1  and  O_2
REMARK    2  A    between atoms: O_2  and  C_3
REMARK    3  A    between atoms: C_10  and  C_11
REMARK    4  A    between atoms: N_13  and  C_14
REMARK    5  A    between atoms: C_14  and  C_15
REMARK    6  A    between atoms: C_18  and  C_19
REMARK    7  A    between atoms: C_19  and  O_20
REMARK    8  A    between atoms: O_20  and  C_21
REMARK    9  A    between atoms: C_21  and  C_22
REMARK                            x       y       z     vdW  Elec       q    Type
REMARK                         _______ _______ _______ _____ _____    ______ ____
ROOT
ATOM      1  C   UNL     1      47.748   7.573  13.830  0.00  0.00    +0.000 C 
ENDROOT
BRANCH   1   2
ATOM      2  C   UNL     1      46.893   6.498  13.202  0.00  0.00    +0.000 A 
ATOM      3  C   UNL     1      46.606   5.311  13.892  0.00  0.00    +0.000 A 
ATOM      4  C   UNL     1      45.802   4.322  13.311  0.00  0.00    +0.000 A 
ATOM      5  C   UNL     1      45.274   4.493  12.024  0.00  0.00    +0.000 A 
ATOM      6  C   UNL     1      45.586   5.668  11.324  0.00  0.00    +0.000 A 
ATOM      7  C   UNL     1      46.392   6.654  11.904  0.00  0.00    +0.000 A 
BRANCH   5   8
ATOM      8  C   UNL     1      44.405   3.431  11.394  0.00  0.00    +0.000 C 
BRANCH   8   9
ATOM      9  O   UNL     1      44.568   3.466   9.979  0.00  0.00    +0.000 OA
BRANCH   9  10
ATOM     10  C   UNL     1      44.769   2.161   9.435  0.00  0.00    +0.000 C 
BRANCH  10  11
ATOM     11  C   UNL     1      45.659   2.227   8.215  0.00  0.00    +0.000 A 
ATOM     12  C   UNL     1      45.699   3.376   7.404  0.00  0.00    +0.000 A 
ATOM     13  C   UNL     1      46.555   3.443   6.305  0.00  0.00    +0.000 A 
ATOM     14  C   UNL     1      47.384   2.366   6.016  0.00  0.00    +0.000 A 
ATOM     15  F   UNL     1      48.210   2.432   4.963  0.00  0.00    +0.000 F 
ATOM     16  C   UNL     1      47.373   1.224   6.806  0.00  0.00    +0.000 A 
ATOM     17  C   UNL     1      46.514   1.154   7.908  0.00  0.00    +0.000 A 
ENDBRANCH  10  11
ENDBRANCH   9  10
ENDBRANCH   8   9
ENDBRANCH   5   8
ENDBRANCH   1   2
BRANCH   1  20
ATOM     18  C   UNL     1      49.435   7.537  15.628  0.00  0.00    +0.000 C 
ATOM     19  O   UNL     1      48.957   8.541  16.151  0.00  0.00    +0.000 OA
ATOM     20  N   UNL     1      48.900   7.006  14.485  0.00  0.00    +0.000 N 
ATOM     21  H   UNL     1      49.375   6.251  14.011  0.00  0.00    +0.000 HD
BRANCH  18  29
ATOM     22  C   UNL     1      49.852   4.454  17.100  0.00  0.00    +0.000 A 
ATOM     23  N   UNL     1      50.272   3.357  17.762  0.00  0.00    +0.000 NA
ATOM     24  C   UNL     1      51.541   3.320  18.172  0.00  0.00    +0.000 A 
ATOM     25  N   UNL     1      52.469   4.255  17.991  0.00  0.00    +0.000 NA
ATOM     26  C   UNL     1      52.009   5.328  17.328  0.00  0.00    +0.000 A 
ATOM     27  S   UNL     1      53.062   6.620  16.992  0.00  0.00    +0.000 S 
ATOM     28  C   UNL     1      51.825   7.496  16.228  0.00  0.00    +0.000 A 
ATOM     29  C   UNL     1      50.597   6.843  16.212  0.00  0.00    +0.000 A 
ATOM     30  C   UNL     1      50.719   5.531  16.848  0.00  0.00    +0.000 A 
BRANCH  22  32
ATOM     31  C   UNL     1      47.731   3.474  17.228  0.00  0.00    +0.000 C 
ATOM     32  O   UNL     1      48.562   4.452  16.609  0.00  0.00    +0.000 OA
ENDBRANCH  22  32
ENDBRANCH  18  29
ENDBRANCH   1  20
TORSDOF 8
ENDMDL
MODEL 3
REMARK VINA RESULT:    -7.076      4.103      5.756
REMARK INTER + INTRA:         -11.590
REMARK INTER:                 -10.471
REMARK INTRA:                  -1.119
REMARK UNBOUND:                -1.204
REMARK  Name = 
REMARK  9 active torsions:
REMARK  status: ('A' for Active; 'I' for Inactive)
REMARK    1  A    between atoms: C_1  and  O_2
REMARK    2  A    between atoms: O_2  and  C_3
REMARK    3  A    between atoms: C_10  and  C_11
REMARK    4  A    between atoms: N_13  and  C_14
REMARK    5  A    between atoms: C_14  and  C_15
REMARK    6  A    between atoms: C_18  and  C_19
REMARK    7  A    between atoms: C_19  and  O_20
REMARK    8  A    between atoms: O_20  and  C_21
REMARK    9  A    between atoms: C_21  and  C_22
REMARK                            x       y       z     vdW  Elec       q    Type
REMARK                         _______ _______ _______ _____ _____    ______ ____
ROOT
ATOM      1  C   UNL     1      48.586   7.514  13.502  0.00  0.00    +0.000 C 
ENDROOT
BRANCH   1   2
ATOM      2  C   UNL     1      47.519   6.546  13.050  0.00  0.00    +0.000 A 
ATOM      3  C   UNL     1      46.758   6.799  11.900  0.00  0.00    +0.000 A 
ATOM      4  C   UNL     1      45.778   5.891  11.476  0.00  0.00    +0.000 A 
ATOM      5  C   UNL     1      45.531   4.716  12.197  0.00  0.00    +0.000 A 
ATOM      6  C   UNL     1      46.273   4.479  13.364  0.00  0.00    +0.000 A 
ATOM      7  C   UNL     1      47.249   5.387  13.787  0.00  0.00    +0.000 A 
BRANCH   5   8
ATOM      8  C   UNL     1      44.477   3.734  11.744  0.00  0.00    +0.000 C 
BRANCH   8   9
ATOM      9  O   UNL     1      45.043   2.843  10.786  0.00  0.00    +0.000 OA
BRANCH   9  10
ATOM     10  C   UNL     1      44.418   2.971   9.508  0.00  0.00    +0.000 C 
BRANCH  10  11
ATOM     11  C   UNL     1      45.407   2.675   8.403  0.00  0.00    +0.000 A 
ATOM     12  C   UNL     1      45.743   3.651   7.447  0.00  0.00    +0.000 A 
ATOM     13  C   UNL     1      46.688   3.382   6.457  0.00  0.00    +0.000 A 
ATOM     14  C   UNL     1      47.310   2.139   6.423  0.00  0.00    +0.000 A 
ATOM     15  F   UNL     1      48.221   1.883   5.475  0.00  0.00    +0.000 F 
ATOM     16  C   UNL     1      47.005   1.163   7.361  0.00  0.00    +0.000 A 
ATOM     17  C   UNL     1      46.057   1.430   8.354  0.00  0.00    +0.000 A 
ENDBRANCH  10  11
ENDBRANCH   9  10
ENDBRANCH   8   9
ENDBRANCH   5   8
ENDBRANCH   1   2
BRANCH   1  20
ATOM     18  C   UNL     1      50.330   8.206  11.903  0.00  0.00    +0.000 C 
ATOM     19  O   UNL     1      49.745   9.258  11.659  0.00  0.00    +0.000 OA
ATOM     20  N   UNL     1      49.821   7.297  12.792  0.00  0.00    +0.000 N 
ATOM     21  H   UNL     1      50.259   6.392  12.892  0.00  0.00    +0.000 HD
BRANCH  18  29
ATOM     22  C   UNL     1      53.613   8.715  12.803  0.00  0.00    +0.000 A 
ATOM     23  N   UNL     1      54.954   8.840  12.877  0.00  0.00    +0.000 NA
ATOM     24  C   UNL     1      55.684   8.391  11.855  0.00  0.00    +0.000 A 
ATOM     25  N   UNL     1      55.236   7.809  10.746  0.00  0.00    +0.000 NA
ATOM     26  C   UNL     1      53.898   7.703  10.713  0.00  0.00    +0.000 A 
ATOM     27  S   UNL     1      53.149   6.970   9.375  0.00  0.00    +0.000 S 
ATOM     28  C   UNL     1      51.605   7.229  10.034  0.00  0.00    +0.000 A 
ATOM     29  C   UNL     1      51.618   7.874  11.266  0.00  0.00    +0.000 A 
ATOM     30  C   UNL     1      52.996   8.131  11.683  0.00  0.00    +0.000 A 
BRANCH  22  32
ATOM     31  C   UNL     1      52.812   8.114  14.917  0.00  0.00    +0.000 C 
ATOM     32  O   UNL     1      52.870   9.108  13.897  0.00  0.00    +0.000 OA
ENDBRANCH  22  32
ENDBRANCH  18  29
ENDBRANCH   1  20
TORSDOF 8
ENDMDL
MODEL 4
REMARK VINA RESULT:    -6.812      4.621      9.672
REMARK INTER + INTRA:         -11.203
REMARK INTER:                 -10.165
REMARK INTRA:                  -1.037
REMARK UNBOUND:                -1.204
REMARK  Name = 
REMARK  9 active torsions:
REMARK  status: ('A' for Active; 'I' for Inactive)
REMARK    1  A    between atoms: C_1  and  O_2
REMARK    2  A    between atoms: O_2  and  C_3
REMARK    3  A    between atoms: C_10  and  C_11
REMARK    4  A    between atoms: N_13  and  C_14
REMARK    5  A    between atoms: C_14  and  C_15
REMARK    6  A    between atoms: C_18  and  C_19
REMARK    7  A    between atoms: C_19  and  O_20
REMARK    8  A    between atoms: O_20  and  C_21
REMARK    9  A    between atoms: C_21  and  C_22
REMARK                            x       y       z     vdW  Elec       q    Type
REMARK                         _______ _______ _______ _____ _____    ______ ____
ROOT
ATOM      1  C   UNL     1      47.178   3.354  16.785  0.00  0.00    +0.000 C 
ENDROOT
BRANCH   1   2
ATOM      2  C   UNL     1      48.651   3.309  17.115  0.00  0.00    +0.000 A 
ATOM      3  C   UNL     1      49.382   2.120  16.988  0.00  0.00    +0.000 A 
ATOM      4  C   UNL     1      50.752   2.086  17.282  0.00  0.00    +0.000 A 
ATOM      5  C   UNL     1      51.418   3.238  17.719  0.00  0.00    +0.000 A 
ATOM      6  C   UNL     1      50.679   4.420  17.874  0.00  0.00    +0.000 A 
ATOM      7  C   UNL     1      49.311   4.452  17.582  0.00  0.00    +0.000 A 
BRANCH   5   8
ATOM      8  C   UNL     1      52.895   3.208  18.036  0.00  0.00    +0.000 C 
BRANCH   8   9
ATOM      9  O   UNL     1      53.176   2.083  18.864  0.00  0.00    +0.000 OA
BRANCH   9  10
ATOM     10  C   UNL     1      54.561   1.737  18.837  0.00  0.00    +0.000 C 
BRANCH  10  11
ATOM     11  C   UNL     1      54.754   0.373  18.214  0.00  0.00    +0.000 A 
ATOM     12  C   UNL     1      54.960  -0.769  19.010  0.00  0.00    +0.000 A 
ATOM     13  C   UNL     1      55.094  -2.029  18.427  0.00  0.00    +0.000 A 
ATOM     14  C   UNL     1      55.013  -2.157  17.046  0.00  0.00    +0.000 A 
ATOM     15  F   UNL     1      55.137  -3.368  16.486  0.00  0.00    +0.000 F 
ATOM     16  C   UNL     1      54.800  -1.049  16.238  0.00  0.00    +0.000 A 
ATOM     17  C   UNL     1      54.667   0.217  16.820  0.00  0.00    +0.000 A 
ENDBRANCH  10  11
ENDBRANCH   9  10
ENDBRANCH   8   9
ENDBRANCH   5   8
ENDBRANCH   1   2
BRANCH   1  20
ATOM     18  C   UNL     1      46.934   4.266  14.506  0.00  0.00    +0.000 C 
ATOM     19  O   UNL     1      47.247   3.191  14.000  0.00  0.00    +0.000 OA
ATOM     20  N   UNL     1      46.883   4.424  15.866  0.00  0.00    +0.000 N 
ATOM     21  H   UNL     1      46.733   5.343  16.259  0.00  0.00    +0.000 HD
BRANCH  18  29
ATOM     22  C   UNL     1      44.159   5.088  12.643  0.00  0.00    +0.000 A 
ATOM     23  N   UNL     1      43.247   5.619  11.804  0.00  0.00    +0.000 NA
ATOM     24  C   UNL     1      43.540   6.776  11.207  0.00  0.00    +0.000 A 
ATOM     25  N   UNL     1      44.650   7.493  11.355  0.00  0.00    +0.000 NA
ATOM     26  C   UNL     1      45.530   6.930  12.198  0.00  0.00    +0.000 A 
ATOM     27  S   UNL     1      47.003   7.716  12.520  0.00  0.00    +0.000 S 
ATOM     28  C   UNL     1      47.501   6.467  13.556  0.00  0.00    +0.000 A 
ATOM     29  C   UNL     1      46.579   5.434  13.679  0.00  0.00    +0.000 A 
ATOM     30  C   UNL     1      45.387   5.729  12.885  0.00  0.00    +0.000 A 
BRANCH  22  32
ATOM     31  C   UNL     1      43.589   2.828  12.447  0.00  0.00    +0.000 C 
ATOM     32  O   UNL     1      43.816   3.934  13.317  0.00  0.00    +0.000 OA
ENDBRANCH  22  32
ENDBRANCH  18  29
ENDBRANCH   1  20
TORSDOF 8
ENDMDL
MODEL 5
REMARK VINA RESULT:    -6.740      4.265      8.962
REMARK INTER + INTRA:         -11.096
REMARK INTER:                  -9.578
REMARK INTRA:                  -1.518
REMARK UNBOUND:                -1.204
REMARK  Name = 
REMARK  9 active torsions:
REMARK  status: ('A' for Active; 'I' for Inactive)
REMARK    1  A    between atoms: C_1  and  O_2
REMARK    2  A    between atoms: O_2  and  C_3
REMARK    3  A    between atoms: C_10  and  C_11
REMARK    4  A    between atoms: N_13  and  C_14
REMARK    5  A    between atoms: C_14  and  C_15
REMARK    6  A    between atoms: C_18  and  C_19
REMARK    7  A    between atoms: C_19  and  O_20
REMARK    8  A    between atoms: O_20  and  C_21
REMARK    9  A    between atoms: C_21  and  C_22
REMARK                            x       y       z     vdW  Elec       q    Type
REMARK                         _______ _______ _______ _____ _____    ______ ____
ROOT
ATOM      1  C   UNL     1      47.274   3.298  16.958  0.00  0.00    +0.000 C 
ENDROOT
BRANCH   1   2
ATOM      2  C   UNL     1      48.731   3.269  17.353  0.00  0.00    +0.000 A 
ATOM      3  C   UNL     1      49.570   2.228  16.931  0.00  0.00    +0.000 A 
ATOM      4  C   UNL     1      50.925   2.212  17.288  0.00  0.00    +0.000 A 
ATOM      5  C   UNL     1      51.467   3.230  18.083  0.00  0.00    +0.000 A 
ATOM      6  C   UNL     1      50.619   4.254  18.530  0.00  0.00    +0.000 A 
ATOM      7  C   UNL     1      49.267   4.268  18.175  0.00  0.00    +0.000 A 
BRANCH   5   8
ATOM      8  C   UNL     1      52.928   3.218  18.471  0.00  0.00    +0.000 C 
BRANCH   8   9
ATOM      9  O   UNL     1      53.717   3.601  17.348  0.00  0.00    +0.000 OA
BRANCH   9  10
ATOM     10  C   UNL     1      54.342   4.870  17.546  0.00  0.00    +0.000 C 
BRANCH  10  11
ATOM     11  C   UNL     1      53.879   5.858  16.500  0.00  0.00    +0.000 A 
ATOM     12  C   UNL     1      52.613   6.466  16.583  0.00  0.00    +0.000 A 
ATOM     13  C   UNL     1      52.213   7.409  15.636  0.00  0.00    +0.000 A 
ATOM     14  C   UNL     1      53.078   7.756  14.606  0.00  0.00    +0.000 A 
ATOM     15  F   UNL     1      52.695   8.664  13.699  0.00  0.00    +0.000 F 
ATOM     16  C   UNL     1      54.337   7.179  14.506  0.00  0.00    +0.000 A 
ATOM     17  C   UNL     1      54.741   6.232  15.454  0.00  0.00    +0.000 A 
ENDBRANCH  10  11
ENDBRANCH   9  10
ENDBRANCH   8   9
ENDBRANCH   5   8
ENDBRANCH   1   2
BRANCH   1  20
ATOM     18  C   UNL     1      47.048   4.209  14.678  0.00  0.00    +0.000 C 
ATOM     19  O   UNL     1      47.329   3.124  14.174  0.00  0.00    +0.000 OA
ATOM     20  N   UNL     1      47.005   4.373  16.037  0.00  0.00    +0.000 N 
ATOM     21  H   UNL     1      46.883   5.297  16.428  0.00  0.00    +0.000 HD
BRANCH  18  29
ATOM     22  C   UNL     1      44.355   5.035  12.699  0.00  0.00    +0.000 A 
ATOM     23  N   UNL     1      43.479   5.570  11.825  0.00  0.00    +0.000 NA
ATOM     24  C   UNL     1      43.792   6.735  11.255  0.00  0.00    +0.000 A 
ATOM     25  N   UNL     1      44.889   7.457  11.460  0.00  0.00    +0.000 NA
ATOM     26  C   UNL     1      45.734   6.891  12.337  0.00  0.00    +0.000 A 
ATOM     27  S   UNL     1      47.185   7.682  12.734  0.00  0.00    +0.000 S 
ATOM     28  C   UNL     1      47.644   6.424  13.778  0.00  0.00    +0.000 A 
ATOM     29  C   UNL     1      46.724   5.384  13.848  0.00  0.00    +0.000 A 
ATOM     30  C   UNL     1      45.567   5.681  13.004  0.00  0.00    +0.000 A 
BRANCH  22  32
ATOM     31  C   UNL     1      43.649   2.820  12.445  0.00  0.00    +0.000 C 
ATOM     32  O   UNL     1      43.990   3.872  13.344  0.00  0.00    +0.000 OA
ENDBRANCH  22  32
ENDBRANCH  18  29
ENDBRANCH   1  20
TORSDOF 8
ENDMDL
MODEL 6
REMARK VINA RESULT:    -6.454      4.030      9.098
REMARK INTER + INTRA:         -10.677
REMARK INTER:                  -8.811
REMARK INTRA:                  -1.866
REMARK UNBOUND:                -1.204
REMARK  Name = 
REMARK  9 active torsions:
REMARK  status: ('A' for Active; 'I' for Inactive)
REMARK    1  A    between atoms: C_1  and  O_2
REMARK    2  A    between atoms: O_2  and  C_3
REMARK    3  A    between atoms: C_10  and  C_11
REMARK    4  A    between atoms: N_13  and  C_14
REMARK    5  A    between atoms: C_14  and  C_15
REMARK    6  A    between atoms: C_18  and  C_19
REMARK    7  A    between atoms: C_19  and  O_20
REMARK    8  A    between atoms: O_20  and  C_21
REMARK    9  A    between atoms: C_21  and  C_22
REMARK                            x       y       z     vdW  Elec       q    Type
REMARK                         _______ _______ _______ _____ _____    ______ ____
ROOT
ATOM      1  C   UNL     1      47.509   3.293  16.516  0.00  0.00    +0.000 C 
ENDROOT
BRANCH   1   2
ATOM      2  C   UNL     1      48.447   3.825  17.574  0.00  0.00    +0.000 A 
ATOM      3  C   UNL     1      47.971   4.621  18.625  0.00  0.00    +0.000 A 
ATOM      4  C   UNL     1      48.843   5.100  19.611  0.00  0.00    +0.000 A 
ATOM      5  C   UNL     1      50.210   4.803  19.563  0.00  0.00    +0.000 A 
ATOM      6  C   UNL     1      50.690   4.031  18.494  0.00  0.00    +0.000 A 
ATOM      7  C   UNL     1      49.819   3.555  17.509  0.00  0.00    +0.000 A 
BRANCH   5   8
ATOM      8  C   UNL     1      51.154   5.317  20.625  0.00  0.00    +0.000 C 
BRANCH   8   9
ATOM      9  O   UNL     1      52.168   6.109  20.012  0.00  0.00    +0.000 OA
BRANCH   9  10
ATOM     10  C   UNL     1      51.687   7.407  19.659  0.00  0.00    +0.000 C 
BRANCH  10  11
ATOM     11  C   UNL     1      51.379   7.473  18.180  0.00  0.00    +0.000 A 
ATOM     12  C   UNL     1      52.311   7.032  17.222  0.00  0.00    +0.000 A 
ATOM     13  C   UNL     1      52.001   7.058  15.863  0.00  0.00    +0.000 A 
ATOM     14  C   UNL     1      50.755   7.516  15.452  0.00  0.00    +0.000 A 
ATOM     15  F   UNL     1      50.456   7.536  14.147  0.00  0.00    +0.000 F 
ATOM     16  C   UNL     1      49.813   7.947  16.377  0.00  0.00    +0.000 A 
ATOM     17  C   UNL     1      50.122   7.923  17.741  0.00  0.00    +0.000 A 
ENDBRANCH  10  11
ENDBRANCH   9  10
ENDBRANCH   8   9
ENDBRANCH   5   8
ENDBRANCH   1   2
BRANCH   1  20
ATOM     18  C   UNL     1      46.952   4.278  14.326  0.00  0.00    +0.000 C 
ATOM     19  O   UNL     1      47.363   3.285  13.730  0.00  0.00    +0.000 OA
ATOM     20  N   UNL     1      46.996   4.358  15.692  0.00  0.00    +0.000 N 
ATOM     21  H   UNL     1      46.759   5.225  16.153  0.00  0.00    +0.000 HD
BRANCH  18  29
ATOM     22  C   UNL     1      44.090   4.704  12.462  0.00  0.00    +0.000 A 
ATOM     23  N   UNL     1      43.098   5.120  11.648  0.00  0.00    +0.000 NA
ATOM     24  C   UNL     1      43.156   6.366  11.175  0.00  0.00    +0.000 A 
ATOM     25  N   UNL     1      44.093   7.276  11.426  0.00  0.00    +0.000 NA
ATOM     26  C   UNL     1      45.060   6.821  12.240  0.00  0.00    +0.000 A 
ATOM     27  S   UNL     1      46.336   7.853  12.682  0.00  0.00    +0.000 S 
ATOM     28  C   UNL     1      47.068   6.633  13.610  0.00  0.00    +0.000 A 
ATOM     29  C   UNL     1      46.376   5.427  13.603  0.00  0.00    +0.000 A 
ATOM     30  C   UNL     1      45.157   5.553  12.804  0.00  0.00    +0.000 A 
BRANCH  22  32
ATOM     31  C   UNL     1      43.476   2.477  12.093  0.00  0.00    +0.000 C 
ATOM     32  O   UNL     1      43.983   3.443  13.011  0.00  0.00    +0.000 OA
ENDBRANCH  22  32
ENDBRANCH  18  29
ENDBRANCH   1  20
TORSDOF 8
ENDMDL
MODEL 7
REMARK VINA RESULT:    -6.424      4.458      9.193
REMARK INTER + INTRA:         -10.632
REMARK INTER:                  -8.216
REMARK INTRA:                  -2.416
REMARK UNBOUND:                -1.204
REMARK  Name = 
REMARK  9 active torsions:
REMARK  status: ('A' for Active; 'I' for Inactive)
REMARK    1  A    between atoms: C_1  and  O_2
REMARK    2  A    between atoms: O_2  and  C_3
REMARK    3  A    between atoms: C_10  and  C_11
REMARK    4  A    between atoms: N_13  and  C_14
REMARK    5  A    between atoms: C_14  and  C_15
REMARK    6  A    between atoms: C_18  and  C_19
REMARK    7  A    between atoms: C_19  and  O_20
REMARK    8  A    between atoms: O_20  and  C_21
REMARK    9  A    between atoms: C_21  and  C_22
REMARK                            x       y       z     vdW  Elec       q    Type
REMARK                         _______ _______ _______ _____ _____    ______ ____
ROOT
ATOM      1  C   UNL     1      47.555   3.803  16.197  0.00  0.00    +0.000 C 
ENDROOT
BRANCH   1   2
ATOM      2  C   UNL     1      47.984   4.614  17.396  0.00  0.00    +0.000 A 
ATOM      3  C   UNL     1      49.341   4.844  17.663  0.00  0.00    +0.000 A 
ATOM      4  C   UNL     1      49.734   5.608  18.770  0.00  0.00    +0.000 A 
ATOM      5  C   UNL     1      48.779   6.151  19.639  0.00  0.00    +0.000 A 
ATOM      6  C   UNL     1      47.423   5.896  19.387  0.00  0.00    +0.000 A 
ATOM      7  C   UNL     1      47.032   5.131  18.284  0.00  0.00    +0.000 A 
BRANCH   5   8
ATOM      8  C   UNL     1      49.197   6.977  20.833  0.00  0.00    +0.000 C 
BRANCH   8   9
ATOM      9  O   UNL     1      50.027   8.051  20.397  0.00  0.00    +0.000 OA
BRANCH   9  10
ATOM     10  C   UNL     1      49.263   9.208  20.055  0.00  0.00    +0.000 C 
BRANCH  10  11
ATOM     11  C   UNL     1      49.241   9.405  18.556  0.00  0.00    +0.000 A 
ATOM     12  C   UNL     1      48.045   9.290  17.825  0.00  0.00    +0.000 A 
ATOM     13  C   UNL     1      48.028   9.516  16.448  0.00  0.00    +0.000 A 
ATOM     14  C   UNL     1      49.204   9.868  15.797  0.00  0.00    +0.000 A 
ATOM     15  F   UNL     1      49.186  10.089  14.476  0.00  0.00    +0.000 F 
ATOM     16  C   UNL     1      50.395   9.999  16.497  0.00  0.00    +0.000 A 
ATOM     17  C   UNL     1      50.415   9.772  17.877  0.00  0.00    +0.000 A 
ENDBRANCH  10  11
ENDBRANCH   9  10
ENDBRANCH   8   9
ENDBRANCH   5   8
ENDBRANCH   1   2
BRANCH   1  20
ATOM     18  C   UNL     1      46.515   4.179  13.993  0.00  0.00    +0.000 C 
ATOM     19  O   UNL     1      46.853   3.065  13.599  0.00  0.00    +0.000 OA
ATOM     20  N   UNL     1      46.828   4.614  15.253  0.00  0.00    +0.000 N 
ATOM     21  H   UNL     1      46.640   5.572  15.515  0.00  0.00    +0.000 HD
BRANCH  18  29
ATOM     22  C   UNL     1      46.835   7.516  13.212  0.00  0.00    +0.000 A 
ATOM     23  N   UNL     1      46.689   8.791  12.799  0.00  0.00    +0.000 NA
ATOM     24  C   UNL     1      45.638   9.087  12.033  0.00  0.00    +0.000 A 
ATOM     25  N   UNL     1      44.697   8.249  11.608  0.00  0.00    +0.000 NA
ATOM     26  C   UNL     1      44.880   6.992  12.040  0.00  0.00    +0.000 A 
ATOM     27  S   UNL     1      43.780   5.780  11.581  0.00  0.00    +0.000 S 
ATOM     28  C   UNL     1      44.623   4.606  12.473  0.00  0.00    +0.000 A 
ATOM     29  C   UNL     1      45.742   5.097  13.137  0.00  0.00    +0.000 A 
ATOM     30  C   UNL     1      45.908   6.522  12.852  0.00  0.00    +0.000 A 
BRANCH  22  32
ATOM     31  C   UNL     1      49.116   7.007  13.117  0.00  0.00    +0.000 C 
ATOM     32  O   UNL     1      47.966   7.201  13.936  0.00  0.00    +0.000 OA
ENDBRANCH  22  32
ENDBRANCH  18  29
ENDBRANCH   1  20
TORSDOF 8
ENDMDL
MODEL 8
REMARK VINA RESULT:    -6.223      2.995      3.461
REMARK INTER + INTRA:         -10.338
REMARK INTER:                  -9.117
REMARK INTRA:                  -1.221
REMARK UNBOUND:                -1.204
REMARK  Name = 
REMARK  9 active torsions:
REMARK  status: ('A' for Active; 'I' for Inactive)
REMARK    1  A    between atoms: C_1  and  O_2
REMARK    2  A    between atoms: O_2  and  C_3
REMARK    3  A    between atoms: C_10  and  C_11
REMARK    4  A    between atoms: N_13  and  C_14
REMARK    5  A    between atoms: C_14  and  C_15
REMARK    6  A    between atoms: C_18  and  C_19
REMARK    7  A    between atoms: C_19  and  O_20
REMARK    8  A    between atoms: O_20  and  C_21
REMARK    9  A    between atoms: C_21  and  C_22
REMARK                            x       y       z     vdW  Elec       q    Type
REMARK                         _______ _______ _______ _____ _____    ______ ____
ROOT
ATOM      1  C   UNL     1      48.189   5.425  16.209  0.00  0.00    +0.000 C 
ENDROOT
BRANCH   1   2
ATOM      2  C   UNL     1      47.522   5.460  14.856  0.00  0.00    +0.000 A 
ATOM      3  C   UNL     1      47.683   6.560  14.002  0.00  0.00    +0.000 A 
ATOM      4  C   UNL     1      47.073   6.583  12.740  0.00  0.00    +0.000 A 
ATOM      5  C   UNL     1      46.281   5.511  12.309  0.00  0.00    +0.000 A 
ATOM      6  C   UNL     1      46.096   4.424  13.177  0.00  0.00    +0.000 A 
ATOM      7  C   UNL     1      46.704   4.404  14.437  0.00  0.00    +0.000 A 
BRANCH   5   8
ATOM      8  C   UNL     1      45.622   5.530  10.950  0.00  0.00    +0.000 C 
BRANCH   8   9
ATOM      9  O   UNL     1      44.652   4.489  10.881  0.00  0.00    +0.000 OA
BRANCH   9  10
ATOM     10  C   UNL     1      44.188   4.282   9.547  0.00  0.00    +0.000 C 
BRANCH  10  11
ATOM     11  C   UNL     1      45.181   3.456   8.762  0.00  0.00    +0.000 A 
ATOM     12  C   UNL     1      45.294   2.068   8.964  0.00  0.00    +0.000 A 
ATOM     13  C   UNL     1      46.183   1.308   8.205  0.00  0.00    +0.000 A 
ATOM     14  C   UNL     1      46.958   1.928   7.232  0.00  0.00    +0.000 A 
ATOM     15  F   UNL     1      47.809   1.197   6.500  0.00  0.00    +0.000 F 
ATOM     16  C   UNL     1      46.858   3.294   7.005  0.00  0.00    +0.000 A 
ATOM     17  C   UNL     1      45.967   4.059   7.766  0.00  0.00    +0.000 A 
ENDBRANCH  10  11
ENDBRANCH   9  10
ENDBRANCH   8   9
ENDBRANCH   5   8
ENDBRANCH   1   2
BRANCH   1  20
ATOM     18  C   UNL     1      49.800   7.154  16.912  0.00  0.00    +0.000 C 
ATOM     19  O   UNL     1      48.974   7.679  17.655  0.00  0.00    +0.000 OA
ATOM     20  N   UNL     1      49.488   6.048  16.167  0.00  0.00    +0.000 N 
ATOM     21  H   UNL     1      50.144   5.703  15.481  0.00  0.00    +0.000 HD
BRANCH  18  29
ATOM     22  C   UNL     1      52.909   5.698  17.160  0.00  0.00    +0.000 A 
ATOM     23  N   UNL     1      54.221   5.405  17.270  0.00  0.00    +0.000 NA
ATOM     24  C   UNL     1      55.099   6.403  17.153  0.00  0.00    +0.000 A 
ATOM     25  N   UNL     1      54.829   7.685  16.924  0.00  0.00    +0.000 NA
ATOM     26  C   UNL     1      53.513   7.932  16.820  0.00  0.00    +0.000 A 
ATOM     27  S   UNL     1      52.981   9.517  16.512  0.00  0.00    +0.000 S 
ATOM     28  C   UNL     1      51.354   9.032  16.548  0.00  0.00    +0.000 A 
ATOM     29  C   UNL     1      51.175   7.676  16.797  0.00  0.00    +0.000 A 
ATOM     30  C   UNL     1      52.473   7.015  16.931  0.00  0.00    +0.000 A 
BRANCH  22  32
ATOM     31  C   UNL     1      51.679   4.255  18.530  0.00  0.00    +0.000 C 
ATOM     32  O   UNL     1      52.012   4.651  17.202  0.00  0.00    +0.000 OA
ENDBRANCH  22  32
ENDBRANCH  18  29
ENDBRANCH   1  20
TORSDOF 8
ENDMDL
MODEL 9
REMARK VINA RESULT:    -5.989      5.586      8.368
REMARK INTER + INTRA:          -9.995
REMARK INTER:                  -9.178
REMARK INTRA:                  -0.817
REMARK UNBOUND:                -1.204
REMARK  Name = 
REMARK  9 active torsions:
REMARK  status: ('A' for Active; 'I' for Inactive)
REMARK    1  A    between atoms: C_1  and  O_2
REMARK    2  A    between atoms: O_2  and  C_3
REMARK    3  A    between atoms: C_10  and  C_11
REMARK    4  A    between atoms: N_13  and  C_14
REMARK    5  A    between atoms: C_14  and  C_15
REMARK    6  A    between atoms: C_18  and  C_19
REMARK    7  A    between atoms: C_19  and  O_20
REMARK    8  A    between atoms: O_20  and  C_21
REMARK    9  A    between atoms: C_21  and  C_22
REMARK                            x       y       z     vdW  Elec       q    Type
REMARK                         _______ _______ _______ _____ _____    ______ ____
ROOT
ATOM      1  C   UNL     1      52.748   2.561  18.232  0.00  0.00    +0.000 C 
ENDROOT
BRANCH   1   2
ATOM      2  C   UNL     1      51.342   2.845  17.759  0.00  0.00    +0.000 A 
ATOM      3  C   UNL     1      50.740   4.089  17.994  0.00  0.00    +0.000 A 
ATOM      4  C   UNL     1      49.441   4.353  17.541  0.00  0.00    +0.000 A 
ATOM      5  C   UNL     1      48.711   3.376  16.852  0.00  0.00    +0.000 A 
ATOM      6  C   UNL     1      49.304   2.122  16.643  0.00  0.00    +0.000 A 
ATOM      7  C   UNL     1      50.600   1.859  17.098  0.00  0.00    +0.000 A 
BRANCH   5   8
ATOM      8  C   UNL     1      47.310   3.655  16.361  0.00  0.00    +0.000 C 
BRANCH   8   9
ATOM      9  O   UNL     1      47.288   3.596  14.937  0.00  0.00    +0.000 OA
BRANCH   9  10
ATOM     10  C   UNL     1      47.122   4.888  14.353  0.00  0.00    +0.000 C 
BRANCH  10  11
ATOM     11  C   UNL     1      46.312   4.794  13.080  0.00  0.00    +0.000 A 
ATOM     12  C   UNL     1      46.247   5.872  12.178  0.00  0.00    +0.000 A 
ATOM     13  C   UNL     1      45.532   5.760  10.986  0.00  0.00    +0.000 A 
ATOM     14  C   UNL     1      44.886   4.567  10.683  0.00  0.00    +0.000 A 
ATOM     15  F   UNL     1      44.204   4.458   9.535  0.00  0.00    +0.000 F 
ATOM     16  C   UNL     1      44.944   3.485  11.550  0.00  0.00    +0.000 A 
ATOM     17  C   UNL     1      45.660   3.595  12.747  0.00  0.00    +0.000 A 
ENDBRANCH  10  11
ENDBRANCH   9  10
ENDBRANCH   8   9
ENDBRANCH   5   8
ENDBRANCH   1   2
BRANCH   1  20
ATOM     18  C   UNL     1      54.111   0.508  18.319  0.00  0.00    +0.000 C 
ATOM     19  O   UNL     1      54.494   0.764  19.458  0.00  0.00    +0.000 OA
ATOM     20  N   UNL     1      53.257   1.345  17.650  0.00  0.00    +0.000 N 
ATOM     21  H   UNL     1      53.045   1.174  16.677  0.00  0.00    +0.000 HD
BRANCH  18  29
ATOM     22  C   UNL     1      54.119  -2.823  19.186  0.00  0.00    +0.000 A 
ATOM     23  N   UNL     1      54.295  -4.156  19.290  0.00  0.00    +0.000 NA
ATOM     24  C   UNL     1      54.875  -4.794  18.272  0.00  0.00    +0.000 A 
ATOM     25  N   UNL     1      55.302  -4.260  17.132  0.00  0.00    +0.000 NA
ATOM     26  C   UNL     1      55.108  -2.933  17.069  0.00  0.00    +0.000 A 
ATOM     27  S   UNL     1      55.581  -2.082  15.675  0.00  0.00    +0.000 S 
ATOM     28  C   UNL     1      55.065  -0.607  16.340  0.00  0.00    +0.000 A 
ATOM     29  C   UNL     1      54.534  -0.719  17.620  0.00  0.00    +0.000 A 
ATOM     30  C   UNL     1      54.536  -2.120  18.042  0.00  0.00    +0.000 A 
BRANCH  22  32
ATOM     31  C   UNL     1      52.657  -3.068  20.995  0.00  0.00    +0.000 C 
ATOM     32  O   UNL     1      53.447  -2.182  20.207  0.00  0.00    +0.000 OA
ENDBRANCH  22  32
ENDBRANCH  18  29
ENDBRANCH   1  20
TORSDOF 8
ENDMDL
