MODEL 1
REMARK VINA RESULT:    -7.726      0.000      0.000
REMARK INTER + INTRA:         -13.927
REMARK INTER:                 -12.243
REMARK INTRA:                  -1.683
REMARK UNBOUND:                -1.683
REMARK  Name = 
REMARK  11 active torsions:
REMARK  status: ('A' for Active; 'I' for Inactive)
REMARK    1  A    between atoms: C_1  and  O_2
REMARK    2  A    between atoms: O_2  and  C_3
REMARK    3  A    between atoms: C_3  and  C_4
REMARK    4  A    between atoms: C_4  and  N_5
REMARK    5  A    between atoms: N_5  and  C_6
REMARK    6  A    between atoms: N_5  and  C_13
REMARK    7  A    between atoms: C_6  and  C_7
REMARK    8  A    between atoms: C_13  and  C_14
REMARK    9  A    between atoms: C_17  and  C_18
REMARK   10  A    between atoms: C_18  and  N_19
REMARK   11  A    between atoms: C_20  and  C_22
REMARK                            x       y       z     vdW  Elec       q    Type
REMARK                         _______ _______ _______ _____ _____    ______ ____
ROOT
ATOM      1  C   UNL     1      45.287   6.644  11.160  0.00  0.00    +0.000 A 
ATOM      2  C   UNL     1      46.625   6.271  11.247  0.00  0.00    +0.000 A 
ATOM      3  C   UNL     1      47.441   6.903  12.186  0.00  0.00    +0.000 A 
ATOM      4  C   UNL     1      46.918   7.913  12.999  0.00  0.00    +0.000 A 
ATOM      5  C   UNL     1      45.573   8.224  12.830  0.00  0.00    +0.000 A 
ATOM      6  N   UNL     1      44.757   7.624  11.933  0.00  0.00    +0.000 NA
ENDROOT
BRANCH   1   7
ATOM      7  C   UNL     1      44.329   5.890  10.249  0.00  0.00    +0.000 C 
BRANCH   7   8
ATOM      8  N   UNL     1      44.648   4.455  10.098  0.00  0.00    +0.000 NA
BRANCH   8   9
ATOM      9  C   UNL     1      43.880   3.624  11.054  0.00  0.00    +0.000 C 
BRANCH   9  10
ATOM     10  C   UNL     1      44.695   3.219  12.293  0.00  0.00    +0.000 C 
BRANCH  10  12
ATOM     11  C   UNL     1      43.040   4.567  13.240  0.00  0.00    +0.000 C 
ATOM     12  O   UNL     1      44.325   3.985  13.444  0.00  0.00    +0.000 OA
ENDBRANCH  10  12
ENDBRANCH   9  10
ENDBRANCH   8   9
BRANCH   8  13
ATOM     13  C   UNL     1      44.506   4.014   8.694  0.00  0.00    +0.000 C 
BRANCH  13  14
ATOM     14  C   UNL     1      45.628   3.199   8.068  0.00  0.00    +0.000 A 
ATOM     15  C   UNL     1      45.825   1.870   8.442  0.00  0.00    +0.000 A 
ATOM     16  C   UNL     1      46.749   1.101   7.742  0.00  0.00    +0.000 A 
ATOM     17  C   UNL     1      47.466   1.677   6.702  0.00  0.00    +0.000 A 
ATOM     18  C   UNL     1      47.249   3.016   6.423  0.00  0.00    +0.000 A 
ATOM     19  N   UNL     1      46.349   3.785   7.077  0.00  0.00    +0.000 NA
ENDBRANCH  13  14
ENDBRANCH   8  13
ENDBRANCH   7   8
ENDBRANCH   1   7
BRANCH   4  20
ATOM     20  C   UNL     1      47.744   8.604  14.044  0.00  0.00    +0.000 C 
BRANCH  20  21
ATOM     21  N   UNL     1      48.019   7.722  15.159  0.00  0.00    +0.000 N 
ATOM     22  C   UNL     1      49.189   7.024  15.279  0.00  0.00    +0.000 C 
ATOM     23  O   UNL     1      50.107   7.135  14.473  0.00  0.00    +0.000 OA
ATOM     24  H   UNL     1      47.206   7.410  15.683  0.00  0.00    +0.000 HD
BRANCH  22  25
ATOM     25  C   UNL     1      49.314   6.191  16.484  0.00  0.00    +0.000 A 
ATOM     26  C   UNL     1      50.267   6.485  17.450  0.00  0.00    +0.000 A 
ATOM     27  S   UNL     1      50.186   5.468  18.817  0.00  0.00    +0.000 S 
ATOM     28  C   UNL     1      48.921   4.554  18.138  0.00  0.00    +0.000 A 
ATOM     29  N   UNL     1      48.383   3.494  18.799  0.00  0.00    +0.000 NA
ATOM     30  C   UNL     1      47.449   2.881  18.151  0.00  0.00    +0.000 A 
ATOM     31  N   UNL     1      47.008   3.226  16.900  0.00  0.00    +0.000 N 
ATOM     32  C   UNL     1      47.520   4.290  16.201  0.00  0.00    +0.000 A 
ATOM     33  O   UNL     1      47.078   4.588  15.096  0.00  0.00    +0.000 OA
ATOM     34  C   UNL     1      48.559   5.029  16.892  0.00  0.00    +0.000 A 
ATOM     35  H   UNL     1      46.268   2.709  16.449  0.00  0.00    +0.000 HD
ENDBRANCH  22  25
ENDBRANCH  20  21
ENDBRANCH   4  20
TORSDOF 10
ENDMDL
MODEL 2
REMARK VINA RESULT:    -7.325      1.803      2.358
REMARK INTER + INTRA:         -13.291
REMARK INTER:                 -11.914
REMARK INTRA:                  -1.377
REMARK UNBOUND:                -1.683
REMARK  Name = 
REMARK  11 active torsions:
REMARK  status: ('A' for Active; 'I' for Inactive)
REMARK    1  A    between atoms: C_1  and  O_2
REMARK    2  A    between atoms: O_2  and  C_3
REMARK    3  A    between atoms: C_3  and  C_4
REMARK    4  A    between atoms: C_4  and  N_5
REMARK    5  A    between atoms: N_5  and  C_6
REMARK    6  A    between atoms: N_5  and  C_13
REMARK    7  A    between atoms: C_6  and  C_7
REMARK    8  A    between atoms: C_13  and  C_14
REMARK    9  A    between atoms: C_17  and  C_18
REMARK   10  A    between atoms: C_18  and  N_19
REMARK   11  A    between atoms: C_20  and  C_22
REMARK                            x       y       z     vdW  Elec       q    Type
REMARK                         _______ _______ _______ _____ _____    ______ ____
ROOT
ATOM      1  C   UNL     1      45.375   6.166  11.103  0.00  0.00    +0.000 A 
ATOM      2  C   UNL     1      44.614   7.045  11.869  0.00  0.00    +0.000 A 
ATOM      3  C   UNL     1      45.265   8.038  12.603  0.00  0.00    +0.000 A 
ATOM      4  C   UNL     1      46.661   8.118  12.584  0.00  0.00    +0.000 A 
ATOM      5  C   UNL     1      47.334   7.189  11.799  0.00  0.00    +0.000 A 
ATOM      6  N   UNL     1      46.730   6.219  11.072  0.00  0.00    +0.000 NA
ENDROOT
BRANCH   1   7
ATOM      7  C   UNL     1      44.704   5.158  10.182  0.00  0.00    +0.000 C 
BRANCH   7   8
ATOM      8  N   UNL     1      45.044   3.752  10.480  0.00  0.00    +0.000 NA
BRANCH   8   9
ATOM      9  C   UNL     1      44.591   3.358  11.835  0.00  0.00    +0.000 C 
BRANCH   9  10
ATOM     10  C   UNL     1      45.745   3.206  12.838  0.00  0.00    +0.000 C 
BRANCH  10  12
ATOM     11  C   UNL     1      46.935   4.556  14.325  0.00  0.00    +0.000 C 
ATOM     12  O   UNL     1      45.635   4.138  13.920  0.00  0.00    +0.000 OA
ENDBRANCH  10  12
ENDBRANCH   9  10
ENDBRANCH   8   9
BRANCH   8  13
ATOM     13  C   UNL     1      44.569   2.841   9.417  0.00  0.00    +0.000 C 
BRANCH  13  14
ATOM     14  C   UNL     1      45.536   2.439   8.314  0.00  0.00    +0.000 A 
ATOM     15  C   UNL     1      45.934   3.368   7.354  0.00  0.00    +0.000 A 
ATOM     16  C   UNL     1      46.940   3.025   6.456  0.00  0.00    +0.000 A 
ATOM     17  C   UNL     1      47.509   1.760   6.524  0.00  0.00    +0.000 A 
ATOM     18  C   UNL     1      47.026   0.877   7.474  0.00  0.00    +0.000 A 
ATOM     19  N   UNL     1      46.060   1.187   8.369  0.00  0.00    +0.000 NA
ENDBRANCH  13  14
ENDBRANCH   8  13
ENDBRANCH   7   8
ENDBRANCH   1   7
BRANCH   4  20
ATOM     20  C   UNL     1      47.408   9.183  13.331  0.00  0.00    +0.000 C 
BRANCH  20  21
ATOM     21  N   UNL     1      47.443   8.900  14.750  0.00  0.00    +0.000 N 
ATOM     22  C   UNL     1      48.610   8.781  15.452  0.00  0.00    +0.000 C 
ATOM     23  O   UNL     1      49.710   8.952  14.935  0.00  0.00    +0.000 OA
ATOM     24  H   UNL     1      46.594   8.499  15.139  0.00  0.00    +0.000 HD
BRANCH  22  25
ATOM     25  C   UNL     1      48.465   8.513  16.890  0.00  0.00    +0.000 A 
ATOM     26  C   UNL     1      47.987   9.495  17.747  0.00  0.00    +0.000 A 
ATOM     27  S   UNL     1      47.793   8.961  19.355  0.00  0.00    +0.000 S 
ATOM     28  C   UNL     1      48.407   7.418  18.981  0.00  0.00    +0.000 A 
ATOM     29  N   UNL     1      48.529   6.456  19.934  0.00  0.00    +0.000 NA
ATOM     30  C   UNL     1      49.033   5.345  19.510  0.00  0.00    +0.000 A 
ATOM     31  N   UNL     1      49.431   5.110  18.220  0.00  0.00    +0.000 N 
ATOM     32  C   UNL     1      49.322   6.049  17.226  0.00  0.00    +0.000 A 
ATOM     33  O   UNL     1      49.661   5.792  16.076  0.00  0.00    +0.000 OA
ATOM     34  C   UNL     1      48.742   7.311  17.643  0.00  0.00    +0.000 A 
ATOM     35  H   UNL     1      49.813   4.215  17.949  0.00  0.00    +0.000 HD
ENDBRANCH  22  25
ENDBRANCH  20  21
ENDBRANCH   4  20
TORSDOF 10
ENDMDL
MODEL 3
REMARK VINA RESULT:    -6.688      2.993      3.842
REMARK INTER + INTRA:         -12.281
REMARK INTER:                 -11.102
REMARK INTRA:                  -1.178
REMARK UNBOUND:                -1.683
REMARK  Name = 
REMARK  11 active torsions:
REMARK  status: ('A' for Active; 'I' for Inactive)
REMARK    1  A    between atoms: C_1  and  O_2
REMARK    2  A    between atoms: O_2  and  C_3
REMARK    3  A    between atoms: C_3  and  C_4
REMARK    4  A    between atoms: C_4  and  N_5
REMARK    5  A    between atoms: N_5  and  C_6
REMARK    6  A    between atoms: N_5  and  C_13
REMARK    7  A    between atoms: C_6  and  C_7
REMARK    8  A    between atoms: C_13  and  C_14
REMARK    9  A    between atoms: C_17  and  C_18
REMARK   10  A    between atoms: C_18  and  N_19
REMARK   11  A    between atoms: C_20  and  C_22
REMARK                            x       y       z     vdW  Elec       q    Type
REMARK                         _______ _______ _______ _____ _____    ______ ____
ROOT
ATOM      1  C   UNL     1      47.053   5.935  12.995  0.00  0.00    +0.000 A 
ATOM      2  C   UNL     1      47.873   6.736  13.786  0.00  0.00    +0.000 A 
ATOM      3  C   UNL     1      48.186   6.311  15.077  0.00  0.00    +0.000 A 
ATOM      4  C   UNL     1      47.654   5.114  15.567  0.00  0.00    +0.000 A 
ATOM      5  C   UNL     1      46.837   4.389  14.707  0.00  0.00    +0.000 A 
ATOM      6  N   UNL     1      46.521   4.773  13.447  0.00  0.00    +0.000 NA
ENDROOT
BRANCH   1   7
ATOM      7  C   UNL     1      46.797   6.289  11.537  0.00  0.00    +0.000 C 
BRANCH   7   8
ATOM      8  N   UNL     1      45.558   5.702  10.985  0.00  0.00    +0.000 NA
BRANCH   8   9
ATOM      9  C   UNL     1      44.355   6.420  11.466  0.00  0.00    +0.000 C 
BRANCH   9  10
ATOM     10  C   UNL     1      43.068   5.588  11.351  0.00  0.00    +0.000 C 
BRANCH  10  12
ATOM     11  C   UNL     1      43.356   3.714  12.713  0.00  0.00    +0.000 C 
ATOM     12  O   UNL     1      42.715   4.981  12.599  0.00  0.00    +0.000 OA
ENDBRANCH  10  12
ENDBRANCH   9  10
ENDBRANCH   8   9
BRANCH   8  13
ATOM     13  C   UNL     1      45.622   5.588   9.512  0.00  0.00    +0.000 C 
BRANCH  13  14
ATOM     14  C   UNL     1      45.694   4.202   8.890  0.00  0.00    +0.000 A 
ATOM     15  C   UNL     1      46.458   3.984   7.744  0.00  0.00    +0.000 A 
ATOM     16  C   UNL     1      46.639   2.682   7.289  0.00  0.00    +0.000 A 
ATOM     17  C   UNL     1      46.040   1.633   7.974  0.00  0.00    +0.000 A 
ATOM     18  C   UNL     1      45.257   1.935   9.075  0.00  0.00    +0.000 A 
ATOM     19  N   UNL     1      45.074   3.188   9.548  0.00  0.00    +0.000 NA
ENDBRANCH  13  14
ENDBRANCH   8  13
ENDBRANCH   7   8
ENDBRANCH   1   7
BRANCH   4  20
ATOM     20  C   UNL     1      47.983   4.597  16.937  0.00  0.00    +0.000 C 
BRANCH  20  21
ATOM     21  N   UNL     1      49.391   4.285  17.054  0.00  0.00    +0.000 N 
ATOM     22  C   UNL     1      50.066   4.346  18.241  0.00  0.00    +0.000 C 
ATOM     23  O   UNL     1      49.512   4.624  19.300  0.00  0.00    +0.000 OA
ATOM     24  H   UNL     1      49.921   4.313  16.187  0.00  0.00    +0.000 HD
BRANCH  22  25
ATOM     25  C   UNL     1      51.488   3.976  18.187  0.00  0.00    +0.000 A 
ATOM     26  C   UNL     1      52.471   4.900  18.516  0.00  0.00    +0.000 A 
ATOM     27  S   UNL     1      54.049   4.252  18.492  0.00  0.00    +0.000 S 
ATOM     28  C   UNL     1      53.483   2.733  17.974  0.00  0.00    +0.000 A 
ATOM     29  N   UNL     1      54.340   1.702  17.740  0.00  0.00    +0.000 NA
ATOM     30  C   UNL     1      53.770   0.619  17.328  0.00  0.00    +0.000 A 
ATOM     31  N   UNL     1      52.423   0.473  17.122  0.00  0.00    +0.000 N 
ATOM     32  C   UNL     1      51.524   1.484  17.349  0.00  0.00    +0.000 A 
ATOM     33  O   UNL     1      50.322   1.306  17.183  0.00  0.00    +0.000 OA
ATOM     34  C   UNL     1      52.107   2.719  17.835  0.00  0.00    +0.000 A 
ATOM     35  H   UNL     1      52.038  -0.405  16.804  0.00  0.00    +0.000 HD
ENDBRANCH  22  25
ENDBRANCH  20  21
ENDBRANCH   4  20
TORSDOF 10
ENDMDL
MODEL 4
REMARK VINA RESULT:    -6.564      2.170      2.814
REMARK INTER + INTRA:         -12.084
REMARK INTER:                 -10.975
REMARK INTRA:                  -1.110
REMARK UNBOUND:                -1.683
REMARK  Name = 
REMARK  11 active torsions:
REMARK  status: ('A' for Active; 'I' for Inactive)
REMARK    1  A    between atoms: C_1  and  O_2
REMARK    2  A    between atoms: O_2  and  C_3
REMARK    3  A    between atoms: C_3  and  C_4
REMARK    4  A    between atoms: C_4  and  N_5
REMARK    5  A    between atoms: N_5  and  C_6
REMARK    6  A    between atoms: N_5  and  C_13
REMARK    7  A    between atoms: C_6  and  C_7
REMARK    8  A    between atoms: C_13  and  C_14
REMARK    9  A    between atoms: C_17  and  C_18
REMARK   10  A    between atoms: C_18  and  N_19
REMARK   11  A    between atoms: C_20  and  C_22
REMARK                            x       y       z     vdW  Elec       q    Type
REMARK                         _______ _______ _______ _____ _____    ______ ____
ROOT
ATOM      1  C   UNL     1      46.077   6.115  11.316  0.00  0.00    +0.000 A 
ATOM      2  C   UNL     1      46.208   7.467  11.621  0.00  0.00    +0.000 A 
ATOM      3  C   UNL     1      46.833   7.831  12.814  0.00  0.00    +0.000 A 
ATOM      4  C   UNL     1      47.289   6.844  13.693  0.00  0.00    +0.000 A 
ATOM      5  C   UNL     1      47.103   5.521  13.306  0.00  0.00    +0.000 A 
ATOM      6  N   UNL     1      46.506   5.138  12.153  0.00  0.00    +0.000 NA
ENDROOT
BRANCH   1   7
ATOM      7  C   UNL     1      45.528   5.673   9.968  0.00  0.00    +0.000 C 
BRANCH   7   8
ATOM      8  N   UNL     1      44.817   4.378  10.003  0.00  0.00    +0.000 NA
BRANCH   8   9
ATOM      9  C   UNL     1      43.590   4.453  10.829  0.00  0.00    +0.000 C 
BRANCH   9  10
ATOM     10  C   UNL     1      43.399   3.231  11.741  0.00  0.00    +0.000 C 
BRANCH  10  12
ATOM     11  C   UNL     1      43.066   4.972  13.261  0.00  0.00    +0.000 C 
ATOM     12  O   UNL     1      43.408   3.595  13.125  0.00  0.00    +0.000 OA
ENDBRANCH  10  12
ENDBRANCH   9  10
ENDBRANCH   8   9
BRANCH   8  13
ATOM     13  C   UNL     1      44.575   3.855   8.641  0.00  0.00    +0.000 C 
BRANCH  13  14
ATOM     14  C   UNL     1      45.686   3.082   7.948  0.00  0.00    +0.000 A 
ATOM     15  C   UNL     1      46.012   1.792   8.367  0.00  0.00    +0.000 A 
ATOM     16  C   UNL     1      46.916   1.046   7.617  0.00  0.00    +0.000 A 
ATOM     17  C   UNL     1      47.486   1.608   6.482  0.00  0.00    +0.000 A 
ATOM     18  C   UNL     1      47.148   2.911   6.159  0.00  0.00    +0.000 A 
ATOM     19  N   UNL     1      46.263   3.656   6.860  0.00  0.00    +0.000 NA
ENDBRANCH  13  14
ENDBRANCH   8  13
ENDBRANCH   7   8
ENDBRANCH   1   7
BRANCH   4  20
ATOM     20  C   UNL     1      47.994   7.181  14.974  0.00  0.00    +0.000 C 
BRANCH  20  21
ATOM     21  N   UNL     1      48.733   6.043  15.479  0.00  0.00    +0.000 N 
ATOM     22  C   UNL     1      49.012   5.873  16.807  0.00  0.00    +0.000 C 
ATOM     23  O   UNL     1      48.614   6.651  17.668  0.00  0.00    +0.000 OA
ATOM     24  H   UNL     1      49.289   5.541  14.793  0.00  0.00    +0.000 HD
BRANCH  22  25
ATOM     25  C   UNL     1      49.753   4.651  17.151  0.00  0.00    +0.000 A 
ATOM     26  C   UNL     1      49.145   3.406  17.057  0.00  0.00    +0.000 A 
ATOM     27  S   UNL     1      50.196   2.107  17.399  0.00  0.00    +0.000 S 
ATOM     28  C   UNL     1      51.484   3.163  17.752  0.00  0.00    +0.000 A 
ATOM     29  N   UNL     1      52.700   2.690  18.138  0.00  0.00    +0.000 NA
ATOM     30  C   UNL     1      53.571   3.607  18.397  0.00  0.00    +0.000 A 
ATOM     31  N   UNL     1      53.337   4.954  18.311  0.00  0.00    +0.000 N 
ATOM     32  C   UNL     1      52.129   5.474  17.922  0.00  0.00    +0.000 A 
ATOM     33  O   UNL     1      51.966   6.687  17.827  0.00  0.00    +0.000 OA
ATOM     34  C   UNL     1      51.118   4.487  17.598  0.00  0.00    +0.000 A 
ATOM     35  H   UNL     1      54.065   5.623  18.521  0.00  0.00    +0.000 HD
ENDBRANCH  22  25
ENDBRANCH  20  21
ENDBRANCH   4  20
TORSDOF 10
ENDMDL
MODEL 5
REMARK VINA RESULT:    -6.406      2.592      3.421
REMARK INTER + INTRA:         -11.835
REMARK INTER:                 -10.753
REMARK INTRA:                  -1.082
REMARK UNBOUND:                -1.683
REMARK  Name = 
REMARK  11 active torsions:
REMARK  status: ('A' for Active; 'I' for Inactive)
REMARK    1  A    between atoms: C_1  and  O_2
REMARK    2  A    between atoms: O_2  and  C_3
REMARK    3  A    between atoms: C_3  and  C_4
REMARK    4  A    between atoms: C_4  and  N_5
REMARK    5  A    between atoms: N_5  and  C_6
REMARK    6  A    between atoms: N_5  and  C_13
REMARK    7  A    between atoms: C_6  and  C_7
REMARK    8  A    between atoms: C_13  and  C_14
REMARK    9  A    between atoms: C_17  and  C_18
REMARK   10  A    between atoms: C_18  and  N_19
REMARK   11  A    between atoms: C_20  and  C_22
REMARK                            x       y       z     vdW  Elec       q    Type
REMARK                         _______ _______ _______ _____ _____    ______ ____
ROOT
ATOM      1  C   UNL     1      46.101   5.402  11.887  0.00  0.00    +0.000 A 
ATOM      2  C   UNL     1      46.436   6.588  12.536  0.00  0.00    +0.000 A 
ATOM      3  C   UNL     1      47.044   6.520  13.790  0.00  0.00    +0.000 A 
ATOM      4  C   UNL     1      47.278   5.278  14.387  0.00  0.00    +0.000 A 
ATOM      5  C   UNL     1      46.899   4.151  13.666  0.00  0.00    +0.000 A 
ATOM      6  N   UNL     1      46.313   4.185  12.446  0.00  0.00    +0.000 NA
ENDROOT
BRANCH   1   7
ATOM      7  C   UNL     1      45.564   5.422  10.463  0.00  0.00    +0.000 C 
BRANCH   7   8
ATOM      8  N   UNL     1      44.761   4.234  10.107  0.00  0.00    +0.000 NA
BRANCH   8   9
ATOM      9  C   UNL     1      43.446   4.242  10.790  0.00  0.00    +0.000 C 
BRANCH   9  10
ATOM     10  C   UNL     1      43.263   3.066  11.762  0.00  0.00    +0.000 C 
BRANCH  10  12
ATOM     11  C   UNL     1      42.901   4.876  13.192  0.00  0.00    +0.000 C 
ATOM     12  O   UNL     1      43.266   3.500  13.126  0.00  0.00    +0.000 OA
ENDBRANCH  10  12
ENDBRANCH   9  10
ENDBRANCH   8   9
BRANCH   8  13
ATOM     13  C   UNL     1      44.658   4.069   8.641  0.00  0.00    +0.000 C 
BRANCH  13  14
ATOM     14  C   UNL     1      45.698   3.217   7.928  0.00  0.00    +0.000 A 
ATOM     15  C   UNL     1      45.967   1.922   8.368  0.00  0.00    +0.000 A 
ATOM     16  C   UNL     1      46.799   1.108   7.605  0.00  0.00    +0.000 A 
ATOM     17  C   UNL     1      47.356   1.610   6.436  0.00  0.00    +0.000 A 
ATOM     18  C   UNL     1      47.080   2.922   6.093  0.00  0.00    +0.000 A 
ATOM     19  N   UNL     1      46.265   3.732   6.806  0.00  0.00    +0.000 NA
ENDBRANCH  13  14
ENDBRANCH   8  13
ENDBRANCH   7   8
ENDBRANCH   1   7
BRANCH   4  20
ATOM     20  C   UNL     1      47.955   5.149  15.720  0.00  0.00    +0.000 C 
BRANCH  20  21
ATOM     21  N   UNL     1      48.250   6.449  16.285  0.00  0.00    +0.000 N 
ATOM     22  C   UNL     1      49.513   6.972  16.316  0.00  0.00    +0.000 C 
ATOM     23  O   UNL     1      50.477   6.394  15.824  0.00  0.00    +0.000 OA
ATOM     24  H   UNL     1      47.549   6.821  16.920  0.00  0.00    +0.000 HD
BRANCH  22  25
ATOM     25  C   UNL     1      49.633   8.313  16.906  0.00  0.00    +0.000 A 
ATOM     26  C   UNL     1      50.221   9.348  16.191  0.00  0.00    +0.000 A 
ATOM     27  S   UNL     1      50.174  10.848  17.003  0.00  0.00    +0.000 S 
ATOM     28  C   UNL     1      49.429  10.155  18.367  0.00  0.00    +0.000 A 
ATOM     29  N   UNL     1      49.121  10.904  19.461  0.00  0.00    +0.000 NA
ATOM     30  C   UNL     1      48.583  10.239  20.428  0.00  0.00    +0.000 A 
ATOM     31  N   UNL     1      48.331   8.892  20.406  0.00  0.00    +0.000 N 
ATOM     32  C   UNL     1      48.622   8.101  19.324  0.00  0.00    +0.000 A 
ATOM     33  O   UNL     1      48.353   6.903  19.329  0.00  0.00    +0.000 OA
ATOM     34  C   UNL     1      49.209   8.801  18.198  0.00  0.00    +0.000 A 
ATOM     35  H   UNL     1      47.901   8.431  21.195  0.00  0.00    +0.000 HD
ENDBRANCH  22  25
ENDBRANCH  20  21
ENDBRANCH   4  20
TORSDOF 10
ENDMDL
MODEL 6
REMARK VINA RESULT:    -6.350      3.370      5.655
REMARK INTER + INTRA:         -11.746
REMARK INTER:                 -10.449
REMARK INTRA:                  -1.297
REMARK UNBOUND:                -1.683
REMARK  Name = 
REMARK  11 active torsions:
REMARK  status: ('A' for Active; 'I' for Inactive)
REMARK    1  A    between atoms: C_1  and  O_2
REMARK    2  A    between atoms: O_2  and  C_3
REMARK    3  A    between atoms: C_3  and  C_4
REMARK    4  A    between atoms: C_4  and  N_5
REMARK    5  A    between atoms: N_5  and  C_6
REMARK    6  A    between atoms: N_5  and  C_13
REMARK    7  A    between atoms: C_6  and  C_7
REMARK    8  A    between atoms: C_13  and  C_14
REMARK    9  A    between atoms: C_17  and  C_18
REMARK   10  A    between atoms: C_18  and  N_19
REMARK   11  A    between atoms: C_20  and  C_22
REMARK                            x       y       z     vdW  Elec       q    Type
REMARK                         _______ _______ _______ _____ _____    ______ ____
ROOT
ATOM      1  C   UNL     1      47.697   5.891  14.376  0.00  0.00    +0.000 A 
ATOM      2  C   UNL     1      48.467   6.333  15.449  0.00  0.00    +0.000 A 
ATOM      3  C   UNL     1      48.617   5.502  16.559  0.00  0.00    +0.000 A 
ATOM      4  C   UNL     1      47.974   4.261  16.594  0.00  0.00    +0.000 A 
ATOM      5  C   UNL     1      47.218   3.911  15.481  0.00  0.00    +0.000 A 
ATOM      6  N   UNL     1      47.060   4.694  14.388  0.00  0.00    +0.000 NA
ENDROOT
BRANCH   1   7
ATOM      7  C   UNL     1      47.618   6.702  13.091  0.00  0.00    +0.000 C 
BRANCH   7   8
ATOM      8  N   UNL     1      46.279   7.264  12.817  0.00  0.00    +0.000 NA
BRANCH   8   9
ATOM      9  C   UNL     1      46.283   8.744  12.902  0.00  0.00    +0.000 C 
BRANCH   9  10
ATOM     10  C   UNL     1      44.969   9.380  12.424  0.00  0.00    +0.000 C 
BRANCH  10  12
ATOM     11  C   UNL     1      44.737  11.003  10.761  0.00  0.00    +0.000 C 
ATOM     12  O   UNL     1      45.135  10.767  12.109  0.00  0.00    +0.000 OA
ENDBRANCH  10  12
ENDBRANCH   9  10
ENDBRANCH   8   9
BRANCH   8  13
ATOM     13  C   UNL     1      45.726   6.752  11.545  0.00  0.00    +0.000 C 
BRANCH  13  14
ATOM     14  C   UNL     1      44.805   5.542  11.584  0.00  0.00    +0.000 A 
ATOM     15  C   UNL     1      44.808   4.623  10.536  0.00  0.00    +0.000 A 
ATOM     16  C   UNL     1      44.080   3.444  10.668  0.00  0.00    +0.000 A 
ATOM     17  C   UNL     1      43.353   3.221  11.830  0.00  0.00    +0.000 A 
ATOM     18  C   UNL     1      43.362   4.204  12.805  0.00  0.00    +0.000 A 
ATOM     19  N   UNL     1      44.070   5.352  12.710  0.00  0.00    +0.000 NA
ENDBRANCH  13  14
ENDBRANCH   8  13
ENDBRANCH   7   8
ENDBRANCH   1   7
BRANCH   4  20
ATOM     20  C   UNL     1      48.126   3.316  17.751  0.00  0.00    +0.000 C 
BRANCH  20  21
ATOM     21  N   UNL     1      49.518   2.994  17.983  0.00  0.00    +0.000 N 
ATOM     22  C   UNL     1      50.239   2.186  17.149  0.00  0.00    +0.000 C 
ATOM     23  O   UNL     1      49.768   1.715  16.119  0.00  0.00    +0.000 OA
ATOM     24  H   UNL     1      49.850   3.140  18.932  0.00  0.00    +0.000 HD
BRANCH  22  25
ATOM     25  C   UNL     1      51.647   1.979  17.520  0.00  0.00    +0.000 A 
ATOM     26  C   UNL     1      52.151   0.696  17.687  0.00  0.00    +0.000 A 
ATOM     27  S   UNL     1      53.825   0.660  18.014  0.00  0.00    +0.000 S 
ATOM     28  C   UNL     1      53.923   2.359  18.014  0.00  0.00    +0.000 A 
ATOM     29  N   UNL     1      55.100   2.999  18.252  0.00  0.00    +0.000 NA
ATOM     30  C   UNL     1      55.017   4.288  18.245  0.00  0.00    +0.000 A 
ATOM     31  N   UNL     1      53.864   4.996  18.028  0.00  0.00    +0.000 N 
ATOM     32  C   UNL     1      52.657   4.392  17.779  0.00  0.00    +0.000 A 
ATOM     33  O   UNL     1      51.652   5.060  17.559  0.00  0.00    +0.000 OA
ATOM     34  C   UNL     1      52.696   2.943  17.754  0.00  0.00    +0.000 A 
ATOM     35  H   UNL     1      53.866   6.006  18.029  0.00  0.00    +0.000 HD
ENDBRANCH  22  25
ENDBRANCH  20  21
ENDBRANCH   4  20
TORSDOF 10
ENDMDL
MODEL 7
REMARK VINA RESULT:    -6.148      3.411      4.734
REMARK INTER + INTRA:         -11.425
REMARK INTER:                 -10.420
REMARK INTRA:                  -1.005
REMARK UNBOUND:                -1.683
REMARK  Name = 
REMARK  11 active torsions:
REMARK  status: ('A' for Active; 'I' for Inactive)
REMARK    1  A    between atoms: C_1  and  O_2
REMARK    2  A    between atoms: O_2  and  C_3
REMARK    3  A    between atoms: C_3  and  C_4
REMARK    4  A    between atoms: C_4  and  N_5
REMARK    5  A    between atoms: N_5  and  C_6
REMARK    6  A    between atoms: N_5  and  C_13
REMARK    7  A    between atoms: C_6  and  C_7
REMARK    8  A    between atoms: C_13  and  C_14
REMARK    9  A    between atoms: C_17  and  C_18
REMARK   10  A    between atoms: C_18  and  N_19
REMARK   11  A    between atoms: C_20  and  C_22
REMARK                            x       y       z     vdW  Elec       q    Type
REMARK                         _______ _______ _______ _____ _____    ______ ____
ROOT
ATOM      1  C   UNL     1      47.036   5.232  13.912  0.00  0.00    +0.000 A 
ATOM      2  C   UNL     1      47.880   6.257  14.332  0.00  0.00    +0.000 A 
ATOM      3  C   UNL     1      48.473   6.168  15.593  0.00  0.00    +0.000 A 
ATOM      4  C   UNL     1      48.191   5.077  16.421  0.00  0.00    +0.000 A 
ATOM      5  C   UNL     1      47.328   4.110  15.918  0.00  0.00    +0.000 A 
ATOM      6  N   UNL     1      46.743   4.167  14.698  0.00  0.00    +0.000 NA
ENDROOT
BRANCH   1   7
ATOM      7  C   UNL     1      46.478   5.219  12.497  0.00  0.00    +0.000 C 
BRANCH   7   8
ATOM      8  N   UNL     1      45.260   6.036  12.323  0.00  0.00    +0.000 NA
BRANCH   8   9
ATOM      9  C   UNL     1      45.577   7.376  11.774  0.00  0.00    +0.000 C 
BRANCH   9  10
ATOM     10  C   UNL     1      45.478   8.497  12.820  0.00  0.00    +0.000 C 
BRANCH  10  12
ATOM     11  C   UNL     1      46.453  10.436  11.958  0.00  0.00    +0.000 C 
ATOM     12  O   UNL     1      46.648   9.322  12.826  0.00  0.00    +0.000 OA
ENDBRANCH  10  12
ENDBRANCH   9  10
ENDBRANCH   8   9
BRANCH   8  13
ATOM     13  C   UNL     1      44.228   5.315  11.547  0.00  0.00    +0.000 C 
BRANCH  13  14
ATOM     14  C   UNL     1      44.674   4.389  10.426  0.00  0.00    +0.000 A 
ATOM     15  C   UNL     1      44.350   3.033  10.463  0.00  0.00    +0.000 A 
ATOM     16  C   UNL     1      44.626   2.242   9.352  0.00  0.00    +0.000 A 
ATOM     17  C   UNL     1      45.233   2.814   8.243  0.00  0.00    +0.000 A 
ATOM     18  C   UNL     1      45.568   4.156   8.302  0.00  0.00    +0.000 A 
ATOM     19  N   UNL     1      45.301   4.954   9.361  0.00  0.00    +0.000 NA
ENDBRANCH  13  14
ENDBRANCH   8  13
ENDBRANCH   7   8
ENDBRANCH   1   7
BRANCH   4  20
ATOM     20  C   UNL     1      48.825   4.918  17.773  0.00  0.00    +0.000 C 
BRANCH  20  21
ATOM     21  N   UNL     1      50.178   4.418  17.660  0.00  0.00    +0.000 N 
ATOM     22  C   UNL     1      51.026   4.331  18.729  0.00  0.00    +0.000 C 
ATOM     23  O   UNL     1      50.681   4.627  19.868  0.00  0.00    +0.000 OA
ATOM     24  H   UNL     1      50.571   4.420  16.722  0.00  0.00    +0.000 HD
BRANCH  22  25
ATOM     25  C   UNL     1      52.359   3.781  18.443  0.00  0.00    +0.000 A 
ATOM     26  C   UNL     1      53.500   4.538  18.676  0.00  0.00    +0.000 A 
ATOM     27  S   UNL     1      54.951   3.691  18.381  0.00  0.00    +0.000 S 
ATOM     28  C   UNL     1      54.108   2.305  17.866  0.00  0.00    +0.000 A 
ATOM     29  N   UNL     1      54.768   1.191  17.448  0.00  0.00    +0.000 NA
ATOM     30  C   UNL     1      53.999   0.228  17.063  0.00  0.00    +0.000 A 
ATOM     31  N   UNL     1      52.629   0.279  17.051  0.00  0.00    +0.000 N 
ATOM     32  C   UNL     1      51.924   1.379  17.467  0.00  0.00    +0.000 A 
ATOM     33  O   UNL     1      50.697   1.376  17.470  0.00  0.00    +0.000 OA
ATOM     34  C   UNL     1      52.739   2.485  17.931  0.00  0.00    +0.000 A 
ATOM     35  H   UNL     1      52.083  -0.513  16.743  0.00  0.00    +0.000 HD
ENDBRANCH  22  25
ENDBRANCH  20  21
ENDBRANCH   4  20
TORSDOF 10
ENDMDL
MODEL 8
REMARK VINA RESULT:    -6.040      2.960      8.596
REMARK INTER + INTRA:         -11.254
REMARK INTER:                  -9.876
REMARK INTRA:                  -1.378
REMARK UNBOUND:                -1.683
REMARK  Name = 
REMARK  11 active torsions:
REMARK  status: ('A' for Active; 'I' for Inactive)
REMARK    1  A    between atoms: C_1  and  O_2
REMARK    2  A    between atoms: O_2  and  C_3
REMARK    3  A    between atoms: C_3  and  C_4
REMARK    4  A    between atoms: C_4  and  N_5
REMARK    5  A    between atoms: N_5  and  C_6
REMARK    6  A    between atoms: N_5  and  C_13
REMARK    7  A    between atoms: C_6  and  C_7
REMARK    8  A    between atoms: C_13  and  C_14
REMARK    9  A    between atoms: C_17  and  C_18
REMARK   10  A    between atoms: C_18  and  N_19
REMARK   11  A    between atoms: C_20  and  C_22
REMARK                            x       y       z     vdW  Elec       q    Type
REMARK                         _______ _______ _______ _____ _____    ______ ____
ROOT
ATOM      1  C   UNL     1      50.022   7.805  14.964  0.00  0.00    +0.000 A 
ATOM      2  C   UNL     1      49.124   8.784  15.382  0.00  0.00    +0.000 A 
ATOM      3  C   UNL     1      47.890   8.885  14.740  0.00  0.00    +0.000 A 
ATOM      4  C   UNL     1      47.584   8.031  13.676  0.00  0.00    +0.000 A 
ATOM      5  C   UNL     1      48.548   7.093  13.324  0.00  0.00    +0.000 A 
ATOM      6  N   UNL     1      49.751   6.968  13.932  0.00  0.00    +0.000 NA
ENDROOT
BRANCH   1   7
ATOM      7  C   UNL     1      51.320   7.568  15.721  0.00  0.00    +0.000 C 
BRANCH   7   8
ATOM      8  N   UNL     1      51.407   6.241  16.365  0.00  0.00    +0.000 NA
BRANCH   8   9
ATOM      9  C   UNL     1      52.805   5.899  16.719  0.00  0.00    +0.000 C 
BRANCH   9  10
ATOM     10  C   UNL     1      53.810   6.999  16.344  0.00  0.00    +0.000 C 
BRANCH  10  12
ATOM     11  C   UNL     1      54.772   8.343  17.992  0.00  0.00    +0.000 C 
ATOM     12  O   UNL     1      54.868   7.100  17.303  0.00  0.00    +0.000 OA
ENDBRANCH  10  12
ENDBRANCH   9  10
ENDBRANCH   8   9
BRANCH   8  13
ATOM     13  C   UNL     1      50.471   6.128  17.504  0.00  0.00    +0.000 C 
BRANCH  13  14
ATOM     14  C   UNL     1      49.416   5.032  17.476  0.00  0.00    +0.000 A 
ATOM     15  C   UNL     1      48.082   5.333  17.744  0.00  0.00    +0.000 A 
ATOM     16  C   UNL     1      47.115   4.350  17.554  0.00  0.00    +0.000 A 
ATOM     17  C   UNL     1      47.504   3.089  17.122  0.00  0.00    +0.000 A 
ATOM     18  C   UNL     1      48.853   2.854  16.924  0.00  0.00    +0.000 A 
ATOM     19  N   UNL     1      49.814   3.793  17.087  0.00  0.00    +0.000 NA
ENDBRANCH  13  14
ENDBRANCH   8  13
ENDBRANCH   7   8
ENDBRANCH   1   7
BRANCH   4  20
ATOM     20  C   UNL     1      46.260   8.078  12.972  0.00  0.00    +0.000 C 
BRANCH  20  21
ATOM     21  N   UNL     1      45.818   6.750  12.601  0.00  0.00    +0.000 N 
ATOM     22  C   UNL     1      44.764   6.529  11.759  0.00  0.00    +0.000 C 
ATOM     23  O   UNL     1      44.150   7.445  11.220  0.00  0.00    +0.000 OA
ATOM     24  H   UNL     1      46.118   5.999  13.217  0.00  0.00    +0.000 HD
BRANCH  22  25
ATOM     25  C   UNL     1      44.461   5.120  11.471  0.00  0.00    +0.000 A 
ATOM     26  C   UNL     1      43.739   4.354  12.376  0.00  0.00    +0.000 A 
ATOM     27  S   UNL     1      43.401   2.778  11.817  0.00  0.00    +0.000 S 
ATOM     28  C   UNL     1      44.267   3.038  10.375  0.00  0.00    +0.000 A 
ATOM     29  N   UNL     1      44.389   2.060   9.437  0.00  0.00    +0.000 NA
ATOM     30  C   UNL     1      45.094   2.393   8.408  0.00  0.00    +0.000 A 
ATOM     31  N   UNL     1      45.695   3.612   8.233  0.00  0.00    +0.000 N 
ATOM     32  C   UNL     1      45.595   4.627   9.150  0.00  0.00    +0.000 A 
ATOM     33  O   UNL     1      46.121   5.716   8.944  0.00  0.00    +0.000 OA
ATOM     34  C   UNL     1      44.795   4.315  10.318  0.00  0.00    +0.000 A 
ATOM     35  H   UNL     1      46.230   3.813   7.400  0.00  0.00    +0.000 HD
ENDBRANCH  22  25
ENDBRANCH  20  21
ENDBRANCH   4  20
TORSDOF 10
ENDMDL
MODEL 9
REMARK VINA RESULT:    -6.010      2.097      3.044
REMARK INTER + INTRA:         -11.207
REMARK INTER:                  -9.521
REMARK INTRA:                  -1.685
REMARK UNBOUND:                -1.683
REMARK  Name = 
REMARK  11 active torsions:
REMARK  status: ('A' for Active; 'I' for Inactive)
REMARK    1  A    between atoms: C_1  and  O_2
REMARK    2  A    between atoms: O_2  and  C_3
REMARK    3  A    between atoms: C_3  and  C_4
REMARK    4  A    between atoms: C_4  and  N_5
REMARK    5  A    between atoms: N_5  and  C_6
REMARK    6  A    between atoms: N_5  and  C_13
REMARK    7  A    between atoms: C_6  and  C_7
REMARK    8  A    between atoms: C_13  and  C_14
REMARK    9  A    between atoms: C_17  and  C_18
REMARK   10  A    between atoms: C_18  and  N_19
REMARK   11  A    between atoms: C_20  and  C_22
REMARK                            x       y       z     vdW  Elec       q    Type
REMARK                         _______ _______ _______ _____ _____    ______ ____
ROOT
ATOM      1  C   UNL     1      46.587   7.594  12.279  0.00  0.00    +0.000 A 
ATOM      2  C   UNL     1      47.766   7.285  11.605  0.00  0.00    +0.000 A 
ATOM      3  C   UNL     1      48.956   7.882  12.021  0.00  0.00    +0.000 A 
ATOM      4  C   UNL     1      48.947   8.797  13.078  0.00  0.00    +0.000 A 
ATOM      5  C   UNL     1      47.719   9.050  13.681  0.00  0.00    +0.000 A 
ATOM      6  N   UNL     1      46.550   8.481  13.303  0.00  0.00    +0.000 NA
ENDROOT
BRANCH   1   7
ATOM      7  C   UNL     1      45.293   6.865  11.951  0.00  0.00    +0.000 C 
BRANCH   7   8
ATOM      8  N   UNL     1      45.407   5.392  11.985  0.00  0.00    +0.000 NA
BRANCH   8   9
ATOM      9  C   UNL     1      45.366   4.875  13.373  0.00  0.00    +0.000 C 
BRANCH   9  10
ATOM     10  C   UNL     1      46.753   4.501  13.919  0.00  0.00    +0.000 C 
BRANCH  10  12
ATOM     11  C   UNL     1      47.628   3.223  15.666  0.00  0.00    +0.000 C 
ATOM     12  O   UNL     1      46.722   4.271  15.332  0.00  0.00    +0.000 OA
ENDBRANCH  10  12
ENDBRANCH   9  10
ENDBRANCH   8   9
BRANCH   8  13
ATOM     13  C   UNL     1      44.417   4.751  11.092  0.00  0.00    +0.000 C 
BRANCH  13  14
ATOM     14  C   UNL     1      44.918   3.988   9.876  0.00  0.00    +0.000 A 
ATOM     15  C   UNL     1      45.514   4.669   8.815  0.00  0.00    +0.000 A 
ATOM     16  C   UNL     1      46.108   3.938   7.791  0.00  0.00    +0.000 A 
ATOM     17  C   UNL     1      46.078   2.550   7.839  0.00  0.00    +0.000 A 
ATOM     18  C   UNL     1      45.425   1.948   8.901  0.00  0.00    +0.000 A 
ATOM     19  N   UNL     1      44.850   2.632   9.917  0.00  0.00    +0.000 NA
ENDBRANCH  13  14
ENDBRANCH   8  13
ENDBRANCH   7   8
ENDBRANCH   1   7
BRANCH   4  20
ATOM     20  C   UNL     1      50.202   9.445  13.584  0.00  0.00    +0.000 C 
BRANCH  20  21
ATOM     21  N   UNL     1      50.726   8.742  14.736  0.00  0.00    +0.000 N 
ATOM     22  C   UNL     1      51.936   8.106  14.726  0.00  0.00    +0.000 C 
ATOM     23  O   UNL     1      52.684   8.129  13.754  0.00  0.00    +0.000 OA
ATOM     24  H   UNL     1      50.041   8.482  15.440  0.00  0.00    +0.000 HD
BRANCH  22  25
ATOM     25  C   UNL     1      52.327   7.458  15.987  0.00  0.00    +0.000 A 
ATOM     26  C   UNL     1      53.582   7.681  16.536  0.00  0.00    +0.000 A 
ATOM     27  S   UNL     1      53.808   6.926  18.049  0.00  0.00    +0.000 S 
ATOM     28  C   UNL     1      52.261   6.217  17.993  0.00  0.00    +0.000 A 
ATOM     29  N   UNL     1      51.817   5.412  18.996  0.00  0.00    +0.000 NA
ATOM     30  C   UNL     1      50.636   4.926  18.805  0.00  0.00    +0.000 A 
ATOM     31  N   UNL     1      49.860   5.165  17.701  0.00  0.00    +0.000 N 
ATOM     32  C   UNL     1      50.267   5.973  16.670  0.00  0.00    +0.000 A 
ATOM     33  O   UNL     1      49.532   6.188  15.711  0.00  0.00    +0.000 OA
ATOM     34  C   UNL     1      51.580   6.564  16.842  0.00  0.00    +0.000 A 
ATOM     35  H   UNL     1      48.940   4.758  17.614  0.00  0.00    +0.000 HD
ENDBRANCH  22  25
ENDBRANCH  20  21
ENDBRANCH   4  20
TORSDOF 10
ENDMDL
