MODEL 1
REMARK VINA RESULT:    -7.826      0.000      0.000
REMARK INTER + INTRA:          -9.633
REMARK INTER:                  -9.657
REMARK INTRA:                   0.024
REMARK UNBOUND:                 0.024
REMARK  Name = 
REMARK  4 active torsions:
REMARK  status: ('A' for Active; 'I' for Inactive)
REMARK    1  A    between atoms: C_2  and  C_4
REMARK    2  A    between atoms: N_8  and  C_9
REMARK    3  A    between atoms: C_9  and  C_10
REMARK    4  A    between atoms: C_15  and  C_16
REMARK                            x       y       z     vdW  Elec       q    Type
REMARK                         _______ _______ _______ _____ _____    ______ ____
ROOT
ATOM      1  C   UNL     1      46.445   2.230   7.572  0.00  0.00    +0.000 A 
ATOM      2  C   UNL     1      46.270   3.555   7.187  0.00  0.00    +0.000 A 
ATOM      3  C   UNL     1      45.484   4.393   7.981  0.00  0.00    +0.000 A 
ATOM      4  C   UNL     1      44.915   3.904   9.155  0.00  0.00    +0.000 A 
ATOM      5  N   UNL     1      44.254   4.808   9.988  0.00  0.00    +0.000 N 
ATOM      6  N   UNL     1      45.066   2.615   9.523  0.00  0.00    +0.000 NA
ATOM      7  C   UNL     1      45.799   1.801   8.719  0.00  0.00    +0.000 A 
ATOM      8  H   UNL     1      43.480   5.286   9.534  0.00  0.00    +0.000 HD
ENDROOT
BRANCH   1  10
ATOM      9  N   UNL     1      48.360   1.790   6.145  0.00  0.00    +0.000 N 
ATOM     10  C   UNL     1      47.283   1.277   6.821  0.00  0.00    +0.000 C 
ATOM     11  O   UNL     1      47.059   0.075   6.835  0.00  0.00    +0.000 OA
ATOM     12  H   UNL     1      48.995   1.116   5.736  0.00  0.00    +0.000 HD
ATOM     13  H   UNL     1      48.722   2.715   6.330  0.00  0.00    +0.000 HD
ENDBRANCH   1  10
BRANCH   5  14
ATOM     14  C   UNL     1      43.873   4.297  11.300  0.00  0.00    +0.000 C 
BRANCH  14  15
ATOM     15  C   UNL     1      45.013   4.422  12.311  0.00  0.00    +0.000 A 
ATOM     16  N   UNL     1      45.576   3.252  12.749  0.00  0.00    +0.000 NA
ATOM     17  C   UNL     1      46.598   3.324  13.630  0.00  0.00    +0.000 A 
ATOM     18  C   UNL     1      47.124   4.511  14.097  0.00  0.00    +0.000 A 
ATOM     19  C   UNL     1      46.564   5.695  13.635  0.00  0.00    +0.000 A 
ATOM     20  C   UNL     1      45.491   5.672  12.725  0.00  0.00    +0.000 A 
BRANCH  20  21
ATOM     21  C   UNL     1      44.936   6.988  12.252  0.00  0.00    +0.000 C 
ATOM     22  F   UNL     1      43.595   7.021  12.045  0.00  0.00    +0.000 F 
ATOM     23  F   UNL     1      45.196   7.996  13.131  0.00  0.00    +0.000 F 
ATOM     24  F   UNL     1      45.493   7.379  11.071  0.00  0.00    +0.000 F 
ENDBRANCH  20  21
ENDBRANCH  14  15
ENDBRANCH   5  14
TORSDOF 4
ENDMDL
MODEL 2
REMARK VINA RESULT:    -7.639      1.982      2.688
REMARK INTER + INTRA:          -9.401
REMARK INTER:                  -8.951
REMARK INTRA:                  -0.450
REMARK UNBOUND:                 0.024
REMARK  Name = 
REMARK  4 active torsions:
REMARK  status: ('A' for Active; 'I' for Inactive)
REMARK    1  A    between atoms: C_2  and  C_4
REMARK    2  A    between atoms: N_8  and  C_9
REMARK    3  A    between atoms: C_9  and  C_10
REMARK    4  A    between atoms: C_15  and  C_16
REMARK                            x       y       z     vdW  Elec       q    Type
REMARK                         _______ _______ _______ _____ _____    ______ ____
ROOT
ATOM      1  C   UNL     1      46.133   2.020   7.941  0.00  0.00    +0.000 A 
ATOM      2  C   UNL     1      45.639   3.043   7.138  0.00  0.00    +0.000 A 
ATOM      3  C   UNL     1      44.789   3.996   7.701  0.00  0.00    +0.000 A 
ATOM      4  C   UNL     1      44.472   3.929   9.057  0.00  0.00    +0.000 A 
ATOM      5  N   UNL     1      43.733   4.976   9.609  0.00  0.00    +0.000 N 
ATOM      6  N   UNL     1      44.933   2.929   9.836  0.00  0.00    +0.000 NA
ATOM      7  C   UNL     1      45.726   1.985   9.264  0.00  0.00    +0.000 A 
ATOM      8  H   UNL     1      42.829   5.113   9.164  0.00  0.00    +0.000 HD
ENDROOT
BRANCH   1  10
ATOM      9  N   UNL     1      46.730  -0.320   7.692  0.00  0.00    +0.000 N 
ATOM     10  C   UNL     1      47.063   0.988   7.449  0.00  0.00    +0.000 C 
ATOM     11  O   UNL     1      48.066   1.277   6.810  0.00  0.00    +0.000 OA
ATOM     12  H   UNL     1      47.309  -1.020   7.245  0.00  0.00    +0.000 HD
ATOM     13  H   UNL     1      45.799  -0.597   7.969  0.00  0.00    +0.000 HD
ENDBRANCH   1  10
BRANCH   5  14
ATOM     14  C   UNL     1      43.619   4.972  11.063  0.00  0.00    +0.000 C 
BRANCH  14  15
ATOM     15  C   UNL     1      44.514   6.033  11.705  0.00  0.00    +0.000 A 
ATOM     16  N   UNL     1      44.379   7.314  11.239  0.00  0.00    +0.000 NA
ATOM     17  C   UNL     1      45.141   8.282  11.795  0.00  0.00    +0.000 A 
ATOM     18  C   UNL     1      46.034   8.057  12.823  0.00  0.00    +0.000 A 
ATOM     19  C   UNL     1      46.153   6.761  13.306  0.00  0.00    +0.000 A 
ATOM     20  C   UNL     1      45.388   5.717  12.754  0.00  0.00    +0.000 A 
BRANCH  20  21
ATOM     21  C   UNL     1      45.554   4.337  13.329  0.00  0.00    +0.000 C 
ATOM     22  F   UNL     1      46.196   3.442  12.537  0.00  0.00    +0.000 F 
ATOM     23  F   UNL     1      46.248   4.353  14.501  0.00  0.00    +0.000 F 
ATOM     24  F   UNL     1      44.353   3.762  13.623  0.00  0.00    +0.000 F 
ENDBRANCH  20  21
ENDBRANCH  14  15
ENDBRANCH   5  14
TORSDOF 4
ENDMDL
MODEL 3
REMARK VINA RESULT:    -7.507      3.489      6.451
REMARK INTER + INTRA:          -9.238
REMARK INTER:                  -8.871
REMARK INTRA:                  -0.367
REMARK UNBOUND:                 0.024
REMARK  Name = 
REMARK  4 active torsions:
REMARK  status: ('A' for Active; 'I' for Inactive)
REMARK    1  A    between atoms: C_2  and  C_4
REMARK    2  A    between atoms: N_8  and  C_9
REMARK    3  A    between atoms: C_9  and  C_10
REMARK    4  A    between atoms: C_15  and  C_16
REMARK                            x       y       z     vdW  Elec       q    Type
REMARK                         _______ _______ _______ _____ _____    ______ ____
ROOT
ATOM      1  C   UNL     1      47.807   5.574  14.950  0.00  0.00    +0.000 A 
ATOM      2  C   UNL     1      48.375   6.558  14.148  0.00  0.00    +0.000 A 
ATOM      3  C   UNL     1      47.842   6.788  12.878  0.00  0.00    +0.000 A 
ATOM      4  C   UNL     1      46.737   6.057  12.446  0.00  0.00    +0.000 A 
ATOM      5  N   UNL     1      46.151   6.412  11.230  0.00  0.00    +0.000 N 
ATOM      6  N   UNL     1      46.194   5.088  13.212  0.00  0.00    +0.000 NA
ATOM      7  C   UNL     1      46.750   4.846  14.429  0.00  0.00    +0.000 A 
ATOM      8  H   UNL     1      46.791   6.359  10.441  0.00  0.00    +0.000 HD
ENDROOT
BRANCH   1  10
ATOM      9  N   UNL     1      47.318   5.136  17.288  0.00  0.00    +0.000 N 
ATOM     10  C   UNL     1      48.275   5.280  16.317  0.00  0.00    +0.000 C 
ATOM     11  O   UNL     1      49.462   5.123  16.570  0.00  0.00    +0.000 OA
ATOM     12  H   UNL     1      47.641   4.815  18.192  0.00  0.00    +0.000 HD
ATOM     13  H   UNL     1      46.343   4.993  17.066  0.00  0.00    +0.000 HD
ENDBRANCH   1  10
BRANCH   5  14
ATOM     14  C   UNL     1      44.876   5.770  10.931  0.00  0.00    +0.000 C 
BRANCH  14  15
ATOM     15  C   UNL     1      45.039   4.629   9.926  0.00  0.00    +0.000 A 
ATOM     16  N   UNL     1      45.781   4.898   8.806  0.00  0.00    +0.000 NA
ATOM     17  C   UNL     1      45.962   3.908   7.904  0.00  0.00    +0.000 A 
ATOM     18  C   UNL     1      45.458   2.633   8.057  0.00  0.00    +0.000 A 
ATOM     19  C   UNL     1      44.724   2.358   9.202  0.00  0.00    +0.000 A 
ATOM     20  C   UNL     1      44.500   3.358  10.166  0.00  0.00    +0.000 A 
BRANCH  20  21
ATOM     21  C   UNL     1      43.706   2.995  11.392  0.00  0.00    +0.000 C 
ATOM     22  F   UNL     1      42.725   3.867  11.737  0.00  0.00    +0.000 F 
ATOM     23  F   UNL     1      43.093   1.785  11.262  0.00  0.00    +0.000 F 
ATOM     24  F   UNL     1      44.499   2.887  12.496  0.00  0.00    +0.000 F 
ENDBRANCH  20  21
ENDBRANCH  14  15
ENDBRANCH   5  14
TORSDOF 4
ENDMDL
MODEL 4
REMARK VINA RESULT:    -7.103      4.032      5.504
REMARK INTER + INTRA:          -8.740
REMARK INTER:                  -8.401
REMARK INTRA:                  -0.339
REMARK UNBOUND:                 0.024
REMARK  Name = 
REMARK  4 active torsions:
REMARK  status: ('A' for Active; 'I' for Inactive)
REMARK    1  A    between atoms: C_2  and  C_4
REMARK    2  A    between atoms: N_8  and  C_9
REMARK    3  A    between atoms: C_9  and  C_10
REMARK    4  A    between atoms: C_15  and  C_16
REMARK                            x       y       z     vdW  Elec       q    Type
REMARK                         _______ _______ _______ _____ _____    ______ ____
ROOT
ATOM      1  C   UNL     1      44.927   3.976  10.681  0.00  0.00    +0.000 A 
ATOM      2  C   UNL     1      45.202   5.337  10.769  0.00  0.00    +0.000 A 
ATOM      3  C   UNL     1      45.724   5.848  11.959  0.00  0.00    +0.000 A 
ATOM      4  C   UNL     1      45.990   4.991  13.025  0.00  0.00    +0.000 A 
ATOM      5  N   UNL     1      46.638   5.517  14.142  0.00  0.00    +0.000 N 
ATOM      6  N   UNL     1      45.708   3.674  12.952  0.00  0.00    +0.000 NA
ATOM      7  C   UNL     1      45.161   3.197  11.803  0.00  0.00    +0.000 A 
ATOM      8  H   UNL     1      46.133   6.285  14.580  0.00  0.00    +0.000 HD
ENDROOT
BRANCH   1  10
ATOM      9  N   UNL     1      44.144   4.153   8.390  0.00  0.00    +0.000 N 
ATOM     10  C   UNL     1      44.408   3.336   9.459  0.00  0.00    +0.000 C 
ATOM     11  O   UNL     1      44.262   2.124   9.381  0.00  0.00    +0.000 OA
ATOM     12  H   UNL     1      43.906   3.691   7.521  0.00  0.00    +0.000 HD
ATOM     13  H   UNL     1      44.501   5.096   8.331  0.00  0.00    +0.000 HD
ENDBRANCH   1  10
BRANCH   5  14
ATOM     14  C   UNL     1      47.091   4.543  15.130  0.00  0.00    +0.000 C 
BRANCH  14  15
ATOM     15  C   UNL     1      48.306   5.048  15.909  0.00  0.00    +0.000 A 
ATOM     16  N   UNL     1      48.809   6.268  15.539  0.00  0.00    +0.000 NA
ATOM     17  C   UNL     1      49.872   6.754  16.216  0.00  0.00    +0.000 A 
ATOM     18  C   UNL     1      50.468   6.101  17.276  0.00  0.00    +0.000 A 
ATOM     19  C   UNL     1      49.943   4.875  17.661  0.00  0.00    +0.000 A 
ATOM     20  C   UNL     1      48.842   4.322  16.980  0.00  0.00    +0.000 A 
BRANCH  20  21
ATOM     21  C   UNL     1      48.312   2.996  17.452  0.00  0.00    +0.000 C 
ATOM     22  F   UNL     1      46.976   2.946  17.689  0.00  0.00    +0.000 F 
ATOM     23  F   UNL     1      48.562   1.999  16.557  0.00  0.00    +0.000 F 
ATOM     24  F   UNL     1      48.900   2.599  18.616  0.00  0.00    +0.000 F 
ENDBRANCH  20  21
ENDBRANCH  14  15
ENDBRANCH   5  14
TORSDOF 4
ENDMDL
MODEL 5
REMARK VINA RESULT:    -6.883      4.488      7.597
REMARK INTER + INTRA:          -8.469
REMARK INTER:                  -8.116
REMARK INTRA:                  -0.352
REMARK UNBOUND:                 0.024
REMARK  Name = 
REMARK  4 active torsions:
REMARK  status: ('A' for Active; 'I' for Inactive)
REMARK    1  A    between atoms: C_2  and  C_4
REMARK    2  A    between atoms: N_8  and  C_9
REMARK    3  A    between atoms: C_9  and  C_10
REMARK    4  A    between atoms: C_15  and  C_16
REMARK                            x       y       z     vdW  Elec       q    Type
REMARK                         _______ _______ _______ _____ _____    ______ ____
ROOT
ATOM      1  C   UNL     1      49.246   4.618  17.984  0.00  0.00    +0.000 A 
ATOM      2  C   UNL     1      48.587   3.393  17.967  0.00  0.00    +0.000 A 
ATOM      3  C   UNL     1      47.724   3.102  16.909  0.00  0.00    +0.000 A 
ATOM      4  C   UNL     1      47.559   4.021  15.875  0.00  0.00    +0.000 A 
ATOM      5  N   UNL     1      46.797   3.635  14.771  0.00  0.00    +0.000 N 
ATOM      6  N   UNL     1      48.181   5.218  15.895  0.00  0.00    +0.000 NA
ATOM      7  C   UNL     1      48.985   5.505  16.952  0.00  0.00    +0.000 A 
ATOM      8  H   UNL     1      45.843   3.375  15.008  0.00  0.00    +0.000 HD
ENDROOT
BRANCH   1  10
ATOM      9  N   UNL     1      50.069   4.391  20.256  0.00  0.00    +0.000 N 
ATOM     10  C   UNL     1      50.202   5.004  19.037  0.00  0.00    +0.000 C 
ATOM     11  O   UNL     1      51.106   5.800  18.824  0.00  0.00    +0.000 OA
ATOM     12  H   UNL     1      50.802   4.572  20.931  0.00  0.00    +0.000 HD
ATOM     13  H   UNL     1      49.521   3.552  20.381  0.00  0.00    +0.000 HD
ENDBRANCH   1  10
BRANCH   5  14
ATOM     14  C   UNL     1      46.837   4.540  13.627  0.00  0.00    +0.000 C 
BRANCH  14  15
ATOM     15  C   UNL     1      45.564   4.445  12.785  0.00  0.00    +0.000 A 
ATOM     16  N   UNL     1      44.890   3.254  12.825  0.00  0.00    +0.000 NA
ATOM     17  C   UNL     1      43.751   3.138  12.106  0.00  0.00    +0.000 A 
ATOM     18  C   UNL     1      43.215   4.162  11.351  0.00  0.00    +0.000 A 
ATOM     19  C   UNL     1      43.892   5.374  11.330  0.00  0.00    +0.000 A 
ATOM     20  C   UNL     1      45.087   5.540  12.053  0.00  0.00    +0.000 A 
BRANCH  20  21
ATOM     21  C   UNL     1      45.767   6.881  11.999  0.00  0.00    +0.000 C 
ATOM     22  F   UNL     1      45.879   7.533  13.185  0.00  0.00    +0.000 F 
ATOM     23  F   UNL     1      47.035   6.791  11.509  0.00  0.00    +0.000 F 
ATOM     24  F   UNL     1      45.115   7.748  11.171  0.00  0.00    +0.000 F 
ENDBRANCH  20  21
ENDBRANCH  14  15
ENDBRANCH   5  14
TORSDOF 4
ENDMDL
MODEL 6
REMARK VINA RESULT:    -6.667      4.142      5.952
REMARK INTER + INTRA:          -8.203
REMARK INTER:                  -7.877
REMARK INTRA:                  -0.326
REMARK UNBOUND:                 0.024
REMARK  Name = 
REMARK  4 active torsions:
REMARK  status: ('A' for Active; 'I' for Inactive)
REMARK    1  A    between atoms: C_2  and  C_4
REMARK    2  A    between atoms: N_8  and  C_9
REMARK    3  A    between atoms: C_9  and  C_10
REMARK    4  A    between atoms: C_15  and  C_16
REMARK                            x       y       z     vdW  Elec       q    Type
REMARK                         _______ _______ _______ _____ _____    ______ ____
ROOT
ATOM      1  C   UNL     1      45.105   5.097  11.555  0.00  0.00    +0.000 A 
ATOM      2  C   UNL     1      46.186   5.966  11.653  0.00  0.00    +0.000 A 
ATOM      3  C   UNL     1      46.914   6.010  12.843  0.00  0.00    +0.000 A 
ATOM      4  C   UNL     1      46.570   5.169  13.900  0.00  0.00    +0.000 A 
ATOM      5  N   UNL     1      47.405   5.145  15.017  0.00  0.00    +0.000 N 
ATOM      6  N   UNL     1      45.511   4.338  13.817  0.00  0.00    +0.000 NA
ATOM      7  C   UNL     1      44.786   4.336  12.667  0.00  0.00    +0.000 A 
ATOM      8  H   UNL     1      47.508   6.053  15.465  0.00  0.00    +0.000 HD
ENDROOT
BRANCH   1  10
ATOM      9  N   UNL     1      44.973   4.752   9.155  0.00  0.00    +0.000 N 
ATOM     10  C   UNL     1      44.296   4.952  10.330  0.00  0.00    +0.000 C 
ATOM     11  O   UNL     1      43.074   4.962  10.363  0.00  0.00    +0.000 OA
ATOM     12  H   UNL     1      44.408   4.532   8.344  0.00  0.00    +0.000 HD
ATOM     13  H   UNL     1      45.944   4.474   9.133  0.00  0.00    +0.000 HD
ENDBRANCH   1  10
BRANCH   5  14
ATOM     14  C   UNL     1      47.129   4.096  15.992  0.00  0.00    +0.000 C 
BRANCH  14  15
ATOM     15  C   UNL     1      48.413   3.551  16.618  0.00  0.00    +0.000 A 
ATOM     16  N   UNL     1      48.937   2.417  16.055  0.00  0.00    +0.000 NA
ATOM     17  C   UNL     1      50.081   1.916  16.571  0.00  0.00    +0.000 A 
ATOM     18  C   UNL     1      50.766   2.495  17.619  0.00  0.00    +0.000 A 
ATOM     19  C   UNL     1      50.243   3.656  18.173  0.00  0.00    +0.000 A 
ATOM     20  C   UNL     1      49.049   4.211  17.678  0.00  0.00    +0.000 A 
BRANCH  20  21
ATOM     21  C   UNL     1      48.539   5.476  18.313  0.00  0.00    +0.000 C 
ATOM     22  F   UNL     1      47.225   5.477  18.654  0.00  0.00    +0.000 F 
ATOM     23  F   UNL     1      49.215   5.781  19.456  0.00  0.00    +0.000 F 
ATOM     24  F   UNL     1      48.700   6.555  17.494  0.00  0.00    +0.000 F 
ENDBRANCH  20  21
ENDBRANCH  14  15
ENDBRANCH   5  14
TORSDOF 4
ENDMDL
MODEL 7
REMARK VINA RESULT:    -6.237      1.715      2.374
REMARK INTER + INTRA:          -7.671
REMARK INTER:                  -7.833
REMARK INTRA:                   0.162
REMARK UNBOUND:                 0.024
REMARK  Name = 
REMARK  4 active torsions:
REMARK  status: ('A' for Active; 'I' for Inactive)
REMARK    1  A    between atoms: C_2  and  C_4
REMARK    2  A    between atoms: N_8  and  C_9
REMARK    3  A    between atoms: C_9  and  C_10
REMARK    4  A    between atoms: C_15  and  C_16
REMARK                            x       y       z     vdW  Elec       q    Type
REMARK                         _______ _______ _______ _____ _____    ______ ____
ROOT
ATOM      1  C   UNL     1      45.743   3.466   8.144  0.00  0.00    +0.000 A 
ATOM      2  C   UNL     1      44.848   2.610   8.778  0.00  0.00    +0.000 A 
ATOM      3  C   UNL     1      44.279   3.002   9.991  0.00  0.00    +0.000 A 
ATOM      4  C   UNL     1      44.587   4.249  10.532  0.00  0.00    +0.000 A 
ATOM      5  N   UNL     1      43.892   4.659  11.670  0.00  0.00    +0.000 N 
ATOM      6  N   UNL     1      45.468   5.075   9.931  0.00  0.00    +0.000 NA
ATOM      7  C   UNL     1      46.046   4.662   8.772  0.00  0.00    +0.000 A 
ATOM      8  H   UNL     1      44.002   4.027  12.461  0.00  0.00    +0.000 HD
ENDROOT
BRANCH   1  10
ATOM      9  N   UNL     1      46.759   1.861   6.632  0.00  0.00    +0.000 N 
ATOM     10  C   UNL     1      46.369   3.158   6.846  0.00  0.00    +0.000 C 
ATOM     11  O   UNL     1      46.496   4.008   5.976  0.00  0.00    +0.000 OA
ATOM     12  H   UNL     1      47.074   1.636   5.696  0.00  0.00    +0.000 HD
ATOM     13  H   UNL     1      46.430   1.098   7.206  0.00  0.00    +0.000 HD
ENDBRANCH   1  10
BRANCH   5  14
ATOM     14  C   UNL     1      44.088   6.049  12.065  0.00  0.00    +0.000 C 
BRANCH  14  15
ATOM     15  C   UNL     1      45.414   6.248  12.801  0.00  0.00    +0.000 A 
ATOM     16  N   UNL     1      45.943   5.147  13.422  0.00  0.00    +0.000 NA
ATOM     17  C   UNL     1      47.122   5.281  14.068  0.00  0.00    +0.000 A 
ATOM     18  C   UNL     1      47.838   6.459  14.118  0.00  0.00    +0.000 A 
ATOM     19  C   UNL     1      47.309   7.567  13.470  0.00  0.00    +0.000 A 
ATOM     20  C   UNL     1      46.079   7.481  12.792  0.00  0.00    +0.000 A 
BRANCH  20  21
ATOM     21  C   UNL     1      45.565   8.713  12.099  0.00  0.00    +0.000 C 
ATOM     22  F   UNL     1      46.507   9.616  11.726  0.00  0.00    +0.000 F 
ATOM     23  F   UNL     1      44.878   8.410  10.962  0.00  0.00    +0.000 F 
ATOM     24  F   UNL     1      44.690   9.408  12.881  0.00  0.00    +0.000 F 
ENDBRANCH  20  21
ENDBRANCH  14  15
ENDBRANCH   5  14
TORSDOF 4
ENDMDL
MODEL 8
REMARK VINA RESULT:    -6.206      4.964      7.176
REMARK INTER + INTRA:          -7.633
REMARK INTER:                  -7.124
REMARK INTRA:                  -0.509
REMARK UNBOUND:                 0.024
REMARK  Name = 
REMARK  4 active torsions:
REMARK  status: ('A' for Active; 'I' for Inactive)
REMARK    1  A    between atoms: C_2  and  C_4
REMARK    2  A    between atoms: N_8  and  C_9
REMARK    3  A    between atoms: C_9  and  C_10
REMARK    4  A    between atoms: C_15  and  C_16
REMARK                            x       y       z     vdW  Elec       q    Type
REMARK                         _______ _______ _______ _____ _____    ______ ____
ROOT
ATOM      1  C   UNL     1      47.778   4.533  16.645  0.00  0.00    +0.000 A 
ATOM      2  C   UNL     1      48.566   5.649  16.905  0.00  0.00    +0.000 A 
ATOM      3  C   UNL     1      48.849   6.536  15.866  0.00  0.00    +0.000 A 
ATOM      4  C   UNL     1      48.318   6.312  14.597  0.00  0.00    +0.000 A 
ATOM      5  N   UNL     1      48.510   7.293  13.623  0.00  0.00    +0.000 N 
ATOM      6  N   UNL     1      47.569   5.222  14.334  0.00  0.00    +0.000 NA
ATOM      7  C   UNL     1      47.336   4.344  15.346  0.00  0.00    +0.000 A 
ATOM      8  H   UNL     1      49.490   7.491  13.435  0.00  0.00    +0.000 HD
ENDROOT
BRANCH   1  10
ATOM      9  N   UNL     1      48.101   3.585  18.857  0.00  0.00    +0.000 N 
ATOM     10  C   UNL     1      47.396   3.557  17.681  0.00  0.00    +0.000 C 
ATOM     11  O   UNL     1      46.459   2.786  17.524  0.00  0.00    +0.000 OA
ATOM     12  H   UNL     1      47.752   2.997  19.603  0.00  0.00    +0.000 HD
ATOM     13  H   UNL     1      48.684   4.368  19.117  0.00  0.00    +0.000 HD
ENDBRANCH   1  10
BRANCH   5  14
ATOM     14  C   UNL     1      47.752   7.117  12.389  0.00  0.00    +0.000 C 
BRANCH  14  15
ATOM     15  C   UNL     1      46.785   8.277  12.147  0.00  0.00    +0.000 A 
ATOM     16  N   UNL     1      47.326   9.535  12.134  0.00  0.00    +0.000 NA
ATOM     17  C   UNL     1      46.505  10.583  11.906  0.00  0.00    +0.000 A 
ATOM     18  C   UNL     1      45.153  10.457  11.662  0.00  0.00    +0.000 A 
ATOM     19  C   UNL     1      44.611   9.178  11.656  0.00  0.00    +0.000 A 
ATOM     20  C   UNL     1      45.424   8.055  11.899  0.00  0.00    +0.000 A 
BRANCH  20  21
ATOM     21  C   UNL     1      44.781   6.696  11.867  0.00  0.00    +0.000 C 
ATOM     22  F   UNL     1      45.402   5.768  11.094  0.00  0.00    +0.000 F 
ATOM     23  F   UNL     1      44.698   6.142  13.109  0.00  0.00    +0.000 F 
ATOM     24  F   UNL     1      43.499   6.751  11.404  0.00  0.00    +0.000 F 
ENDBRANCH  20  21
ENDBRANCH  14  15
ENDBRANCH   5  14
TORSDOF 4
ENDMDL
MODEL 9
REMARK VINA RESULT:    -6.150      5.186      7.784
REMARK INTER + INTRA:          -7.565
REMARK INTER:                  -7.257
REMARK INTRA:                  -0.308
REMARK UNBOUND:                 0.024
REMARK  Name = 
REMARK  4 active torsions:
REMARK  status: ('A' for Active; 'I' for Inactive)
REMARK    1  A    between atoms: C_2  and  C_4
REMARK    2  A    between atoms: N_8  and  C_9
REMARK    3  A    between atoms: C_9  and  C_10
REMARK    4  A    between atoms: C_15  and  C_16
REMARK                            x       y       z     vdW  Elec       q    Type
REMARK                         _______ _______ _______ _____ _____    ______ ____
ROOT
ATOM      1  C   UNL     1      48.428   4.526  18.085  0.00  0.00    +0.000 A 
ATOM      2  C   UNL     1      49.002   5.623  17.451  0.00  0.00    +0.000 A 
ATOM      3  C   UNL     1      48.635   5.913  16.135  0.00  0.00    +0.000 A 
ATOM      4  C   UNL     1      47.683   5.125  15.490  0.00  0.00    +0.000 A 
ATOM      5  N   UNL     1      47.244   5.531  14.229  0.00  0.00    +0.000 N 
ATOM      6  N   UNL     1      47.138   4.050  16.094  0.00  0.00    +0.000 NA
ATOM      7  C   UNL     1      47.536   3.755  17.359  0.00  0.00    +0.000 A 
ATOM      8  H   UNL     1      47.992   5.603  13.543  0.00  0.00    +0.000 HD
ENDROOT
BRANCH   1  10
ATOM      9  N   UNL     1      48.291   2.929  19.909  0.00  0.00    +0.000 N 
ATOM     10  C   UNL     1      48.724   4.158  19.482  0.00  0.00    +0.000 C 
ATOM     11  O   UNL     1      49.368   4.893  20.217  0.00  0.00    +0.000 OA
ATOM     12  H   UNL     1      48.605   2.638  20.826  0.00  0.00    +0.000 HD
ATOM     13  H   UNL     1      48.003   2.205  19.266  0.00  0.00    +0.000 HD
ENDBRANCH   1  10
BRANCH   5  14
ATOM     14  C   UNL     1      46.097   4.805  13.695  0.00  0.00    +0.000 C 
BRANCH  14  15
ATOM     15  C   UNL     1      45.230   5.693  12.801  0.00  0.00    +0.000 A 
ATOM     16  N   UNL     1      45.605   7.006  12.693  0.00  0.00    +0.000 NA
ATOM     17  C   UNL     1      44.873   7.818  11.898  0.00  0.00    +0.000 A 
ATOM     18  C   UNL     1      43.780   7.393  11.170  0.00  0.00    +0.000 A 
ATOM     19  C   UNL     1      43.416   6.057  11.267  0.00  0.00    +0.000 A 
ATOM     20  C   UNL     1      44.141   5.175  12.089  0.00  0.00    +0.000 A 
BRANCH  20  21
ATOM     21  C   UNL     1      43.704   3.736  12.143  0.00  0.00    +0.000 C 
ATOM     22  F   UNL     1      42.643   3.413  11.359  0.00  0.00    +0.000 F 
ATOM     23  F   UNL     1      44.703   2.886  11.775  0.00  0.00    +0.000 F 
ATOM     24  F   UNL     1      43.348   3.360  13.404  0.00  0.00    +0.000 F 
ENDBRANCH  20  21
ENDBRANCH  14  15
ENDBRANCH   5  14
TORSDOF 4
ENDMDL
