MODEL 1
REMARK VINA RESULT:    -8.453      0.000      0.000
REMARK INTER + INTRA:         -11.677
REMARK INTER:                 -10.924
REMARK INTRA:                  -0.753
REMARK UNBOUND:                -0.753
REMARK  Name = 
REMARK  5 active torsions:
REMARK  status: ('A' for Active; 'I' for Inactive)
REMARK    1  A    between atoms: C_2  and  C_4
REMARK    2  A    between atoms: C_7  and  C_8
REMARK    3  A    between atoms: C_8  and  O_9
REMARK    4  A    between atoms: O_9  and  C_10
REMARK    5  A    between atoms: C_14  and  C_15
REMARK                            x       y       z     vdW  Elec       q    Type
REMARK                         _______ _______ _______ _____ _____    ______ ____
ROOT
ATOM      1  O   UNL     1      43.887   4.367  11.543  0.00  0.00    +0.000 OA
ENDROOT
BRANCH   1   2
ATOM      2  C   UNL     1      44.995   4.785  12.226  0.00  0.00    +0.000 A 
ATOM      3  C   UNL     1      45.821   3.987  13.012  0.00  0.00    +0.000 A 
ATOM      4  C   UNL     1      46.923   4.553  13.654  0.00  0.00    +0.000 A 
ATOM      5  C   UNL     1      47.180   5.920  13.539  0.00  0.00    +0.000 A 
ATOM      6  C   UNL     1      46.336   6.750  12.782  0.00  0.00    +0.000 A 
ATOM      7  C   UNL     1      45.261   6.156  12.107  0.00  0.00    +0.000 A 
BRANCH   6   8
ATOM      8  C   UNL     1      46.521   8.260  12.866  0.00  0.00    +0.000 C 
ATOM      9  C   UNL     1      47.761   8.834  12.156  0.00  0.00    +0.000 C 
ATOM     10  C   UNL     1      47.744  10.366  12.195  0.00  0.00    +0.000 C 
ATOM     11  C   UNL     1      46.429  10.922  11.653  0.00  0.00    +0.000 C 
ATOM     12  N   UNL     1      45.290  10.393  12.401  0.00  0.00    +0.000 NA
ATOM     13  C   UNL     1      45.241   8.932  12.320  0.00  0.00    +0.000 C 
ATOM     14  H   UNL     1      44.426  10.776  12.016  0.00  0.00    +0.000 HD
ENDBRANCH   6   8
ENDBRANCH   1   2
BRANCH   1  15
ATOM     15  C   UNL     1      43.778   4.740  10.166  0.00  0.00    +0.000 C 
BRANCH  15  19
ATOM     16  C   UNL     1      46.465   2.467   7.747  0.00  0.00    +0.000 A 
ATOM     17  C   UNL     1      45.681   1.797   8.681  0.00  0.00    +0.000 A 
ATOM     18  C   UNL     1      44.818   2.529   9.495  0.00  0.00    +0.000 A 
ATOM     19  C   UNL     1      44.743   3.914   9.340  0.00  0.00    +0.000 A 
ATOM     20  N   UNL     1      45.541   4.585   8.467  0.00  0.00    +0.000 NA
ATOM     21  C   UNL     1      46.385   3.853   7.698  0.00  0.00    +0.000 A 
BRANCH  16  23
ATOM     22  N   UNL     1      48.396   2.504   6.281  0.00  0.00    +0.000 N 
ATOM     23  C   UNL     1      47.366   1.771   6.807  0.00  0.00    +0.000 C 
ATOM     24  O   UNL     1      47.231   0.583   6.543  0.00  0.00    +0.000 OA
ATOM     25  H   UNL     1      49.078   1.988   5.739  0.00  0.00    +0.000 HD
ATOM     26  H   UNL     1      48.687   3.389   6.672  0.00  0.00    +0.000 HD
ENDBRANCH  16  23
ENDBRANCH  15  19
ENDBRANCH   1  15
TORSDOF 5
ENDMDL
MODEL 2
REMARK VINA RESULT:    -8.233      1.126      1.462
REMARK INTER + INTRA:         -11.392
REMARK INTER:                 -10.673
REMARK INTRA:                  -0.719
REMARK UNBOUND:                -0.753
REMARK  Name = 
REMARK  5 active torsions:
REMARK  status: ('A' for Active; 'I' for Inactive)
REMARK    1  A    between atoms: C_2  and  C_4
REMARK    2  A    between atoms: C_7  and  C_8
REMARK    3  A    between atoms: C_8  and  O_9
REMARK    4  A    between atoms: O_9  and  C_10
REMARK    5  A    between atoms: C_14  and  C_15
REMARK                            x       y       z     vdW  Elec       q    Type
REMARK                         _______ _______ _______ _____ _____    ______ ____
ROOT
ATOM      1  O   UNL     1      44.149   5.028  10.971  0.00  0.00    +0.000 OA
ENDROOT
BRANCH   1   2
ATOM      2  C   UNL     1      45.162   5.116  11.884  0.00  0.00    +0.000 A 
ATOM      3  C   UNL     1      45.416   4.214  12.914  0.00  0.00    +0.000 A 
ATOM      4  C   UNL     1      46.492   4.432  13.776  0.00  0.00    +0.000 A 
ATOM      5  C   UNL     1      47.290   5.568  13.632  0.00  0.00    +0.000 A 
ATOM      6  C   UNL     1      47.028   6.510  12.624  0.00  0.00    +0.000 A 
ATOM      7  C   UNL     1      45.972   6.250  11.739  0.00  0.00    +0.000 A 
BRANCH   6   8
ATOM      8  C   UNL     1      47.778   7.836  12.643  0.00  0.00    +0.000 C 
ATOM      9  C   UNL     1      48.819   8.044  11.528  0.00  0.00    +0.000 C 
ATOM     10  C   UNL     1      49.388   9.466  11.580  0.00  0.00    +0.000 C 
ATOM     11  C   UNL     1      48.275  10.512  11.566  0.00  0.00    +0.000 C 
ATOM     12  N   UNL     1      47.351  10.306  12.680  0.00  0.00    +0.000 NA
ATOM     13  C   UNL     1      46.737   8.978  12.615  0.00  0.00    +0.000 C 
ATOM     14  H   UNL     1      46.616  11.013  12.645  0.00  0.00    +0.000 HD
ENDBRANCH   6   8
ENDBRANCH   1   2
BRANCH   1  15
ATOM     15  C   UNL     1      43.833   3.731  10.456  0.00  0.00    +0.000 C 
BRANCH  15  19
ATOM     16  C   UNL     1      46.636   2.663   7.416  0.00  0.00    +0.000 A 
ATOM     17  C   UNL     1      46.215   3.987   7.499  0.00  0.00    +0.000 A 
ATOM     18  C   UNL     1      45.282   4.344   8.470  0.00  0.00    +0.000 A 
ATOM     19  C   UNL     1      44.807   3.373   9.352  0.00  0.00    +0.000 A 
ATOM     20  N   UNL     1      45.170   2.067   9.249  0.00  0.00    +0.000 NA
ATOM     21  C   UNL     1      46.067   1.740   8.284  0.00  0.00    +0.000 A 
BRANCH  16  23
ATOM     22  N   UNL     1      47.824   2.953   5.323  0.00  0.00    +0.000 N 
ATOM     23  C   UNL     1      47.660   2.204   6.457  0.00  0.00    +0.000 C 
ATOM     24  O   UNL     1      48.363   1.227   6.682  0.00  0.00    +0.000 OA
ATOM     25  H   UNL     1      48.610   2.703   4.735  0.00  0.00    +0.000 HD
ATOM     26  H   UNL     1      47.456   3.889   5.233  0.00  0.00    +0.000 HD
ENDBRANCH  16  23
ENDBRANCH  15  19
ENDBRANCH   1  15
TORSDOF 5
ENDMDL
MODEL 3
REMARK VINA RESULT:    -8.228      1.971      2.742
REMARK INTER + INTRA:         -11.386
REMARK INTER:                 -10.636
REMARK INTRA:                  -0.750
REMARK UNBOUND:                -0.753
REMARK  Name = 
REMARK  5 active torsions:
REMARK  status: ('A' for Active; 'I' for Inactive)
REMARK    1  A    between atoms: C_2  and  C_4
REMARK    2  A    between atoms: C_7  and  C_8
REMARK    3  A    between atoms: C_8  and  O_9
REMARK    4  A    between atoms: O_9  and  C_10
REMARK    5  A    between atoms: C_14  and  C_15
REMARK                            x       y       z     vdW  Elec       q    Type
REMARK                         _______ _______ _______ _____ _____    ______ ____
ROOT
ATOM      1  O   UNL     1      44.504   3.914  11.757  0.00  0.00    +0.000 OA
ENDROOT
BRANCH   1   2
ATOM      2  C   UNL     1      44.932   5.210  11.823  0.00  0.00    +0.000 A 
ATOM      3  C   UNL     1      44.173   6.339  11.527  0.00  0.00    +0.000 A 
ATOM      4  C   UNL     1      44.746   7.607  11.638  0.00  0.00    +0.000 A 
ATOM      5  C   UNL     1      46.084   7.745  12.011  0.00  0.00    +0.000 A 
ATOM      6  C   UNL     1      46.878   6.617  12.276  0.00  0.00    +0.000 A 
ATOM      7  C   UNL     1      46.273   5.355  12.204  0.00  0.00    +0.000 A 
BRANCH   6   8
ATOM      8  C   UNL     1      48.379   6.801  12.458  0.00  0.00    +0.000 C 
ATOM      9  C   UNL     1      49.029   7.936  11.644  0.00  0.00    +0.000 C 
ATOM     10  C   UNL     1      50.502   8.101  12.031  0.00  0.00    +0.000 C 
ATOM     11  C   UNL     1      50.667   8.271  13.540  0.00  0.00    +0.000 C 
ATOM     12  N   UNL     1      50.088   7.138  14.260  0.00  0.00    +0.000 NA
ATOM     13  C   UNL     1      48.661   7.000  13.964  0.00  0.00    +0.000 C 
ATOM     14  H   UNL     1      50.206   7.279  15.264  0.00  0.00    +0.000 HD
ENDBRANCH   6   8
ENDBRANCH   1   2
BRANCH   1  15
ATOM     15  C   UNL     1      43.754   3.522  10.603  0.00  0.00    +0.000 C 
BRANCH  15  19
ATOM     16  C   UNL     1      46.490   2.637   7.446  0.00  0.00    +0.000 A 
ATOM     17  C   UNL     1      45.995   3.933   7.555  0.00  0.00    +0.000 A 
ATOM     18  C   UNL     1      45.083   4.230   8.565  0.00  0.00    +0.000 A 
ATOM     19  C   UNL     1      44.702   3.228   9.458  0.00  0.00    +0.000 A 
ATOM     20  N   UNL     1      45.137   1.946   9.331  0.00  0.00    +0.000 NA
ATOM     21  C   UNL     1      46.012   1.678   8.329  0.00  0.00    +0.000 A 
BRANCH  16  23
ATOM     22  N   UNL     1      47.525   2.961   5.278  0.00  0.00    +0.000 N 
ATOM     23  C   UNL     1      47.499   2.243   6.444  0.00  0.00    +0.000 C 
ATOM     24  O   UNL     1      48.308   1.350   6.658  0.00  0.00    +0.000 OA
ATOM     25  H   UNL     1      48.298   2.768   4.652  0.00  0.00    +0.000 HD
ATOM     26  H   UNL     1      47.061   3.853   5.180  0.00  0.00    +0.000 HD
ENDBRANCH  16  23
ENDBRANCH  15  19
ENDBRANCH   1  15
TORSDOF 5
ENDMDL
MODEL 4
REMARK VINA RESULT:    -7.843      2.331      3.520
REMARK INTER + INTRA:         -10.888
REMARK INTER:                 -10.209
REMARK INTRA:                  -0.679
REMARK UNBOUND:                -0.753
REMARK  Name = 
REMARK  5 active torsions:
REMARK  status: ('A' for Active; 'I' for Inactive)
REMARK    1  A    between atoms: C_2  and  C_4
REMARK    2  A    between atoms: C_7  and  C_8
REMARK    3  A    between atoms: C_8  and  O_9
REMARK    4  A    between atoms: O_9  and  C_10
REMARK    5  A    between atoms: C_14  and  C_15
REMARK                            x       y       z     vdW  Elec       q    Type
REMARK                         _______ _______ _______ _____ _____    ______ ____
ROOT
ATOM      1  O   UNL     1      44.400   3.795  11.724  0.00  0.00    +0.000 OA
ENDROOT
BRANCH   1   2
ATOM      2  C   UNL     1      45.040   4.934  12.123  0.00  0.00    +0.000 A 
ATOM      3  C   UNL     1      44.842   6.210  11.603  0.00  0.00    +0.000 A 
ATOM      4  C   UNL     1      45.571   7.286  12.110  0.00  0.00    +0.000 A 
ATOM      5  C   UNL     1      46.522   7.083  13.112  0.00  0.00    +0.000 A 
ATOM      6  C   UNL     1      46.765   5.798  13.624  0.00  0.00    +0.000 A 
ATOM      7  C   UNL     1      45.990   4.737  13.135  0.00  0.00    +0.000 A 
BRANCH   6   8
ATOM      8  C   UNL     1      47.959   5.587  14.547  0.00  0.00    +0.000 C 
ATOM      9  C   UNL     1      48.551   6.853  15.193  0.00  0.00    +0.000 C 
ATOM     10  C   UNL     1      49.643   6.483  16.202  0.00  0.00    +0.000 C 
ATOM     11  C   UNL     1      49.135   5.468  17.224  0.00  0.00    +0.000 C 
ATOM     12  N   UNL     1      48.642   4.262  16.562  0.00  0.00    +0.000 NA
ATOM     13  C   UNL     1      47.547   4.577  15.642  0.00  0.00    +0.000 C 
ATOM     14  H   UNL     1      48.305   3.603  17.265  0.00  0.00    +0.000 HD
ENDBRANCH   6   8
ENDBRANCH   1   2
BRANCH   1  15
ATOM     15  C   UNL     1      43.753   3.812  10.448  0.00  0.00    +0.000 C 
BRANCH  15  19
ATOM     16  C   UNL     1      46.606   2.660   7.486  0.00  0.00    +0.000 A 
ATOM     17  C   UNL     1      46.214   3.994   7.551  0.00  0.00    +0.000 A 
ATOM     18  C   UNL     1      45.265   4.379   8.496  0.00  0.00    +0.000 A 
ATOM     19  C   UNL     1      44.745   3.424   9.371  0.00  0.00    +0.000 A 
ATOM     20  N   UNL     1      45.081   2.110   9.284  0.00  0.00    +0.000 NA
ATOM     21  C   UNL     1      45.994   1.757   8.345  0.00  0.00    +0.000 A 
BRANCH  16  23
ATOM     22  N   UNL     1      47.886   2.935   5.446  0.00  0.00    +0.000 N 
ATOM     23  C   UNL     1      47.642   2.172   6.556  0.00  0.00    +0.000 C 
ATOM     24  O   UNL     1      48.288   1.157   6.785  0.00  0.00    +0.000 OA
ATOM     25  H   UNL     1      48.682   2.660   4.882  0.00  0.00    +0.000 HD
ATOM     26  H   UNL     1      47.568   3.890   5.364  0.00  0.00    +0.000 HD
ENDBRANCH  16  23
ENDBRANCH  15  19
ENDBRANCH   1  15
TORSDOF 5
ENDMDL
MODEL 5
REMARK VINA RESULT:    -7.457      4.194      8.076
REMARK INTER + INTRA:         -10.389
REMARK INTER:                  -9.894
REMARK INTRA:                  -0.495
REMARK UNBOUND:                -0.753
REMARK  Name = 
REMARK  5 active torsions:
REMARK  status: ('A' for Active; 'I' for Inactive)
REMARK    1  A    between atoms: C_2  and  C_4
REMARK    2  A    between atoms: C_7  and  C_8
REMARK    3  A    between atoms: C_8  and  O_9
REMARK    4  A    between atoms: O_9  and  C_10
REMARK    5  A    between atoms: C_14  and  C_15
REMARK                            x       y       z     vdW  Elec       q    Type
REMARK                         _______ _______ _______ _____ _____    ______ ____
ROOT
ATOM      1  O   UNL     1      45.358   4.290  14.043  0.00  0.00    +0.000 OA
ENDROOT
BRANCH   1   2
ATOM      2  C   UNL     1      44.561   4.589  12.974  0.00  0.00    +0.000 A 
ATOM      3  C   UNL     1      43.330   5.239  13.027  0.00  0.00    +0.000 A 
ATOM      4  C   UNL     1      42.622   5.478  11.849  0.00  0.00    +0.000 A 
ATOM      5  C   UNL     1      43.125   5.038  10.623  0.00  0.00    +0.000 A 
ATOM      6  C   UNL     1      44.346   4.347  10.552  0.00  0.00    +0.000 A 
ATOM      7  C   UNL     1      45.065   4.157  11.740  0.00  0.00    +0.000 A 
BRANCH   6   8
ATOM      8  C   UNL     1      44.745   3.693   9.235  0.00  0.00    +0.000 C 
ATOM      9  C   UNL     1      45.795   4.442   8.394  0.00  0.00    +0.000 C 
ATOM     10  C   UNL     1      46.208   3.606   7.178  0.00  0.00    +0.000 C 
ATOM     11  C   UNL     1      46.656   2.206   7.591  0.00  0.00    +0.000 C 
ATOM     12  N   UNL     1      45.600   1.517   8.331  0.00  0.00    +0.000 NA
ATOM     13  C   UNL     1      45.236   2.259   9.540  0.00  0.00    +0.000 C 
ATOM     14  H   UNL     1      45.926   0.588   8.600  0.00  0.00    +0.000 HD
ENDBRANCH   6   8
ENDBRANCH   1   2
BRANCH   1  15
ATOM     15  C   UNL     1      46.761   4.536  13.910  0.00  0.00    +0.000 C 
BRANCH  15  19
ATOM     16  C   UNL     1      48.511   4.369  17.802  0.00  0.00    +0.000 A 
ATOM     17  C   UNL     1      48.674   5.527  17.048  0.00  0.00    +0.000 A 
ATOM     18  C   UNL     1      48.130   5.586  15.767  0.00  0.00    +0.000 A 
ATOM     19  C   UNL     1      47.415   4.492  15.276  0.00  0.00    +0.000 A 
ATOM     20  N   UNL     1      47.294   3.336  15.982  0.00  0.00    +0.000 NA
ATOM     21  C   UNL     1      47.847   3.297  17.221  0.00  0.00    +0.000 A 
BRANCH  16  23
ATOM     22  N   UNL     1      48.362   3.331  19.988  0.00  0.00    +0.000 N 
ATOM     23  C   UNL     1      49.005   4.236  19.187  0.00  0.00    +0.000 C 
ATOM     24  O   UNL     1      49.973   4.867  19.591  0.00  0.00    +0.000 OA
ATOM     25  H   UNL     1      48.786   3.156  20.892  0.00  0.00    +0.000 HD
ATOM     26  H   UNL     1      47.748   2.619  19.618  0.00  0.00    +0.000 HD
ENDBRANCH  16  23
ENDBRANCH  15  19
ENDBRANCH   1  15
TORSDOF 5
ENDMDL
MODEL 6
REMARK VINA RESULT:    -7.220      2.608      6.870
REMARK INTER + INTRA:         -10.082
REMARK INTER:                  -9.310
REMARK INTRA:                  -0.772
REMARK UNBOUND:                -0.753
REMARK  Name = 
REMARK  5 active torsions:
REMARK  status: ('A' for Active; 'I' for Inactive)
REMARK    1  A    between atoms: C_2  and  C_4
REMARK    2  A    between atoms: C_7  and  C_8
REMARK    3  A    between atoms: C_8  and  O_9
REMARK    4  A    between atoms: O_9  and  C_10
REMARK    5  A    between atoms: C_14  and  C_15
REMARK                            x       y       z     vdW  Elec       q    Type
REMARK                         _______ _______ _______ _____ _____    ______ ____
ROOT
ATOM      1  O   UNL     1      44.433   6.476  11.329  0.00  0.00    +0.000 OA
ENDROOT
BRANCH   1   2
ATOM      2  C   UNL     1      44.254   5.148  11.058  0.00  0.00    +0.000 A 
ATOM      3  C   UNL     1      43.688   4.207  11.915  0.00  0.00    +0.000 A 
ATOM      4  C   UNL     1      43.570   2.879  11.503  0.00  0.00    +0.000 A 
ATOM      5  C   UNL     1      44.047   2.484  10.252  0.00  0.00    +0.000 A 
ATOM      6  C   UNL     1      44.656   3.410   9.388  0.00  0.00    +0.000 A 
ATOM      7  C   UNL     1      44.724   4.748   9.800  0.00  0.00    +0.000 A 
BRANCH   6   8
ATOM      8  C   UNL     1      45.359   2.897   8.138  0.00  0.00    +0.000 C 
ATOM      9  C   UNL     1      46.367   3.859   7.482  0.00  0.00    +0.000 C 
ATOM     10  C   UNL     1      47.102   3.165   6.330  0.00  0.00    +0.000 C 
ATOM     11  C   UNL     1      47.733   1.850   6.783  0.00  0.00    +0.000 C 
ATOM     12  N   UNL     1      46.723   0.952   7.340  0.00  0.00    +0.000 NA
ATOM     13  C   UNL     1      46.053   1.562   8.490  0.00  0.00    +0.000 C 
ATOM     14  H   UNL     1      47.170   0.084   7.639  0.00  0.00    +0.000 HD
ENDBRANCH   6   8
ENDBRANCH   1   2
BRANCH   1  15
ATOM     15  C   UNL     1      44.900   6.828  12.634  0.00  0.00    +0.000 C 
BRANCH  15  19
ATOM     16  C   UNL     1      49.068   7.722  12.372  0.00  0.00    +0.000 A 
ATOM     17  C   UNL     1      48.683   6.478  12.863  0.00  0.00    +0.000 A 
ATOM     18  C   UNL     1      47.327   6.183  12.978  0.00  0.00    +0.000 A 
ATOM     19  C   UNL     1      46.384   7.131  12.577  0.00  0.00    +0.000 A 
ATOM     20  N   UNL     1      46.746   8.368  12.144  0.00  0.00    +0.000 NA
ATOM     21  C   UNL     1      48.073   8.638  12.058  0.00  0.00    +0.000 A 
BRANCH  16  23
ATOM     22  N   UNL     1      51.301   8.045  13.258  0.00  0.00    +0.000 N 
ATOM     23  C   UNL     1      50.479   8.102  12.165  0.00  0.00    +0.000 C 
ATOM     24  O   UNL     1      50.910   8.409  11.061  0.00  0.00    +0.000 OA
ATOM     25  H   UNL     1      52.289   8.185  13.081  0.00  0.00    +0.000 HD
ATOM     26  H   UNL     1      51.047   7.553  14.103  0.00  0.00    +0.000 HD
ENDBRANCH  16  23
ENDBRANCH  15  19
ENDBRANCH   1  15
TORSDOF 5
ENDMDL
MODEL 7
REMARK VINA RESULT:    -7.098      5.196      7.960
REMARK INTER + INTRA:          -9.926
REMARK INTER:                  -9.329
REMARK INTRA:                  -0.597
REMARK UNBOUND:                -0.753
REMARK  Name = 
REMARK  5 active torsions:
REMARK  status: ('A' for Active; 'I' for Inactive)
REMARK    1  A    between atoms: C_2  and  C_4
REMARK    2  A    between atoms: C_7  and  C_8
REMARK    3  A    between atoms: C_8  and  O_9
REMARK    4  A    between atoms: O_9  and  C_10
REMARK    5  A    between atoms: C_14  and  C_15
REMARK                            x       y       z     vdW  Elec       q    Type
REMARK                         _______ _______ _______ _____ _____    ______ ____
ROOT
ATOM      1  O   UNL     1      47.000   4.062  15.465  0.00  0.00    +0.000 OA
ENDROOT
BRANCH   1   2
ATOM      2  C   UNL     1      46.931   4.854  14.354  0.00  0.00    +0.000 A 
ATOM      3  C   UNL     1      47.457   6.137  14.229  0.00  0.00    +0.000 A 
ATOM      4  C   UNL     1      47.310   6.832  13.028  0.00  0.00    +0.000 A 
ATOM      5  C   UNL     1      46.608   6.261  11.965  0.00  0.00    +0.000 A 
ATOM      6  C   UNL     1      46.037   4.983  12.083  0.00  0.00    +0.000 A 
ATOM      7  C   UNL     1      46.235   4.282  13.280  0.00  0.00    +0.000 A 
BRANCH   6   8
ATOM      8  C   UNL     1      45.096   4.494  10.989  0.00  0.00    +0.000 C 
ATOM      9  C   UNL     1      45.551   4.743   9.539  0.00  0.00    +0.000 C 
ATOM     10  C   UNL     1      44.589   4.075   8.550  0.00  0.00    +0.000 C 
ATOM     11  C   UNL     1      44.395   2.595   8.874  0.00  0.00    +0.000 C 
ATOM     12  N   UNL     1      43.904   2.420  10.240  0.00  0.00    +0.000 NA
ATOM     13  C   UNL     1      44.841   2.986  11.213  0.00  0.00    +0.000 C 
ATOM     14  H   UNL     1      43.788   1.424  10.433  0.00  0.00    +0.000 HD
ENDBRANCH   6   8
ENDBRANCH   1   2
BRANCH   1  15
ATOM     15  C   UNL     1      47.666   4.592  16.615  0.00  0.00    +0.000 C 
BRANCH  15  19
ATOM     16  C   UNL     1      51.166   2.272  17.396  0.00  0.00    +0.000 A 
ATOM     17  C   UNL     1      51.147   3.605  17.795  0.00  0.00    +0.000 A 
ATOM     18  C   UNL     1      50.022   4.380  17.524  0.00  0.00    +0.000 A 
ATOM     19  C   UNL     1      48.930   3.798  16.879  0.00  0.00    +0.000 A 
ATOM     20  N   UNL     1      48.955   2.513  16.438  0.00  0.00    +0.000 NA
ATOM     21  C   UNL     1      50.069   1.782  16.699  0.00  0.00    +0.000 A 
BRANCH  16  23
ATOM     22  N   UNL     1      51.976   0.150  18.244  0.00  0.00    +0.000 N 
ATOM     23  C   UNL     1      52.290   1.361  17.687  0.00  0.00    +0.000 C 
ATOM     24  O   UNL     1      53.445   1.650  17.404  0.00  0.00    +0.000 OA
ATOM     25  H   UNL     1      52.737  -0.514  18.323  0.00  0.00    +0.000 HD
ATOM     26  H   UNL     1      51.036  -0.219  18.245  0.00  0.00    +0.000 HD
ENDBRANCH  16  23
ENDBRANCH  15  19
ENDBRANCH   1  15
TORSDOF 5
ENDMDL
MODEL 8
REMARK VINA RESULT:    -6.848      3.756      7.533
REMARK INTER + INTRA:          -9.602
REMARK INTER:                  -9.199
REMARK INTRA:                  -0.403
REMARK UNBOUND:                -0.753
REMARK  Name = 
REMARK  5 active torsions:
REMARK  status: ('A' for Active; 'I' for Inactive)
REMARK    1  A    between atoms: C_2  and  C_4
REMARK    2  A    between atoms: C_7  and  C_8
REMARK    3  A    between atoms: C_8  and  O_9
REMARK    4  A    between atoms: O_9  and  C_10
REMARK    5  A    between atoms: C_14  and  C_15
REMARK                            x       y       z     vdW  Elec       q    Type
REMARK                         _______ _______ _______ _____ _____    ______ ____
ROOT
ATOM      1  O   UNL     1      48.411   7.045  12.938  0.00  0.00    +0.000 OA
ENDROOT
BRANCH   1   2
ATOM      2  C   UNL     1      47.137   7.216  12.473  0.00  0.00    +0.000 A 
ATOM      3  C   UNL     1      46.277   8.258  12.807  0.00  0.00    +0.000 A 
ATOM      4  C   UNL     1      44.997   8.305  12.252  0.00  0.00    +0.000 A 
ATOM      5  C   UNL     1      44.565   7.293  11.393  0.00  0.00    +0.000 A 
ATOM      6  C   UNL     1      45.403   6.212  11.074  0.00  0.00    +0.000 A 
ATOM      7  C   UNL     1      46.701   6.207  11.603  0.00  0.00    +0.000 A 
BRANCH   6   8
ATOM      8  C   UNL     1      44.818   5.025  10.319  0.00  0.00    +0.000 C 
ATOM      9  C   UNL     1      45.454   4.707   8.953  0.00  0.00    +0.000 C 
ATOM     10  C   UNL     1      44.873   3.412   8.377  0.00  0.00    +0.000 C 
ATOM     11  C   UNL     1      44.981   2.260   9.373  0.00  0.00    +0.000 C 
ATOM     12  N   UNL     1      44.308   2.591  10.629  0.00  0.00    +0.000 NA
ATOM     13  C   UNL     1      44.893   3.786  11.240  0.00  0.00    +0.000 C 
ATOM     14  H   UNL     1      44.400   1.809  11.278  0.00  0.00    +0.000 HD
ENDBRANCH   6   8
ENDBRANCH   1   2
BRANCH   1  15
ATOM     15  C   UNL     1      48.702   7.515  14.258  0.00  0.00    +0.000 C 
BRANCH  15  19
ATOM     16  C   UNL     1      47.946   4.363  17.037  0.00  0.00    +0.000 A 
ATOM     17  C   UNL     1      48.617   5.498  17.483  0.00  0.00    +0.000 A 
ATOM     18  C   UNL     1      48.893   6.523  16.581  0.00  0.00    +0.000 A 
ATOM     19  C   UNL     1      48.471   6.400  15.257  0.00  0.00    +0.000 A 
ATOM     20  N   UNL     1      47.861   5.275  14.797  0.00  0.00    +0.000 NA
ATOM     21  C   UNL     1      47.619   4.283  15.690  0.00  0.00    +0.000 A 
BRANCH  16  23
ATOM     22  N   UNL     1      48.323   3.076  19.057  0.00  0.00    +0.000 N 
ATOM     23  C   UNL     1      47.564   3.252  17.931  0.00  0.00    +0.000 C 
ATOM     24  O   UNL     1      46.588   2.548  17.706  0.00  0.00    +0.000 OA
ATOM     25  H   UNL     1      47.979   2.395  19.724  0.00  0.00    +0.000 HD
ATOM     26  H   UNL     1      48.955   3.785  19.402  0.00  0.00    +0.000 HD
ENDBRANCH  16  23
ENDBRANCH  15  19
ENDBRANCH   1  15
TORSDOF 5
ENDMDL
MODEL 9
REMARK VINA RESULT:    -6.539      4.693      8.336
REMARK INTER + INTRA:          -9.203
REMARK INTER:                  -8.709
REMARK INTRA:                  -0.494
REMARK UNBOUND:                -0.753
REMARK  Name = 
REMARK  5 active torsions:
REMARK  status: ('A' for Active; 'I' for Inactive)
REMARK    1  A    between atoms: C_2  and  C_4
REMARK    2  A    between atoms: C_7  and  C_8
REMARK    3  A    between atoms: C_8  and  O_9
REMARK    4  A    between atoms: O_9  and  C_10
REMARK    5  A    between atoms: C_14  and  C_15
REMARK                            x       y       z     vdW  Elec       q    Type
REMARK                         _______ _______ _______ _____ _____    ______ ____
ROOT
ATOM      1  O   UNL     1      47.627   5.667  14.104  0.00  0.00    +0.000 OA
ENDROOT
BRANCH   1   2
ATOM      2  C   UNL     1      46.779   6.196  13.172  0.00  0.00    +0.000 A 
ATOM      3  C   UNL     1      46.303   7.505  13.147  0.00  0.00    +0.000 A 
ATOM      4  C   UNL     1      45.437   7.907  12.129  0.00  0.00    +0.000 A 
ATOM      5  C   UNL     1      45.020   6.996  11.158  0.00  0.00    +0.000 A 
ATOM      6  C   UNL     1      45.458   5.662  11.187  0.00  0.00    +0.000 A 
ATOM      7  C   UNL     1      46.364   5.288  12.189  0.00  0.00    +0.000 A 
BRANCH   6   8
ATOM      8  C   UNL     1      44.807   4.654  10.248  0.00  0.00    +0.000 C 
ATOM      9  C   UNL     1      45.476   4.475   8.873  0.00  0.00    +0.000 C 
ATOM     10  C   UNL     1      44.811   3.334   8.094  0.00  0.00    +0.000 C 
ATOM     11  C   UNL     1      44.772   2.048   8.916  0.00  0.00    +0.000 C 
ATOM     12  N   UNL     1      44.072   2.258  10.183  0.00  0.00    +0.000 NA
ATOM     13  C   UNL     1      44.731   3.295  10.980  0.00  0.00    +0.000 C 
ATOM     14  H   UNL     1      44.065   1.387  10.714  0.00  0.00    +0.000 HD
ENDBRANCH   6   8
ENDBRANCH   1   2
BRANCH   1  15
ATOM     15  C   UNL     1      47.088   4.711  15.022  0.00  0.00    +0.000 C 
BRANCH  15  19
ATOM     16  C   UNL     1      49.476   4.736  18.562  0.00  0.00    +0.000 A 
ATOM     17  C   UNL     1      48.407   3.848  18.485  0.00  0.00    +0.000 A 
ATOM     18  C   UNL     1      47.605   3.847  17.347  0.00  0.00    +0.000 A 
ATOM     19  C   UNL     1      47.903   4.719  16.299  0.00  0.00    +0.000 A 
ATOM     20  N   UNL     1      48.911   5.627  16.383  0.00  0.00    +0.000 NA
ATOM     21  C   UNL     1      49.668   5.621  17.509  0.00  0.00    +0.000 A 
BRANCH  16  23
ATOM     22  N   UNL     1      51.569   4.052  19.577  0.00  0.00    +0.000 N 
ATOM     23  C   UNL     1      50.411   4.772  19.704  0.00  0.00    +0.000 C 
ATOM     24  O   UNL     1      50.189   5.448  20.700  0.00  0.00    +0.000 OA
ATOM     25  H   UNL     1      52.257   4.183  20.308  0.00  0.00    +0.000 HD
ATOM     26  H   UNL     1      51.898   3.707  18.686  0.00  0.00    +0.000 HD
ENDBRANCH  16  23
ENDBRANCH  15  19
ENDBRANCH   1  15
TORSDOF 5
ENDMDL
