MODEL 1
REMARK VINA RESULT:    -8.552      0.000      0.000
REMARK INTER + INTRA:         -12.348
REMARK INTER:                 -12.051
REMARK INTRA:                  -0.297
REMARK UNBOUND:                -0.297
REMARK  Name = 
REMARK  7 active torsions:
REMARK  status: ('A' for Active; 'I' for Inactive)
REMARK    1  A    between atoms: C_2  and  C_3
REMARK    2  A    between atoms: C_3  and  C_4
REMARK    3  A    between atoms: C_3  and  C_25
REMARK    4  A    between atoms: C_4  and  C_5
REMARK    5  A    between atoms: C_8  and  C_9
REMARK    6  A    between atoms: C_9  and  N_10
REMARK    7  A    between atoms: C_11  and  C_13
REMARK                            x       y       z     vdW  Elec       q    Type
REMARK                         _______ _______ _______ _____ _____    ______ ____
ROOT
ATOM      1  C   UNL     1      45.750   4.065  12.704  0.00  0.00    +0.000 A 
ATOM      2  C   UNL     1      46.015   5.324  12.180  0.00  0.00    +0.000 A 
ATOM      3  C   UNL     1      46.846   6.193  12.893  0.00  0.00    +0.000 A 
ATOM      4  C   UNL     1      47.377   5.806  14.125  0.00  0.00    +0.000 A 
ATOM      5  C   UNL     1      47.086   4.522  14.557  0.00  0.00    +0.000 A 
ATOM      6  N   UNL     1      46.289   3.660  13.881  0.00  0.00    +0.000 NA
ENDROOT
BRANCH   1   7
ATOM      7  C   UNL     1      44.770   3.086  12.102  0.00  0.00    +0.000 C 
BRANCH   7   8
ATOM      8  C   UNL     1      43.991   3.456  10.824  0.00  0.00    +0.000 C 
BRANCH   8   9
ATOM      9  C   UNL     1      44.874   3.277   9.583  0.00  0.00    +0.000 A 
ATOM     10  C   UNL     1      45.252   1.993   9.158  0.00  0.00    +0.000 A 
ATOM     11  C   UNL     1      46.063   1.827   8.028  0.00  0.00    +0.000 A 
ATOM     12  C   UNL     1      46.503   2.940   7.316  0.00  0.00    +0.000 A 
ATOM     13 CL   UNL     1      47.505   2.735   5.934  0.00  0.00    +0.000 Cl
ATOM     14  C   UNL     1      46.132   4.220   7.716  0.00  0.00    +0.000 A 
ATOM     15  C   UNL     1      45.317   4.387   8.838  0.00  0.00    +0.000 A 
ENDBRANCH   8   9
BRANCH   8  17
ATOM     16  N   UNL     1      42.999   5.898  10.959  0.00  0.00    +0.000 NA
ATOM     17  C   UNL     1      43.442   4.827  10.878  0.00  0.00    +0.000 C 
ENDBRANCH   8  17
ENDBRANCH   7   8
ENDBRANCH   1   7
BRANCH   4  18
ATOM     18  C   UNL     1      48.240   6.726  14.936  0.00  0.00    +0.000 C 
BRANCH  18  19
ATOM     19  N   UNL     1      49.351   6.026  15.528  0.00  0.00    +0.000 N 
ATOM     20  C   UNL     1      49.370   5.736  16.869  0.00  0.00    +0.000 C 
ATOM     21  O   UNL     1      48.424   6.010  17.603  0.00  0.00    +0.000 OA
ATOM     22  H   UNL     1      50.217   5.991  14.997  0.00  0.00    +0.000 HD
BRANCH  20  23
ATOM     23  C   UNL     1      50.559   5.039  17.376  0.00  0.00    +0.000 A 
ATOM     24  C   UNL     1      51.605   5.773  17.920  0.00  0.00    +0.000 A 
ATOM     25  S   UNL     1      52.895   4.812  18.487  0.00  0.00    +0.000 S 
ATOM     26  C   UNL     1      52.122   3.381  17.984  0.00  0.00    +0.000 A 
ATOM     27  N   UNL     1      52.718   2.169  18.151  0.00  0.00    +0.000 NA
ATOM     28  C   UNL     1      52.030   1.171  17.702  0.00  0.00    +0.000 A 
ATOM     29  N   UNL     1      50.799   1.276  17.110  0.00  0.00    +0.000 N 
ATOM     30  C   UNL     1      50.147   2.472  16.946  0.00  0.00    +0.000 A 
ATOM     31  O   UNL     1      49.026   2.531  16.449  0.00  0.00    +0.000 OA
ATOM     32  C   UNL     1      50.885   3.632  17.416  0.00  0.00    +0.000 A 
ATOM     33  H   UNL     1      50.306   0.452  16.795  0.00  0.00    +0.000 HD
ENDBRANCH  20  23
ENDBRANCH  18  19
ENDBRANCH   4  18
TORSDOF 7
ENDMDL
MODEL 2
REMARK VINA RESULT:    -8.386      2.319      2.629
REMARK INTER + INTRA:         -12.115
REMARK INTER:                 -11.006
REMARK INTRA:                  -1.109
REMARK UNBOUND:                -0.297
REMARK  Name = 
REMARK  7 active torsions:
REMARK  status: ('A' for Active; 'I' for Inactive)
REMARK    1  A    between atoms: C_2  and  C_3
REMARK    2  A    between atoms: C_3  and  C_4
REMARK    3  A    between atoms: C_3  and  C_25
REMARK    4  A    between atoms: C_4  and  C_5
REMARK    5  A    between atoms: C_8  and  C_9
REMARK    6  A    between atoms: C_9  and  N_10
REMARK    7  A    between atoms: C_11  and  C_13
REMARK                            x       y       z     vdW  Elec       q    Type
REMARK                         _______ _______ _______ _____ _____    ______ ____
ROOT
ATOM      1  C   UNL     1      45.233   6.363  11.559  0.00  0.00    +0.000 A 
ATOM      2  C   UNL     1      44.816   7.665  11.806  0.00  0.00    +0.000 A 
ATOM      3  C   UNL     1      45.617   8.493  12.599  0.00  0.00    +0.000 A 
ATOM      4  C   UNL     1      46.803   8.006  13.152  0.00  0.00    +0.000 A 
ATOM      5  C   UNL     1      47.157   6.705  12.827  0.00  0.00    +0.000 A 
ATOM      6  N   UNL     1      46.401   5.886  12.058  0.00  0.00    +0.000 NA
ENDROOT
BRANCH   1   7
ATOM      7  C   UNL     1      44.403   5.332  10.833  0.00  0.00    +0.000 C 
BRANCH   7   8
ATOM      8  C   UNL     1      44.845   3.855  10.815  0.00  0.00    +0.000 C 
BRANCH   8   9
ATOM      9  C   UNL     1      45.446   3.488   9.453  0.00  0.00    +0.000 A 
ATOM     10  C   UNL     1      45.603   2.142   9.083  0.00  0.00    +0.000 A 
ATOM     11  C   UNL     1      46.157   1.805   7.841  0.00  0.00    +0.000 A 
ATOM     12  C   UNL     1      46.557   2.808   6.961  0.00  0.00    +0.000 A 
ATOM     13 CL   UNL     1      47.244   2.392   5.441  0.00  0.00    +0.000 Cl
ATOM     14  C   UNL     1      46.401   4.146   7.306  0.00  0.00    +0.000 A 
ATOM     15  C   UNL     1      45.841   4.485   8.540  0.00  0.00    +0.000 A 
ENDBRANCH   8   9
BRANCH   8  17
ATOM     16  N   UNL     1      42.898   2.196  11.466  0.00  0.00    +0.000 NA
ATOM     17  C   UNL     1      43.742   2.934  11.163  0.00  0.00    +0.000 C 
ENDBRANCH   8  17
ENDBRANCH   7   8
ENDBRANCH   1   7
BRANCH   4  18
ATOM     18  C   UNL     1      47.667   8.852  14.038  0.00  0.00    +0.000 C 
BRANCH  18  19
ATOM     19  N   UNL     1      47.914   8.213  15.304  0.00  0.00    +0.000 N 
ATOM     20  C   UNL     1      49.111   7.596  15.564  0.00  0.00    +0.000 C 
ATOM     21  O   UNL     1      50.035   7.611  14.754  0.00  0.00    +0.000 OA
ATOM     22  H   UNL     1      47.107   8.001  15.885  0.00  0.00    +0.000 HD
BRANCH  20  23
ATOM     23  C   UNL     1      49.253   6.955  16.878  0.00  0.00    +0.000 A 
ATOM     24  C   UNL     1      49.865   7.646  17.915  0.00  0.00    +0.000 A 
ATOM     25  S   UNL     1      49.924   6.772  19.379  0.00  0.00    +0.000 S 
ATOM     26  C   UNL     1      49.175   5.420  18.666  0.00  0.00    +0.000 A 
ATOM     27  N   UNL     1      48.951   4.286  19.383  0.00  0.00    +0.000 NA
ATOM     28  C   UNL     1      48.398   3.331  18.711  0.00  0.00    +0.000 A 
ATOM     29  N   UNL     1      48.042   3.410  17.390  0.00  0.00    +0.000 N 
ATOM     30  C   UNL     1      48.223   4.541  16.635  0.00  0.00    +0.000 A 
ATOM     31  O   UNL     1      47.857   4.598  15.464  0.00  0.00    +0.000 OA
ATOM     32  C   UNL     1      48.860   5.642  17.336  0.00  0.00    +0.000 A 
ATOM     33  H   UNL     1      47.597   2.631  16.928  0.00  0.00    +0.000 HD
ENDBRANCH  20  23
ENDBRANCH  18  19
ENDBRANCH   4  18
TORSDOF 7
ENDMDL
MODEL 3
REMARK VINA RESULT:    -7.940      3.387      4.252
REMARK INTER + INTRA:         -11.486
REMARK INTER:                 -10.324
REMARK INTRA:                  -1.162
REMARK UNBOUND:                -0.297
REMARK  Name = 
REMARK  7 active torsions:
REMARK  status: ('A' for Active; 'I' for Inactive)
REMARK    1  A    between atoms: C_2  and  C_3
REMARK    2  A    between atoms: C_3  and  C_4
REMARK    3  A    between atoms: C_3  and  C_25
REMARK    4  A    between atoms: C_4  and  C_5
REMARK    5  A    between atoms: C_8  and  C_9
REMARK    6  A    between atoms: C_9  and  N_10
REMARK    7  A    between atoms: C_11  and  C_13
REMARK                            x       y       z     vdW  Elec       q    Type
REMARK                         _______ _______ _______ _____ _____    ______ ____
ROOT
ATOM      1  C   UNL     1      45.411   6.157  11.880  0.00  0.00    +0.000 A 
ATOM      2  C   UNL     1      46.527   5.732  12.592  0.00  0.00    +0.000 A 
ATOM      3  C   UNL     1      47.262   6.672  13.320  0.00  0.00    +0.000 A 
ATOM      4  C   UNL     1      46.893   8.018  13.309  0.00  0.00    +0.000 A 
ATOM      5  C   UNL     1      45.750   8.348  12.597  0.00  0.00    +0.000 A 
ATOM      6  N   UNL     1      45.017   7.455  11.889  0.00  0.00    +0.000 NA
ENDROOT
BRANCH   1   7
ATOM      7  C   UNL     1      44.612   5.274  10.952  0.00  0.00    +0.000 C 
BRANCH   7   8
ATOM      8  C   UNL     1      44.944   3.773  10.833  0.00  0.00    +0.000 C 
BRANCH   8   9
ATOM      9  C   UNL     1      45.493   3.451   9.438  0.00  0.00    +0.000 A 
ATOM     10  C   UNL     1      45.872   4.485   8.566  0.00  0.00    +0.000 A 
ATOM     11  C   UNL     1      46.368   4.193   7.289  0.00  0.00    +0.000 A 
ATOM     12  C   UNL     1      46.490   2.869   6.874  0.00  0.00    +0.000 A 
ATOM     13 CL   UNL     1      47.093   2.514   5.304  0.00  0.00    +0.000 Cl
ATOM     14  C   UNL     1      46.130   1.831   7.727  0.00  0.00    +0.000 A 
ATOM     15  C   UNL     1      45.642   2.120   9.004  0.00  0.00    +0.000 A 
ENDBRANCH   8   9
BRANCH   8  17
ATOM     16  N   UNL     1      42.894   2.206  11.388  0.00  0.00    +0.000 NA
ATOM     17  C   UNL     1      43.783   2.914  11.146  0.00  0.00    +0.000 C 
ENDBRANCH   8  17
ENDBRANCH   7   8
ENDBRANCH   1   7
BRANCH   4  18
ATOM     18  C   UNL     1      47.681   9.058  14.046  0.00  0.00    +0.000 C 
BRANCH  18  19
ATOM     19  N   UNL     1      47.445   8.994  15.466  0.00  0.00    +0.000 N 
ATOM     20  C   UNL     1      48.343   9.524  16.357  0.00  0.00    +0.000 C 
ATOM     21  O   UNL     1      49.349  10.121  15.983  0.00  0.00    +0.000 OA
ATOM     22  H   UNL     1      46.752   8.327  15.794  0.00  0.00    +0.000 HD
BRANCH  20  23
ATOM     23  C   UNL     1      48.019   9.386  17.783  0.00  0.00    +0.000 A 
ATOM     24  C   UNL     1      47.723  10.517  18.532  0.00  0.00    +0.000 A 
ATOM     25  S   UNL     1      47.342  10.180  20.160  0.00  0.00    +0.000 S 
ATOM     26  C   UNL     1      47.604   8.513  19.934  0.00  0.00    +0.000 A 
ATOM     27  N   UNL     1      47.474   7.639  20.968  0.00  0.00    +0.000 NA
ATOM     28  C   UNL     1      47.726   6.409  20.661  0.00  0.00    +0.000 A 
ATOM     29  N   UNL     1      48.088   5.976  19.413  0.00  0.00    +0.000 N 
ATOM     30  C   UNL     1      48.205   6.815  18.334  0.00  0.00    +0.000 A 
ATOM     31  O   UNL     1      48.492   6.393  17.218  0.00  0.00    +0.000 OA
ATOM     32  C   UNL     1      47.952   8.215  18.628  0.00  0.00    +0.000 A 
ATOM     33  H   UNL     1      48.256   4.996  19.236  0.00  0.00    +0.000 HD
ENDBRANCH  20  23
ENDBRANCH  18  19
ENDBRANCH   4  18
TORSDOF 7
ENDMDL
MODEL 4
REMARK VINA RESULT:    -7.901      2.164      2.634
REMARK INTER + INTRA:         -11.431
REMARK INTER:                 -10.695
REMARK INTRA:                  -0.736
REMARK UNBOUND:                -0.297
REMARK  Name = 
REMARK  7 active torsions:
REMARK  status: ('A' for Active; 'I' for Inactive)
REMARK    1  A    between atoms: C_2  and  C_3
REMARK    2  A    between atoms: C_3  and  C_4
REMARK    3  A    between atoms: C_3  and  C_25
REMARK    4  A    between atoms: C_4  and  C_5
REMARK    5  A    between atoms: C_8  and  C_9
REMARK    6  A    between atoms: C_9  and  N_10
REMARK    7  A    between atoms: C_11  and  C_13
REMARK                            x       y       z     vdW  Elec       q    Type
REMARK                         _______ _______ _______ _____ _____    ______ ____
ROOT
ATOM      1  C   UNL     1      45.170   3.994  12.944  0.00  0.00    +0.000 A 
ATOM      2  C   UNL     1      46.393   3.412  13.254  0.00  0.00    +0.000 A 
ATOM      3  C   UNL     1      47.446   4.232  13.669  0.00  0.00    +0.000 A 
ATOM      4  C   UNL     1      47.275   5.616  13.743  0.00  0.00    +0.000 A 
ATOM      5  C   UNL     1      46.013   6.107  13.445  0.00  0.00    +0.000 A 
ATOM      6  N   UNL     1      44.976   5.333  13.047  0.00  0.00    +0.000 NA
ENDROOT
BRANCH   1   7
ATOM      7  C   UNL     1      43.998   3.242  12.361  0.00  0.00    +0.000 C 
BRANCH   7   8
ATOM      8  C   UNL     1      43.391   3.677  11.012  0.00  0.00    +0.000 C 
BRANCH   8   9
ATOM      9  C   UNL     1      44.379   3.421   9.869  0.00  0.00    +0.000 A 
ATOM     10  C   UNL     1      44.959   4.495   9.174  0.00  0.00    +0.000 A 
ATOM     11  C   UNL     1      45.858   4.264   8.125  0.00  0.00    +0.000 A 
ATOM     12  C   UNL     1      46.184   2.959   7.762  0.00  0.00    +0.000 A 
ATOM     13 CL   UNL     1      47.282   2.677   6.470  0.00  0.00    +0.000 Cl
ATOM     14  C   UNL     1      45.628   1.882   8.444  0.00  0.00    +0.000 A 
ATOM     15  C   UNL     1      44.737   2.111   9.495  0.00  0.00    +0.000 A 
ENDBRANCH   8   9
BRANCH   8  17
ATOM     16  N   UNL     1      42.586   6.190  11.047  0.00  0.00    +0.000 NA
ATOM     17  C   UNL     1      42.959   5.090  11.021  0.00  0.00    +0.000 C 
ENDBRANCH   8  17
ENDBRANCH   7   8
ENDBRANCH   1   7
BRANCH   4  18
ATOM     18  C   UNL     1      48.393   6.529  14.147  0.00  0.00    +0.000 C 
BRANCH  18  19
ATOM     19  N   UNL     1      48.508   6.627  15.579  0.00  0.00    +0.000 N 
ATOM     20  C   UNL     1      49.734   6.709  16.187  0.00  0.00    +0.000 C 
ATOM     21  O   UNL     1      50.776   6.758  15.537  0.00  0.00    +0.000 OA
ATOM     22  H   UNL     1      47.693   6.369  16.130  0.00  0.00    +0.000 HD
BRANCH  20  23
ATOM     23  C   UNL     1      49.740   6.783  17.654  0.00  0.00    +0.000 A 
ATOM     24  C   UNL     1      50.248   7.912  18.282  0.00  0.00    +0.000 A 
ATOM     25  S   UNL     1      50.156   7.850  19.984  0.00  0.00    +0.000 S 
ATOM     26  C   UNL     1      49.477   6.290  19.945  0.00  0.00    +0.000 A 
ATOM     27  N   UNL     1      49.177   5.629  21.096  0.00  0.00    +0.000 NA
ATOM     28  C   UNL     1      48.690   4.445  20.919  0.00  0.00    +0.000 A 
ATOM     29  N   UNL     1      48.469   3.867  19.697  0.00  0.00    +0.000 N 
ATOM     30  C   UNL     1      48.730   4.504  18.510  0.00  0.00    +0.000 A 
ATOM     31  O   UNL     1      48.484   3.977  17.429  0.00  0.00    +0.000 OA
ATOM     32  C   UNL     1      49.298   5.834  18.650  0.00  0.00    +0.000 A 
ATOM     33  H   UNL     1      48.070   2.942  19.629  0.00  0.00    +0.000 HD
ENDBRANCH  20  23
ENDBRANCH  18  19
ENDBRANCH   4  18
TORSDOF 7
ENDMDL
MODEL 5
REMARK VINA RESULT:    -7.524      4.223      8.973
REMARK INTER + INTRA:         -10.900
REMARK INTER:                  -9.715
REMARK INTRA:                  -1.185
REMARK UNBOUND:                -0.297
REMARK  Name = 
REMARK  7 active torsions:
REMARK  status: ('A' for Active; 'I' for Inactive)
REMARK    1  A    between atoms: C_2  and  C_3
REMARK    2  A    between atoms: C_3  and  C_4
REMARK    3  A    between atoms: C_3  and  C_25
REMARK    4  A    between atoms: C_4  and  C_5
REMARK    5  A    between atoms: C_8  and  C_9
REMARK    6  A    between atoms: C_9  and  N_10
REMARK    7  A    between atoms: C_11  and  C_13
REMARK                            x       y       z     vdW  Elec       q    Type
REMARK                         _______ _______ _______ _____ _____    ______ ____
ROOT
ATOM      1  C   UNL     1      49.328   7.717  15.902  0.00  0.00    +0.000 A 
ATOM      2  C   UNL     1      48.478   8.785  15.642  0.00  0.00    +0.000 A 
ATOM      3  C   UNL     1      47.793   8.823  14.424  0.00  0.00    +0.000 A 
ATOM      4  C   UNL     1      47.984   7.816  13.476  0.00  0.00    +0.000 A 
ATOM      5  C   UNL     1      48.825   6.773  13.832  0.00  0.00    +0.000 A 
ATOM      6  N   UNL     1      49.495   6.710  15.007  0.00  0.00    +0.000 NA
ENDROOT
BRANCH   1   7
ATOM      7  C   UNL     1      50.222   7.621  17.115  0.00  0.00    +0.000 C 
BRANCH   7   8
ATOM      8  C   UNL     1      49.833   6.706  18.293  0.00  0.00    +0.000 C 
BRANCH   8   9
ATOM      9  C   UNL     1      50.307   5.270  18.039  0.00  0.00    +0.000 A 
ATOM     10  C   UNL     1      49.383   4.258  17.732  0.00  0.00    +0.000 A 
ATOM     11  C   UNL     1      49.813   2.945  17.506  0.00  0.00    +0.000 A 
ATOM     12  C   UNL     1      51.168   2.632  17.584  0.00  0.00    +0.000 A 
ATOM     13 CL   UNL     1      51.694   1.017  17.313  0.00  0.00    +0.000 Cl
ATOM     14  C   UNL     1      52.100   3.622  17.878  0.00  0.00    +0.000 A 
ATOM     15  C   UNL     1      51.674   4.934  18.097  0.00  0.00    +0.000 A 
ENDBRANCH   8   9
BRANCH   8  17
ATOM     16  N   UNL     1      47.237   6.722  18.766  0.00  0.00    +0.000 NA
ATOM     17  C   UNL     1      48.382   6.733  18.571  0.00  0.00    +0.000 C 
ENDBRANCH   8  17
ENDBRANCH   7   8
ENDBRANCH   1   7
BRANCH   4  18
ATOM     18  C   UNL     1      47.296   7.845  12.144  0.00  0.00    +0.000 C 
BRANCH  18  19
ATOM     19  N   UNL     1      46.671   6.583  11.843  0.00  0.00    +0.000 N 
ATOM     20  C   UNL     1      45.308   6.477  11.730  0.00  0.00    +0.000 C 
ATOM     21  O   UNL     1      44.574   7.457  11.825  0.00  0.00    +0.000 OA
ATOM     22  H   UNL     1      47.228   5.742  11.979  0.00  0.00    +0.000 HD
BRANCH  20  23
ATOM     23  C   UNL     1      44.771   5.140  11.442  0.00  0.00    +0.000 A 
ATOM     24  C   UNL     1      44.023   4.479  12.407  0.00  0.00    +0.000 A 
ATOM     25  S   UNL     1      43.451   2.953  11.904  0.00  0.00    +0.000 S 
ATOM     26  C   UNL     1      44.224   3.100  10.394  0.00  0.00    +0.000 A 
ATOM     27  N   UNL     1      44.157   2.099   9.475  0.00  0.00    +0.000 NA
ATOM     28  C   UNL     1      44.809   2.334   8.384  0.00  0.00    +0.000 A 
ATOM     29  N   UNL     1      45.513   3.481   8.127  0.00  0.00    +0.000 N 
ATOM     30  C   UNL     1      45.586   4.527   9.012  0.00  0.00    +0.000 A 
ATOM     31  O   UNL     1      46.191   5.560   8.738  0.00  0.00    +0.000 OA
ATOM     32  C   UNL     1      44.886   4.308  10.266  0.00  0.00    +0.000 A 
ATOM     33  H   UNL     1      45.988   3.608   7.245  0.00  0.00    +0.000 HD
ENDBRANCH  20  23
ENDBRANCH  18  19
ENDBRANCH   4  18
TORSDOF 7
ENDMDL
MODEL 6
REMARK VINA RESULT:    -7.474      2.028      3.596
REMARK INTER + INTRA:         -10.831
REMARK INTER:                  -9.798
REMARK INTRA:                  -1.033
REMARK UNBOUND:                -0.297
REMARK  Name = 
REMARK  7 active torsions:
REMARK  status: ('A' for Active; 'I' for Inactive)
REMARK    1  A    between atoms: C_2  and  C_3
REMARK    2  A    between atoms: C_3  and  C_4
REMARK    3  A    between atoms: C_3  and  C_25
REMARK    4  A    between atoms: C_4  and  C_5
REMARK    5  A    between atoms: C_8  and  C_9
REMARK    6  A    between atoms: C_9  and  N_10
REMARK    7  A    between atoms: C_11  and  C_13
REMARK                            x       y       z     vdW  Elec       q    Type
REMARK                         _______ _______ _______ _____ _____    ______ ____
ROOT
ATOM      1  C   UNL     1      47.542   5.885  14.221  0.00  0.00    +0.000 A 
ATOM      2  C   UNL     1      48.360   6.334  15.251  0.00  0.00    +0.000 A 
ATOM      3  C   UNL     1      48.559   5.513  16.364  0.00  0.00    +0.000 A 
ATOM      4  C   UNL     1      47.924   4.272  16.447  0.00  0.00    +0.000 A 
ATOM      5  C   UNL     1      47.152   3.890  15.361  0.00  0.00    +0.000 A 
ATOM      6  N   UNL     1      46.948   4.666  14.269  0.00  0.00    +0.000 NA
ENDROOT
BRANCH   1   7
ATOM      7  C   UNL     1      47.141   6.723  13.031  0.00  0.00    +0.000 C 
BRANCH   7   8
ATOM      8  C   UNL     1      45.670   6.761  12.571  0.00  0.00    +0.000 C 
BRANCH   8   9
ATOM      9  C   UNL     1      45.447   5.801  11.396  0.00  0.00    +0.000 A 
ATOM     10  C   UNL     1      46.063   6.038  10.156  0.00  0.00    +0.000 A 
ATOM     11  C   UNL     1      45.856   5.165   9.080  0.00  0.00    +0.000 A 
ATOM     12  C   UNL     1      45.034   4.052   9.234  0.00  0.00    +0.000 A 
ATOM     13 CL   UNL     1      44.776   2.986   7.910  0.00  0.00    +0.000 Cl
ATOM     14  C   UNL     1      44.423   3.795  10.456  0.00  0.00    +0.000 A 
ATOM     15  C   UNL     1      44.634   4.660  11.533  0.00  0.00    +0.000 A 
ENDBRANCH   8   9
BRANCH   8  17
ATOM     16  N   UNL     1      44.915   9.213  11.955  0.00  0.00    +0.000 NA
ATOM     17  C   UNL     1      45.227   8.126  12.219  0.00  0.00    +0.000 C 
ENDBRANCH   8  17
ENDBRANCH   7   8
ENDBRANCH   1   7
BRANCH   4  18
ATOM     18  C   UNL     1      48.084   3.382  17.643  0.00  0.00    +0.000 C 
BRANCH  18  19
ATOM     19  N   UNL     1      49.471   3.115  17.923  0.00  0.00    +0.000 N 
ATOM     20  C   UNL     1      50.191   2.234  17.157  0.00  0.00    +0.000 C 
ATOM     21  O   UNL     1      49.702   1.684  16.173  0.00  0.00    +0.000 OA
ATOM     22  H   UNL     1      49.821   3.381  18.840  0.00  0.00    +0.000 HD
BRANCH  20  23
ATOM     23  C   UNL     1      51.592   2.016  17.541  0.00  0.00    +0.000 A 
ATOM     24  C   UNL     1      52.067   0.721  17.697  0.00  0.00    +0.000 A 
ATOM     25  S   UNL     1      53.718   0.643  18.117  0.00  0.00    +0.000 S 
ATOM     26  C   UNL     1      53.847   2.340  18.151  0.00  0.00    +0.000 A 
ATOM     27  N   UNL     1      55.019   2.946  18.480  0.00  0.00    +0.000 NA
ATOM     28  C   UNL     1      54.968   4.237  18.490  0.00  0.00    +0.000 A 
ATOM     29  N   UNL     1      53.853   4.975  18.192  0.00  0.00    +0.000 N 
ATOM     30  C   UNL     1      52.657   4.410  17.828  0.00  0.00    +0.000 A 
ATOM     31  O   UNL     1      51.685   5.097  17.528  0.00  0.00    +0.000 OA
ATOM     32  C   UNL     1      52.653   2.957  17.820  0.00  0.00    +0.000 A 
ATOM     33  H   UNL     1      53.885   5.984  18.203  0.00  0.00    +0.000 HD
ENDBRANCH  20  23
ENDBRANCH  18  19
ENDBRANCH   4  18
TORSDOF 7
ENDMDL
MODEL 7
REMARK VINA RESULT:    -7.377      4.372      9.040
REMARK INTER + INTRA:         -10.693
REMARK INTER:                  -9.181
REMARK INTRA:                  -1.511
REMARK UNBOUND:                -0.297
REMARK  Name = 
REMARK  7 active torsions:
REMARK  status: ('A' for Active; 'I' for Inactive)
REMARK    1  A    between atoms: C_2  and  C_3
REMARK    2  A    between atoms: C_3  and  C_4
REMARK    3  A    between atoms: C_3  and  C_25
REMARK    4  A    between atoms: C_4  and  C_5
REMARK    5  A    between atoms: C_8  and  C_9
REMARK    6  A    between atoms: C_9  and  N_10
REMARK    7  A    between atoms: C_11  and  C_13
REMARK                            x       y       z     vdW  Elec       q    Type
REMARK                         _______ _______ _______ _____ _____    ______ ____
ROOT
ATOM      1  C   UNL     1      49.550   8.497  15.676  0.00  0.00    +0.000 A 
ATOM      2  C   UNL     1      50.276   7.765  14.744  0.00  0.00    +0.000 A 
ATOM      3  C   UNL     1      49.762   7.615  13.453  0.00  0.00    +0.000 A 
ATOM      4  C   UNL     1      48.527   8.172  13.117  0.00  0.00    +0.000 A 
ATOM      5  C   UNL     1      47.886   8.912  14.099  0.00  0.00    +0.000 A 
ATOM      6  N   UNL     1      48.366   9.077  15.355  0.00  0.00    +0.000 NA
ENDROOT
BRANCH   1   7
ATOM      7  C   UNL     1      49.926   8.624  17.133  0.00  0.00    +0.000 C 
BRANCH   7   8
ATOM      8  C   UNL     1      50.595   7.444  17.865  0.00  0.00    +0.000 C 
BRANCH   8   9
ATOM      9  C   UNL     1      49.690   6.207  17.836  0.00  0.00    +0.000 A 
ATOM     10  C   UNL     1      50.193   4.966  17.414  0.00  0.00    +0.000 A 
ATOM     11  C   UNL     1      49.366   3.836  17.381  0.00  0.00    +0.000 A 
ATOM     12  C   UNL     1      48.032   3.937  17.768  0.00  0.00    +0.000 A 
ATOM     13 CL   UNL     1      47.016   2.551  17.719  0.00  0.00    +0.000 Cl
ATOM     14  C   UNL     1      47.517   5.156  18.197  0.00  0.00    +0.000 A 
ATOM     15  C   UNL     1      48.342   6.282  18.238  0.00  0.00    +0.000 A 
ENDBRANCH   8   9
BRANCH   8  17
ATOM     16  N   UNL     1      51.226   8.031  20.360  0.00  0.00    +0.000 NA
ATOM     17  C   UNL     1      50.967   7.784  19.255  0.00  0.00    +0.000 C 
ENDBRANCH   8  17
ENDBRANCH   7   8
ENDBRANCH   1   7
BRANCH   4  18
ATOM     18  C   UNL     1      47.927   7.998  11.754  0.00  0.00    +0.000 C 
BRANCH  18  19
ATOM     19  N   UNL     1      47.154   6.786  11.665  0.00  0.00    +0.000 N 
ATOM     20  C   UNL     1      45.785   6.813  11.740  0.00  0.00    +0.000 C 
ATOM     21  O   UNL     1      45.163   7.868  11.829  0.00  0.00    +0.000 OA
ATOM     22  H   UNL     1      47.645   5.908  11.813  0.00  0.00    +0.000 HD
BRANCH  20  23
ATOM     23  C   UNL     1      45.094   5.519  11.662  0.00  0.00    +0.000 A 
ATOM     24  C   UNL     1      44.419   5.033  12.774  0.00  0.00    +0.000 A 
ATOM     25  S   UNL     1      43.648   3.535  12.506  0.00  0.00    +0.000 S 
ATOM     26  C   UNL     1      44.229   3.459  10.908  0.00  0.00    +0.000 A 
ATOM     27  N   UNL     1      43.951   2.390  10.114  0.00  0.00    +0.000 NA
ATOM     28  C   UNL     1      44.475   2.452   8.934  0.00  0.00    +0.000 A 
ATOM     29  N   UNL     1      45.243   3.489   8.476  0.00  0.00    +0.000 N 
ATOM     30  C   UNL     1      45.526   4.600   9.230  0.00  0.00    +0.000 A 
ATOM     31  O   UNL     1      46.184   5.533   8.778  0.00  0.00    +0.000 OA
ATOM     32  C   UNL     1      44.978   4.574  10.574  0.00  0.00    +0.000 A 
ATOM     33  H   UNL     1      45.609   3.483   7.535  0.00  0.00    +0.000 HD
ENDBRANCH  20  23
ENDBRANCH  18  19
ENDBRANCH   4  18
TORSDOF 7
ENDMDL
MODEL 8
REMARK VINA RESULT:    -7.346      2.819      4.124
REMARK INTER + INTRA:         -10.649
REMARK INTER:                 -10.511
REMARK INTRA:                  -0.137
REMARK UNBOUND:                -0.297
REMARK  Name = 
REMARK  7 active torsions:
REMARK  status: ('A' for Active; 'I' for Inactive)
REMARK    1  A    between atoms: C_2  and  C_3
REMARK    2  A    between atoms: C_3  and  C_4
REMARK    3  A    between atoms: C_3  and  C_25
REMARK    4  A    between atoms: C_4  and  C_5
REMARK    5  A    between atoms: C_8  and  C_9
REMARK    6  A    between atoms: C_9  and  N_10
REMARK    7  A    between atoms: C_11  and  C_13
REMARK                            x       y       z     vdW  Elec       q    Type
REMARK                         _______ _______ _______ _____ _____    ______ ____
ROOT
ATOM      1  C   UNL     1      45.674   4.123  12.673  0.00  0.00    +0.000 A 
ATOM      2  C   UNL     1      46.160   4.055  13.973  0.00  0.00    +0.000 A 
ATOM      3  C   UNL     1      47.007   5.068  14.432  0.00  0.00    +0.000 A 
ATOM      4  C   UNL     1      47.377   6.115  13.586  0.00  0.00    +0.000 A 
ATOM      5  C   UNL     1      46.820   6.120  12.316  0.00  0.00    +0.000 A 
ATOM      6  N   UNL     1      45.993   5.154  11.851  0.00  0.00    +0.000 NA
ENDROOT
BRANCH   1   7
ATOM      7  C   UNL     1      44.862   3.034  12.015  0.00  0.00    +0.000 C 
BRANCH   7   8
ATOM      8  C   UNL     1      44.052   3.336  10.738  0.00  0.00    +0.000 C 
BRANCH   8   9
ATOM      9  C   UNL     1      44.925   3.155   9.490  0.00  0.00    +0.000 A 
ATOM     10  C   UNL     1      45.370   1.878   9.111  0.00  0.00    +0.000 A 
ATOM     11  C   UNL     1      46.172   1.711   7.976  0.00  0.00    +0.000 A 
ATOM     12  C   UNL     1      46.536   2.817   7.211  0.00  0.00    +0.000 A 
ATOM     13 CL   UNL     1      47.527   2.611   5.821  0.00  0.00    +0.000 Cl
ATOM     14  C   UNL     1      46.098   4.089   7.564  0.00  0.00    +0.000 A 
ATOM     15  C   UNL     1      45.291   4.256   8.693  0.00  0.00    +0.000 A 
ENDBRANCH   8   9
BRANCH   8  17
ATOM     16  N   UNL     1      42.978   5.745  10.819  0.00  0.00    +0.000 NA
ATOM     17  C   UNL     1      43.449   4.685  10.761  0.00  0.00    +0.000 C 
ENDBRANCH   8  17
ENDBRANCH   7   8
ENDBRANCH   1   7
BRANCH   4  18
ATOM     18  C   UNL     1      48.314   7.197  14.032  0.00  0.00    +0.000 C 
BRANCH  18  19
ATOM     19  N   UNL     1      48.257   7.392  15.458  0.00  0.00    +0.000 N 
ATOM     20  C   UNL     1      49.289   6.992  16.269  0.00  0.00    +0.000 C 
ATOM     21  O   UNL     1      50.320   6.506  15.810  0.00  0.00    +0.000 OA
ATOM     22  H   UNL     1      47.346   7.582  15.867  0.00  0.00    +0.000 HD
BRANCH  20  23
ATOM     23  C   UNL     1      49.122   7.218  17.710  0.00  0.00    +0.000 A 
ATOM     24  C   UNL     1      49.438   6.203  18.604  0.00  0.00    +0.000 A 
ATOM     25  S   UNL     1      49.214   6.636  20.239  0.00  0.00    +0.000 S 
ATOM     26  C   UNL     1      48.642   8.181  19.808  0.00  0.00    +0.000 A 
ATOM     27  N   UNL     1      48.239   9.066  20.759  0.00  0.00    +0.000 NA
ATOM     28  C   UNL     1      47.805  10.190  20.291  0.00  0.00    +0.000 A 
ATOM     29  N   UNL     1      47.746  10.510  18.960  0.00  0.00    +0.000 N 
ATOM     30  C   UNL     1      48.167   9.661  17.968  0.00  0.00    +0.000 A 
ATOM     31  O   UNL     1      48.141   9.990  16.785  0.00  0.00    +0.000 OA
ATOM     32  C   UNL     1      48.647   8.373  18.438  0.00  0.00    +0.000 A 
ATOM     33  H   UNL     1      47.412  11.414  18.661  0.00  0.00    +0.000 HD
ENDBRANCH  20  23
ENDBRANCH  18  19
ENDBRANCH   4  18
TORSDOF 7
ENDMDL
MODEL 9
REMARK VINA RESULT:    -7.304      2.074      3.267
REMARK INTER + INTRA:         -10.590
REMARK INTER:                  -9.509
REMARK INTRA:                  -1.082
REMARK UNBOUND:                -0.297
REMARK  Name = 
REMARK  7 active torsions:
REMARK  status: ('A' for Active; 'I' for Inactive)
REMARK    1  A    between atoms: C_2  and  C_3
REMARK    2  A    between atoms: C_3  and  C_4
REMARK    3  A    between atoms: C_3  and  C_25
REMARK    4  A    between atoms: C_4  and  C_5
REMARK    5  A    between atoms: C_8  and  C_9
REMARK    6  A    between atoms: C_9  and  N_10
REMARK    7  A    between atoms: C_11  and  C_13
REMARK                            x       y       z     vdW  Elec       q    Type
REMARK                         _______ _______ _______ _____ _____    ______ ____
ROOT
ATOM      1  C   UNL     1      47.527   5.658  14.485  0.00  0.00    +0.000 A 
ATOM      2  C   UNL     1      47.005   4.469  14.979  0.00  0.00    +0.000 A 
ATOM      3  C   UNL     1      47.524   3.943  16.165  0.00  0.00    +0.000 A 
ATOM      4  C   UNL     1      48.569   4.593  16.826  0.00  0.00    +0.000 A 
ATOM      5  C   UNL     1      49.007   5.789  16.279  0.00  0.00    +0.000 A 
ATOM      6  N   UNL     1      48.516   6.321  15.135  0.00  0.00    +0.000 NA
ENDROOT
BRANCH   1   7
ATOM      7  C   UNL     1      47.148   6.261  13.153  0.00  0.00    +0.000 C 
BRANCH   7   8
ATOM      8  C   UNL     1      45.669   6.328  12.726  0.00  0.00    +0.000 C 
BRANCH   8   9
ATOM      9  C   UNL     1      45.374   5.289  11.638  0.00  0.00    +0.000 A 
ATOM     10  C   UNL     1      44.851   4.030  11.978  0.00  0.00    +0.000 A 
ATOM     11  C   UNL     1      44.587   3.077  10.986  0.00  0.00    +0.000 A 
ATOM     12  C   UNL     1      44.842   3.374   9.649  0.00  0.00    +0.000 A 
ATOM     13 CL   UNL     1      44.523   2.200   8.434  0.00  0.00    +0.000 Cl
ATOM     14  C   UNL     1      45.350   4.618   9.291  0.00  0.00    +0.000 A 
ATOM     15  C   UNL     1      45.607   5.573  10.278  0.00  0.00    +0.000 A 
ENDBRANCH   8   9
BRANCH   8  17
ATOM     16  N   UNL     1      44.928   8.733  11.932  0.00  0.00    +0.000 NA
ATOM     17  C   UNL     1      45.275   7.680  12.275  0.00  0.00    +0.000 C 
ENDBRANCH   8  17
ENDBRANCH   7   8
ENDBRANCH   1   7
BRANCH   4  18
ATOM     18  C   UNL     1      49.176   4.037  18.079  0.00  0.00    +0.000 C 
BRANCH  18  19
ATOM     19  N   UNL     1      50.521   3.572  17.855  0.00  0.00    +0.000 N 
ATOM     20  C   UNL     1      51.549   3.957  18.677  0.00  0.00    +0.000 C 
ATOM     21  O   UNL     1      51.358   4.664  19.663  0.00  0.00    +0.000 OA
ATOM     22  H   UNL     1      50.733   3.180  16.941  0.00  0.00    +0.000 HD
BRANCH  20  23
ATOM     23  C   UNL     1      52.886   3.444  18.348  0.00  0.00    +0.000 A 
ATOM     24  C   UNL     1      53.994   4.266  18.505  0.00  0.00    +0.000 A 
ATOM     25  S   UNL     1      55.470   3.510  18.107  0.00  0.00    +0.000 S 
ATOM     26  C   UNL     1      54.676   2.070  17.664  0.00  0.00    +0.000 A 
ATOM     27  N   UNL     1      55.375   1.004  17.191  0.00  0.00    +0.000 NA
ATOM     28  C   UNL     1      54.645  -0.013  16.871  0.00  0.00    +0.000 A 
ATOM     29  N   UNL     1      53.280  -0.061  16.989  0.00  0.00    +0.000 N 
ATOM     30  C   UNL     1      52.536   0.979  17.486  0.00  0.00    +0.000 A 
ATOM     31  O   UNL     1      51.318   0.893  17.617  0.00  0.00    +0.000 OA
ATOM     32  C   UNL     1      53.306   2.157  17.843  0.00  0.00    +0.000 A 
ATOM     33  H   UNL     1      52.770  -0.894  16.735  0.00  0.00    +0.000 HD
ENDBRANCH  20  23
ENDBRANCH  18  19
ENDBRANCH   4  18
TORSDOF 7
ENDMDL
