MODEL 1
REMARK VINA RESULT:    -8.474      0.000      0.000
REMARK INTER + INTRA:         -11.182
REMARK INTER:                 -10.456
REMARK INTRA:                  -0.726
REMARK UNBOUND:                -0.726
REMARK  Name = 
REMARK  4 active torsions:
REMARK  status: ('A' for Active; 'I' for Inactive)
REMARK    1  A    between atoms: C_2  and  C_4
REMARK    2  A    between atoms: C_7  and  N_8
REMARK    3  A    between atoms: N_8  and  C_9
REMARK    4  A    between atoms: C_9  and  C_10
REMARK                            x       y       z     vdW  Elec       q    Type
REMARK                         _______ _______ _______ _____ _____    ______ ____
ROOT
ATOM      1  N   UNL     1      43.851   3.735  10.611  0.00  0.00    +0.000 N 
ATOM      2  H   UNL     1      43.681   2.889  11.150  0.00  0.00    +0.000 HD
ENDROOT
BRANCH   1   6
ATOM      3  C   UNL     1      46.511   2.721   7.494  0.00  0.00    +0.000 A 
ATOM      4  C   UNL     1      46.140   4.059   7.664  0.00  0.00    +0.000 A 
ATOM      5  C   UNL     1      45.242   4.411   8.679  0.00  0.00    +0.000 A 
ATOM      6  C   UNL     1      44.719   3.447   9.542  0.00  0.00    +0.000 A 
ATOM      7  C   UNL     1      45.108   2.111   9.366  0.00  0.00    +0.000 A 
ATOM      8  C   UNL     1      45.981   1.744   8.339  0.00  0.00    +0.000 A 
BRANCH   3  10
ATOM      9  N   UNL     1      47.392   3.004   5.241  0.00  0.00    +0.000 N 
ATOM     10  C   UNL     1      47.438   2.294   6.410  0.00  0.00    +0.000 C 
ATOM     11  O   UNL     1      48.229   1.380   6.563  0.00  0.00    +0.000 OA
ATOM     12  H   UNL     1      48.091   2.771   4.553  0.00  0.00    +0.000 HD
ATOM     13  H   UNL     1      46.948   3.909   5.175  0.00  0.00    +0.000 HD
ENDBRANCH   3  10
ENDBRANCH   1   6
BRANCH   1  14
ATOM     14  C   UNL     1      43.897   4.978  11.409  0.00  0.00    +0.000 C 
ATOM     15  C   UNL     1      42.621   5.243  12.198  0.00  0.00    +0.000 C 
ATOM     16  C   UNL     1      42.994   6.153  11.074  0.00  0.00    +0.000 C 
BRANCH  14  17
ATOM     17  C   UNL     1      45.242   5.257  12.076  0.00  0.00    +0.000 A 
ATOM     18  C   UNL     1      46.094   6.274  11.609  0.00  0.00    +0.000 A 
ATOM     19  C   UNL     1      47.277   6.607  12.278  0.00  0.00    +0.000 A 
ATOM     20  C   UNL     1      47.644   5.917  13.430  0.00  0.00    +0.000 A 
ATOM     21  C   UNL     1      46.836   4.882  13.892  0.00  0.00    +0.000 A 
ATOM     22 CL   UNL     1      47.275   4.027  15.320  0.00  0.00    +0.000 Cl
ATOM     23  C   UNL     1      45.659   4.556  13.225  0.00  0.00    +0.000 A 
ENDBRANCH  14  17
ENDBRANCH   1  14
TORSDOF 4
ENDMDL
MODEL 2
REMARK VINA RESULT:    -8.381      1.190      1.599
REMARK INTER + INTRA:         -11.067
REMARK INTER:                 -10.260
REMARK INTRA:                  -0.807
REMARK UNBOUND:                -0.726
REMARK  Name = 
REMARK  4 active torsions:
REMARK  status: ('A' for Active; 'I' for Inactive)
REMARK    1  A    between atoms: C_2  and  C_4
REMARK    2  A    between atoms: C_7  and  N_8
REMARK    3  A    between atoms: N_8  and  C_9
REMARK    4  A    between atoms: C_9  and  C_10
REMARK                            x       y       z     vdW  Elec       q    Type
REMARK                         _______ _______ _______ _____ _____    ______ ____
ROOT
ATOM      1  N   UNL     1      43.793   3.781  10.593  0.00  0.00    +0.000 N 
ATOM      2  H   UNL     1      43.599   2.936  11.123  0.00  0.00    +0.000 HD
ENDROOT
BRANCH   1   6
ATOM      3  C   UNL     1      46.512   2.746   7.534  0.00  0.00    +0.000 A 
ATOM      4  C   UNL     1      46.157   4.089   7.704  0.00  0.00    +0.000 A 
ATOM      5  C   UNL     1      45.241   4.448   8.699  0.00  0.00    +0.000 A 
ATOM      6  C   UNL     1      44.683   3.486   9.543  0.00  0.00    +0.000 A 
ATOM      7  C   UNL     1      45.055   2.146   9.368  0.00  0.00    +0.000 A 
ATOM      8  C   UNL     1      45.947   1.772   8.360  0.00  0.00    +0.000 A 
BRANCH   3  10
ATOM      9  N   UNL     1      47.406   2.988   5.281  0.00  0.00    +0.000 N 
ATOM     10  C   UNL     1      47.458   2.311   6.470  0.00  0.00    +0.000 C 
ATOM     11  O   UNL     1      48.267   1.420   6.654  0.00  0.00    +0.000 OA
ATOM     12  H   UNL     1      48.116   2.753   4.606  0.00  0.00    +0.000 HD
ATOM     13  H   UNL     1      46.942   3.881   5.188  0.00  0.00    +0.000 HD
ENDBRANCH   3  10
ENDBRANCH   1   6
BRANCH   1  14
ATOM     14  C   UNL     1      43.838   5.020  11.399  0.00  0.00    +0.000 C 
ATOM     15  C   UNL     1      42.548   5.300  12.159  0.00  0.00    +0.000 C 
ATOM     16  C   UNL     1      42.961   6.210  11.049  0.00  0.00    +0.000 C 
BRANCH  14  17
ATOM     17  C   UNL     1      45.171   5.275  12.100  0.00  0.00    +0.000 A 
ATOM     18  C   UNL     1      45.654   4.406  13.095  0.00  0.00    +0.000 A 
ATOM     19  C   UNL     1      46.921   4.572  13.665  0.00  0.00    +0.000 A 
ATOM     20  C   UNL     1      47.735   5.626  13.259  0.00  0.00    +0.000 A 
ATOM     21  C   UNL     1      47.265   6.522  12.302  0.00  0.00    +0.000 A 
ATOM     22 CL   UNL     1      48.265   7.825  11.786  0.00  0.00    +0.000 Cl
ATOM     23  C   UNL     1      46.005   6.351  11.735  0.00  0.00    +0.000 A 
ENDBRANCH  14  17
ENDBRANCH   1  14
TORSDOF 4
ENDMDL
MODEL 3
REMARK VINA RESULT:    -7.139      3.722      6.401
REMARK INTER + INTRA:          -9.535
REMARK INTER:                  -9.157
REMARK INTRA:                  -0.377
REMARK UNBOUND:                -0.726
REMARK  Name = 
REMARK  4 active torsions:
REMARK  status: ('A' for Active; 'I' for Inactive)
REMARK    1  A    between atoms: C_2  and  C_4
REMARK    2  A    between atoms: C_7  and  N_8
REMARK    3  A    between atoms: N_8  and  C_9
REMARK    4  A    between atoms: C_9  and  C_10
REMARK                            x       y       z     vdW  Elec       q    Type
REMARK                         _______ _______ _______ _____ _____    ______ ____
ROOT
ATOM      1  N   UNL     1      44.361   5.235  10.275  0.00  0.00    +0.000 N 
ATOM      2  H   UNL     1      44.173   5.606   9.347  0.00  0.00    +0.000 HD
ENDROOT
BRANCH   1   6
ATOM      3  C   UNL     1      46.529   8.015  12.596  0.00  0.00    +0.000 A 
ATOM      4  C   UNL     1      45.135   8.112  12.543  0.00  0.00    +0.000 A 
ATOM      5  C   UNL     1      44.401   7.213  11.762  0.00  0.00    +0.000 A 
ATOM      6  C   UNL     1      45.038   6.201  11.042  0.00  0.00    +0.000 A 
ATOM      7  C   UNL     1      46.436   6.108  11.112  0.00  0.00    +0.000 A 
ATOM      8  C   UNL     1      47.181   7.018  11.866  0.00  0.00    +0.000 A 
BRANCH   3  10
ATOM      9  N   UNL     1      47.199   8.940  14.748  0.00  0.00    +0.000 N 
ATOM     10  C   UNL     1      47.355   8.967  13.388  0.00  0.00    +0.000 C 
ATOM     11  O   UNL     1      48.160   9.713  12.860  0.00  0.00    +0.000 OA
ATOM     12  H   UNL     1      47.834   9.515  15.278  0.00  0.00    +0.000 HD
ATOM     13  H   UNL     1      46.747   8.172  15.224  0.00  0.00    +0.000 HD
ENDBRANCH   3  10
ENDBRANCH   1   6
BRANCH   1  14
ATOM     14  C   UNL     1      44.655   3.786  10.313  0.00  0.00    +0.000 C 
ATOM     15  C   UNL     1      43.553   2.958  10.960  0.00  0.00    +0.000 C 
ATOM     16  C   UNL     1      44.880   3.072  11.634  0.00  0.00    +0.000 C 
BRANCH  14  17
ATOM     17  C   UNL     1      45.341   3.242   9.062  0.00  0.00    +0.000 A 
ATOM     18  C   UNL     1      45.793   4.101   8.042  0.00  0.00    +0.000 A 
ATOM     19  C   UNL     1      46.517   3.622   6.945  0.00  0.00    +0.000 A 
ATOM     20  C   UNL     1      46.797   2.262   6.834  0.00  0.00    +0.000 A 
ATOM     21  C   UNL     1      46.329   1.388   7.811  0.00  0.00    +0.000 A 
ATOM     22 CL   UNL     1      46.676  -0.294   7.689  0.00  0.00    +0.000 Cl
ATOM     23  C   UNL     1      45.612   1.869   8.903  0.00  0.00    +0.000 A 
ENDBRANCH  14  17
ENDBRANCH   1  14
TORSDOF 4
ENDMDL
MODEL 4
REMARK VINA RESULT:    -6.809      3.652      6.179
REMARK INTER + INTRA:          -9.128
REMARK INTER:                  -8.567
REMARK INTRA:                  -0.561
REMARK UNBOUND:                -0.726
REMARK  Name = 
REMARK  4 active torsions:
REMARK  status: ('A' for Active; 'I' for Inactive)
REMARK    1  A    between atoms: C_2  and  C_4
REMARK    2  A    between atoms: C_7  and  N_8
REMARK    3  A    between atoms: N_8  and  C_9
REMARK    4  A    between atoms: C_9  and  C_10
REMARK                            x       y       z     vdW  Elec       q    Type
REMARK                         _______ _______ _______ _____ _____    ______ ____
ROOT
ATOM      1  N   UNL     1      44.820   5.227  11.174  0.00  0.00    +0.000 N 
ATOM      2  H   UNL     1      44.600   5.904  10.447  0.00  0.00    +0.000 HD
ENDROOT
BRANCH   1   6
ATOM      3  C   UNL     1      48.201   6.634  13.273  0.00  0.00    +0.000 A 
ATOM      4  C   UNL     1      47.379   5.673  13.872  0.00  0.00    +0.000 A 
ATOM      5  C   UNL     1      46.242   5.210  13.200  0.00  0.00    +0.000 A 
ATOM      6  C   UNL     1      45.919   5.682  11.926  0.00  0.00    +0.000 A 
ATOM      7  C   UNL     1      46.758   6.638  11.334  0.00  0.00    +0.000 A 
ATOM      8  C   UNL     1      47.879   7.128  12.007  0.00  0.00    +0.000 A 
BRANCH   3  10
ATOM      9  N   UNL     1      50.052   8.217  13.346  0.00  0.00    +0.000 N 
ATOM     10  C   UNL     1      49.403   7.180  13.962  0.00  0.00    +0.000 C 
ATOM     11  O   UNL     1      49.776   6.754  15.040  0.00  0.00    +0.000 OA
ATOM     12  H   UNL     1      50.801   8.643  13.868  0.00  0.00    +0.000 HD
ATOM     13  H   UNL     1      49.627   8.755  12.603  0.00  0.00    +0.000 HD
ENDBRANCH   3  10
ENDBRANCH   1   6
BRANCH   1  14
ATOM     14  C   UNL     1      44.600   3.816  10.790  0.00  0.00    +0.000 C 
ATOM     15  C   UNL     1      43.202   3.308  11.116  0.00  0.00    +0.000 C 
ATOM     16  C   UNL     1      44.378   2.748  11.847  0.00  0.00    +0.000 C 
BRANCH  14  17
ATOM     17  C   UNL     1      45.236   3.411   9.462  0.00  0.00    +0.000 A 
ATOM     18  C   UNL     1      45.592   4.371   8.497  0.00  0.00    +0.000 A 
ATOM     19  C   UNL     1      46.272   4.019   7.326  0.00  0.00    +0.000 A 
ATOM     20  C   UNL     1      46.603   2.688   7.086  0.00  0.00    +0.000 A 
ATOM     21  C   UNL     1      46.229   1.714   8.008  0.00  0.00    +0.000 A 
ATOM     22 CL   UNL     1      46.639   0.067   7.726  0.00  0.00    +0.000 Cl
ATOM     23  C   UNL     1      45.556   2.069   9.173  0.00  0.00    +0.000 A 
ENDBRANCH  14  17
ENDBRANCH   1  14
TORSDOF 4
ENDMDL
MODEL 5
REMARK VINA RESULT:    -6.428      3.993      6.493
REMARK INTER + INTRA:          -8.657
REMARK INTER:                  -8.010
REMARK INTRA:                  -0.647
REMARK UNBOUND:                -0.726
REMARK  Name = 
REMARK  4 active torsions:
REMARK  status: ('A' for Active; 'I' for Inactive)
REMARK    1  A    between atoms: C_2  and  C_4
REMARK    2  A    between atoms: C_7  and  N_8
REMARK    3  A    between atoms: N_8  and  C_9
REMARK    4  A    between atoms: C_9  and  C_10
REMARK                            x       y       z     vdW  Elec       q    Type
REMARK                         _______ _______ _______ _____ _____    ______ ____
ROOT
ATOM      1  N   UNL     1      44.890   6.698  11.108  0.00  0.00    +0.000 N 
ATOM      2  H   UNL     1      45.150   6.966  10.162  0.00  0.00    +0.000 HD
ENDROOT
BRANCH   1   6
ATOM      3  C   UNL     1      47.994   7.624  13.815  0.00  0.00    +0.000 A 
ATOM      4  C   UNL     1      46.961   8.547  13.622  0.00  0.00    +0.000 A 
ATOM      5  C   UNL     1      45.934   8.267  12.713  0.00  0.00    +0.000 A 
ATOM      6  C   UNL     1      45.913   7.066  12.002  0.00  0.00    +0.000 A 
ATOM      7  C   UNL     1      46.950   6.145  12.213  0.00  0.00    +0.000 A 
ATOM      8  C   UNL     1      47.995   6.427  13.096  0.00  0.00    +0.000 A 
BRANCH   3  10
ATOM      9  N   UNL     1      50.358   7.437  14.370  0.00  0.00    +0.000 N 
ATOM     10  C   UNL     1      49.124   7.891  14.748  0.00  0.00    +0.000 C 
ATOM     11  O   UNL     1      48.970   8.516  15.782  0.00  0.00    +0.000 OA
ATOM     12  H   UNL     1      51.129   7.710  14.958  0.00  0.00    +0.000 HD
ATOM     13  H   UNL     1      50.563   7.155  13.421  0.00  0.00    +0.000 HD
ENDBRANCH   3  10
ENDBRANCH   1   6
BRANCH   1  14
ATOM     14  C   UNL     1      44.113   5.443  11.203  0.00  0.00    +0.000 C 
ATOM     15  C   UNL     1      42.618   5.665  11.393  0.00  0.00    +0.000 C 
ATOM     16  C   UNL     1      43.418   5.054  12.496  0.00  0.00    +0.000 C 
BRANCH  14  17
ATOM     17  C   UNL     1      44.576   4.335  10.260  0.00  0.00    +0.000 A 
ATOM     18  C   UNL     1      44.171   3.000  10.444  0.00  0.00    +0.000 A 
ATOM     19  C   UNL     1      44.502   1.998   9.525  0.00  0.00    +0.000 A 
ATOM     20  C   UNL     1      45.261   2.308   8.399  0.00  0.00    +0.000 A 
ATOM     21  C   UNL     1      45.704   3.615   8.214  0.00  0.00    +0.000 A 
ATOM     22 CL   UNL     1      46.636   4.011   6.822  0.00  0.00    +0.000 Cl
ATOM     23  C   UNL     1      45.370   4.608   9.129  0.00  0.00    +0.000 A 
ENDBRANCH  14  17
ENDBRANCH   1  14
TORSDOF 4
ENDMDL
MODEL 6
REMARK VINA RESULT:    -6.074      3.807      6.623
REMARK INTER + INTRA:          -8.220
REMARK INTER:                  -7.751
REMARK INTRA:                  -0.469
REMARK UNBOUND:                -0.726
REMARK  Name = 
REMARK  4 active torsions:
REMARK  status: ('A' for Active; 'I' for Inactive)
REMARK    1  A    between atoms: C_2  and  C_4
REMARK    2  A    between atoms: C_7  and  N_8
REMARK    3  A    between atoms: N_8  and  C_9
REMARK    4  A    between atoms: C_9  and  C_10
REMARK                            x       y       z     vdW  Elec       q    Type
REMARK                         _______ _______ _______ _____ _____    ______ ____
ROOT
ATOM      1  N   UNL     1      45.659   6.327  11.780  0.00  0.00    +0.000 N 
ATOM      2  H   UNL     1      46.280   6.605  11.023  0.00  0.00    +0.000 HD
ENDROOT
BRANCH   1   6
ATOM      3  C   UNL     1      47.792   5.352  15.290  0.00  0.00    +0.000 A 
ATOM      4  C   UNL     1      48.114   6.527  14.601  0.00  0.00    +0.000 A 
ATOM      5  C   UNL     1      47.432   6.856  13.424  0.00  0.00    +0.000 A 
ATOM      6  C   UNL     1      46.417   6.035  12.929  0.00  0.00    +0.000 A 
ATOM      7  C   UNL     1      46.098   4.866  13.635  0.00  0.00    +0.000 A 
ATOM      8  C   UNL     1      46.791   4.513  14.795  0.00  0.00    +0.000 A 
BRANCH   3  10
ATOM      9  N   UNL     1      47.746   4.471  17.560  0.00  0.00    +0.000 N 
ATOM     10  C   UNL     1      48.511   4.944  16.528  0.00  0.00    +0.000 C 
ATOM     11  O   UNL     1      49.725   4.992  16.613  0.00  0.00    +0.000 OA
ATOM     12  H   UNL     1      48.249   4.104  18.352  0.00  0.00    +0.000 HD
ATOM     13  H   UNL     1      46.787   4.177  17.431  0.00  0.00    +0.000 HD
ENDBRANCH   3  10
ENDBRANCH   1   6
BRANCH   1  14
ATOM     14  C   UNL     1      44.467   5.564  11.353  0.00  0.00    +0.000 C 
ATOM     15  C   UNL     1      43.239   6.434  11.118  0.00  0.00    +0.000 C 
ATOM     16  C   UNL     1      43.246   5.461  12.251  0.00  0.00    +0.000 C 
BRANCH  14  17
ATOM     17  C   UNL     1      44.755   4.425  10.378  0.00  0.00    +0.000 A 
ATOM     18  C   UNL     1      44.225   3.137  10.578  0.00  0.00    +0.000 A 
ATOM     19  C   UNL     1      44.395   2.117   9.636  0.00  0.00    +0.000 A 
ATOM     20  C   UNL     1      45.116   2.359   8.469  0.00  0.00    +0.000 A 
ATOM     21  C   UNL     1      45.682   3.615   8.265  0.00  0.00    +0.000 A 
ATOM     22 CL   UNL     1      46.568   3.928   6.823  0.00  0.00    +0.000 Cl
ATOM     23  C   UNL     1      45.507   4.627   9.204  0.00  0.00    +0.000 A 
ENDBRANCH  14  17
ENDBRANCH   1  14
TORSDOF 4
ENDMDL
MODEL 7
REMARK VINA RESULT:    -5.951      4.716      7.739
REMARK INTER + INTRA:          -8.069
REMARK INTER:                  -7.410
REMARK INTRA:                  -0.659
REMARK UNBOUND:                -0.726
REMARK  Name = 
REMARK  4 active torsions:
REMARK  status: ('A' for Active; 'I' for Inactive)
REMARK    1  A    between atoms: C_2  and  C_4
REMARK    2  A    between atoms: C_7  and  N_8
REMARK    3  A    between atoms: N_8  and  C_9
REMARK    4  A    between atoms: C_9  and  C_10
REMARK                            x       y       z     vdW  Elec       q    Type
REMARK                         _______ _______ _______ _____ _____    ______ ____
ROOT
ATOM      1  N   UNL     1      47.697   5.895  13.333  0.00  0.00    +0.000 N 
ATOM      2  H   UNL     1      48.003   5.123  12.746  0.00  0.00    +0.000 HD
ENDROOT
BRANCH   1   6
ATOM      3  C   UNL     1      48.081   4.848  17.404  0.00  0.00    +0.000 A 
ATOM      4  C   UNL     1      47.270   4.067  16.574  0.00  0.00    +0.000 A 
ATOM      5  C   UNL     1      47.114   4.411  15.226  0.00  0.00    +0.000 A 
ATOM      6  C   UNL     1      47.771   5.519  14.687  0.00  0.00    +0.000 A 
ATOM      7  C   UNL     1      48.589   6.287  15.528  0.00  0.00    +0.000 A 
ATOM      8  C   UNL     1      48.729   5.970  16.881  0.00  0.00    +0.000 A 
BRANCH   3  10
ATOM      9  N   UNL     1      48.370   3.221  19.193  0.00  0.00    +0.000 N 
ATOM     10  C   UNL     1      48.254   4.541  18.851  0.00  0.00    +0.000 C 
ATOM     11  O   UNL     1      48.325   5.420  19.691  0.00  0.00    +0.000 OA
ATOM     12  H   UNL     1      48.586   3.031  20.159  0.00  0.00    +0.000 HD
ATOM     13  H   UNL     1      48.575   2.502  18.512  0.00  0.00    +0.000 HD
ENDBRANCH   3  10
ENDBRANCH   1   6
BRANCH   1  14
ATOM     14  C   UNL     1      46.612   6.717  12.755  0.00  0.00    +0.000 C 
ATOM     15  C   UNL     1      47.113   7.915  11.959  0.00  0.00    +0.000 C 
ATOM     16  C   UNL     1      46.372   8.138  13.235  0.00  0.00    +0.000 C 
BRANCH  14  17
ATOM     17  C   UNL     1      45.429   5.919  12.212  0.00  0.00    +0.000 A 
ATOM     18  C   UNL     1      44.244   5.767  12.956  0.00  0.00    +0.000 A 
ATOM     19  C   UNL     1      43.118   5.130  12.424  0.00  0.00    +0.000 A 
ATOM     20  C   UNL     1      43.155   4.616  11.130  0.00  0.00    +0.000 A 
ATOM     21  C   UNL     1      44.328   4.721  10.387  0.00  0.00    +0.000 A 
ATOM     22 CL   UNL     1      44.383   4.095   8.785  0.00  0.00    +0.000 Cl
ATOM     23  C   UNL     1      45.444   5.358  10.920  0.00  0.00    +0.000 A 
ENDBRANCH  14  17
ENDBRANCH   1  14
TORSDOF 4
ENDMDL
MODEL 8
REMARK VINA RESULT:    -5.799      2.622      4.296
REMARK INTER + INTRA:          -7.881
REMARK INTER:                  -7.654
REMARK INTRA:                  -0.227
REMARK UNBOUND:                -0.726
REMARK  Name = 
REMARK  4 active torsions:
REMARK  status: ('A' for Active; 'I' for Inactive)
REMARK    1  A    between atoms: C_2  and  C_4
REMARK    2  A    between atoms: C_7  and  N_8
REMARK    3  A    between atoms: N_8  and  C_9
REMARK    4  A    between atoms: C_9  and  C_10
REMARK                            x       y       z     vdW  Elec       q    Type
REMARK                         _______ _______ _______ _____ _____    ______ ____
ROOT
ATOM      1  N   UNL     1      46.203   6.073  13.636  0.00  0.00    +0.000 N 
ATOM      2  H   UNL     1      45.633   5.800  14.433  0.00  0.00    +0.000 HD
ENDROOT
BRANCH   1   6
ATOM      3  C   UNL     1      44.998   3.808  10.284  0.00  0.00    +0.000 A 
ATOM      4  C   UNL     1      45.313   5.160  10.114  0.00  0.00    +0.000 A 
ATOM      5  C   UNL     1      45.694   5.932  11.217  0.00  0.00    +0.000 A 
ATOM      6  C   UNL     1      45.782   5.369  12.492  0.00  0.00    +0.000 A 
ATOM      7  C   UNL     1      45.474   4.010  12.645  0.00  0.00    +0.000 A 
ATOM      8  C   UNL     1      45.065   3.236  11.556  0.00  0.00    +0.000 A 
BRANCH   3  10
ATOM      9  N   UNL     1      44.204   3.596   7.990  0.00  0.00    +0.000 N 
ATOM     10  C   UNL     1      44.558   2.953   9.146  0.00  0.00    +0.000 C 
ATOM     11  O   UNL     1      44.546   1.738   9.221  0.00  0.00    +0.000 OA
ATOM     12  H   UNL     1      44.006   3.006   7.198  0.00  0.00    +0.000 HD
ATOM     13  H   UNL     1      44.449   4.561   7.812  0.00  0.00    +0.000 HD
ENDBRANCH   3  10
ENDBRANCH   1   6
BRANCH   1  14
ATOM     14  C   UNL     1      47.615   6.370  13.958  0.00  0.00    +0.000 C 
ATOM     15  C   UNL     1      48.035   7.790  13.602  0.00  0.00    +0.000 C 
ATOM     16  C   UNL     1      48.625   6.640  12.856  0.00  0.00    +0.000 C 
BRANCH  14  17
ATOM     17  C   UNL     1      48.109   5.767  15.271  0.00  0.00    +0.000 A 
ATOM     18  C   UNL     1      49.096   6.405  16.045  0.00  0.00    +0.000 A 
ATOM     19  C   UNL     1      49.477   5.916  17.299  0.00  0.00    +0.000 A 
ATOM     20  C   UNL     1      48.884   4.763  17.807  0.00  0.00    +0.000 A 
ATOM     21  C   UNL     1      47.931   4.093  17.044  0.00  0.00    +0.000 A 
ATOM     22 CL   UNL     1      47.187   2.671  17.664  0.00  0.00    +0.000 Cl
ATOM     23  C   UNL     1      47.553   4.584  15.798  0.00  0.00    +0.000 A 
ENDBRANCH  14  17
ENDBRANCH   1  14
TORSDOF 4
ENDMDL
MODEL 9
REMARK VINA RESULT:    -5.690      3.201      5.139
REMARK INTER + INTRA:          -7.746
REMARK INTER:                  -7.036
REMARK INTRA:                  -0.710
REMARK UNBOUND:                -0.726
REMARK  Name = 
REMARK  4 active torsions:
REMARK  status: ('A' for Active; 'I' for Inactive)
REMARK    1  A    between atoms: C_2  and  C_4
REMARK    2  A    between atoms: C_7  and  N_8
REMARK    3  A    between atoms: N_8  and  C_9
REMARK    4  A    between atoms: C_9  and  C_10
REMARK                            x       y       z     vdW  Elec       q    Type
REMARK                         _______ _______ _______ _____ _____    ______ ____
ROOT
ATOM      1  N   UNL     1      46.687   7.782  12.408  0.00  0.00    +0.000 N 
ATOM      2  H   UNL     1      46.078   8.383  12.957  0.00  0.00    +0.000 HD
ENDROOT
BRANCH   1   6
ATOM      3  C   UNL     1      44.669   4.200  11.450  0.00  0.00    +0.000 A 
ATOM      4  C   UNL     1      44.909   4.508  12.794  0.00  0.00    +0.000 A 
ATOM      5  C   UNL     1      45.595   5.680  13.129  0.00  0.00    +0.000 A 
ATOM      6  C   UNL     1      46.034   6.564  12.141  0.00  0.00    +0.000 A 
ATOM      7  C   UNL     1      45.777   6.248  10.799  0.00  0.00    +0.000 A 
ATOM      8  C   UNL     1      45.118   5.067  10.451  0.00  0.00    +0.000 A 
BRANCH   3  10
ATOM      9  N   UNL     1      44.520   2.245  10.006  0.00  0.00    +0.000 N 
ATOM     10  C   UNL     1      43.971   2.950  11.042  0.00  0.00    +0.000 C 
ATOM     11  O   UNL     1      42.979   2.548  11.623  0.00  0.00    +0.000 OA
ATOM     12  H   UNL     1      44.099   1.352   9.805  0.00  0.00    +0.000 HD
ATOM     13  H   UNL     1      45.465   2.405   9.684  0.00  0.00    +0.000 HD
ENDBRANCH   3  10
ENDBRANCH   1   6
BRANCH   1  14
ATOM     14  C   UNL     1      48.126   7.902  12.728  0.00  0.00    +0.000 C 
ATOM     15  C   UNL     1      48.883   8.832  11.789  0.00  0.00    +0.000 C 
ATOM     16  C   UNL     1      49.182   7.369  11.776  0.00  0.00    +0.000 C 
BRANCH  14  17
ATOM     17  C   UNL     1      48.444   7.950  14.221  0.00  0.00    +0.000 A 
ATOM     18  C   UNL     1      48.093   9.062  15.009  0.00  0.00    +0.000 A 
ATOM     19  C   UNL     1      48.284   9.069  16.395  0.00  0.00    +0.000 A 
ATOM     20  C   UNL     1      48.845   7.963  17.028  0.00  0.00    +0.000 A 
ATOM     21  C   UNL     1      49.234   6.865  16.265  0.00  0.00    +0.000 A 
ATOM     22 CL   UNL     1      49.921   5.489  17.036  0.00  0.00    +0.000 Cl
ATOM     23  C   UNL     1      49.040   6.861  14.887  0.00  0.00    +0.000 A 
ENDBRANCH  14  17
ENDBRANCH   1  14
TORSDOF 4
ENDMDL
