MODEL 1
REMARK VINA RESULT:    -8.451      0.000      0.000
REMARK INTER + INTRA:         -12.464
REMARK INTER:                 -11.416
REMARK INTRA:                  -1.048
REMARK UNBOUND:                -1.048
REMARK  Name = 
REMARK  7 active torsions:
REMARK  status: ('A' for Active; 'I' for Inactive)
REMARK    1  A    between atoms: C_1  and  C_2
REMARK    2  A    between atoms: C_6  and  C_7
REMARK    3  A    between atoms: C_7  and  O_8
REMARK    4  A    between atoms: O_8  and  C_9
REMARK    5  A    between atoms: C_12  and  C_13
REMARK    6  A    between atoms: C_13  and  N_14
REMARK    7  A    between atoms: C_15  and  C_17
REMARK                            x       y       z     vdW  Elec       q    Type
REMARK                         _______ _______ _______ _____ _____    ______ ____
ROOT
ATOM      1  C   UNL     1      46.782   8.016  13.211  0.00  0.00    +0.000 C 
ENDROOT
BRANCH   1   5
ATOM      2  C   UNL     1      44.701   5.068  10.844  0.00  0.00    +0.000 A 
ATOM      3  C   UNL     1      45.854   5.673  10.342  0.00  0.00    +0.000 A 
ATOM      4  C   UNL     1      46.534   6.633  11.098  0.00  0.00    +0.000 A 
ATOM      5  C   UNL     1      46.063   6.998  12.367  0.00  0.00    +0.000 A 
ATOM      6  C   UNL     1      44.860   6.445  12.825  0.00  0.00    +0.000 A 
ATOM      7  C   UNL     1      44.182   5.490  12.067  0.00  0.00    +0.000 A 
BRANCH   2   8
ATOM      8  O   UNL     1      44.150   4.082  10.067  0.00  0.00    +0.000 OA
BRANCH   8   9
ATOM      9  C   UNL     1      44.396   4.230   8.660  0.00  0.00    +0.000 C 
BRANCH   9  15
ATOM     10  C   UNL     1      47.470   2.893   5.130  0.00  0.00    +0.000 C 
ATOM     11  C   UNL     1      46.800   2.537   6.422  0.00  0.00    +0.000 A 
ATOM     12  C   UNL     1      46.987   1.287   7.001  0.00  0.00    +0.000 A 
ATOM     13  C   UNL     1      46.319   0.992   8.185  0.00  0.00    +0.000 A 
ATOM     14  C   UNL     1      45.485   1.946   8.756  0.00  0.00    +0.000 A 
ATOM     15  C   UNL     1      45.354   3.183   8.133  0.00  0.00    +0.000 A 
ATOM     16  N   UNL     1      45.994   3.479   6.970  0.00  0.00    +0.000 NA
ENDBRANCH   9  15
ENDBRANCH   8   9
ENDBRANCH   2   8
ENDBRANCH   1   5
BRANCH   1  17
ATOM     17  N   UNL     1      47.311   7.394  14.392  0.00  0.00    +0.000 N 
ATOM     18  C   UNL     1      48.542   6.792  14.408  0.00  0.00    +0.000 C 
ATOM     19  O   UNL     1      49.287   6.798  13.430  0.00  0.00    +0.000 OA
ATOM     20  H   UNL     1      46.636   7.149  15.109  0.00  0.00    +0.000 HD
BRANCH  18  21
ATOM     21  C   UNL     1      48.949   6.205  15.687  0.00  0.00    +0.000 A 
ATOM     22  C   UNL     1      50.019   6.741  16.389  0.00  0.00    +0.000 A 
ATOM     23  S   UNL     1      50.275   6.003  17.906  0.00  0.00    +0.000 S 
ATOM     24  C   UNL     1      49.003   4.902  17.650  0.00  0.00    +0.000 A 
ATOM     25  N   UNL     1      48.680   3.970  18.587  0.00  0.00    +0.000 NA
ATOM     26  C   UNL     1      47.711   3.185  18.248  0.00  0.00    +0.000 A 
ATOM     27  N   UNL     1      47.042   3.241  17.053  0.00  0.00    +0.000 N 
ATOM     28  C   UNL     1      47.328   4.169  16.082  0.00  0.00    +0.000 A 
ATOM     29  O   UNL     1      46.705   4.198  15.026  0.00  0.00    +0.000 OA
ATOM     30  C   UNL     1      48.396   5.092  16.423  0.00  0.00    +0.000 A 
ATOM     31  H   UNL     1      46.299   2.592  16.843  0.00  0.00    +0.000 HD
ENDBRANCH  18  21
ENDBRANCH   1  17
TORSDOF 6
ENDMDL
MODEL 2
REMARK VINA RESULT:    -8.115      1.841      2.294
REMARK INTER + INTRA:         -12.010
REMARK INTER:                 -11.275
REMARK INTRA:                  -0.735
REMARK UNBOUND:                -1.048
REMARK  Name = 
REMARK  7 active torsions:
REMARK  status: ('A' for Active; 'I' for Inactive)
REMARK    1  A    between atoms: C_1  and  C_2
REMARK    2  A    between atoms: C_6  and  C_7
REMARK    3  A    between atoms: C_7  and  O_8
REMARK    4  A    between atoms: O_8  and  C_9
REMARK    5  A    between atoms: C_12  and  C_13
REMARK    6  A    between atoms: C_13  and  N_14
REMARK    7  A    between atoms: C_15  and  C_17
REMARK                            x       y       z     vdW  Elec       q    Type
REMARK                         _______ _______ _______ _____ _____    ______ ____
ROOT
ATOM      1  C   UNL     1      47.998   6.897  13.592  0.00  0.00    +0.000 C 
ENDROOT
BRANCH   1   5
ATOM      2  C   UNL     1      45.362   3.899  11.953  0.00  0.00    +0.000 A 
ATOM      3  C   UNL     1      45.305   5.209  11.475  0.00  0.00    +0.000 A 
ATOM      4  C   UNL     1      46.151   6.190  12.003  0.00  0.00    +0.000 A 
ATOM      5  C   UNL     1      47.063   5.867  13.016  0.00  0.00    +0.000 A 
ATOM      6  C   UNL     1      47.054   4.569  13.545  0.00  0.00    +0.000 A 
ATOM      7  C   UNL     1      46.207   3.594  13.020  0.00  0.00    +0.000 A 
BRANCH   2   8
ATOM      8  O   UNL     1      44.553   2.991  11.321  0.00  0.00    +0.000 OA
BRANCH   8   9
ATOM      9  C   UNL     1      44.078   3.416  10.034  0.00  0.00    +0.000 C 
BRANCH   9  15
ATOM     10  C   UNL     1      46.743   0.059   7.726  0.00  0.00    +0.000 C 
ATOM     11  C   UNL     1      46.366   1.504   7.852  0.00  0.00    +0.000 A 
ATOM     12  C   UNL     1      46.983   2.472   7.069  0.00  0.00    +0.000 A 
ATOM     13  C   UNL     1      46.621   3.804   7.243  0.00  0.00    +0.000 A 
ATOM     14  C   UNL     1      45.659   4.133   8.190  0.00  0.00    +0.000 A 
ATOM     15  C   UNL     1      45.068   3.113   8.929  0.00  0.00    +0.000 A 
ATOM     16  N   UNL     1      45.421   1.809   8.775  0.00  0.00    +0.000 NA
ENDBRANCH   9  15
ENDBRANCH   8   9
ENDBRANCH   2   8
ENDBRANCH   1   5
BRANCH   1  17
ATOM     17  N   UNL     1      47.924   6.885  15.026  0.00  0.00    +0.000 N 
ATOM     18  C   UNL     1      49.045   6.829  15.812  0.00  0.00    +0.000 C 
ATOM     19  O   UNL     1      50.179   6.841  15.338  0.00  0.00    +0.000 OA
ATOM     20  H   UNL     1      47.030   6.615  15.425  0.00  0.00    +0.000 HD
BRANCH  18  21
ATOM     21  C   UNL     1      48.811   6.829  17.259  0.00  0.00    +0.000 A 
ATOM     22  C   UNL     1      48.485   8.011  17.910  0.00  0.00    +0.000 A 
ATOM     23  S   UNL     1      48.137   7.799  19.567  0.00  0.00    +0.000 S 
ATOM     24  C   UNL     1      48.468   6.132  19.483  0.00  0.00    +0.000 A 
ATOM     25  N   UNL     1      48.358   5.337  20.582  0.00  0.00    +0.000 NA
ATOM     26  C   UNL     1      48.666   4.099  20.378  0.00  0.00    +0.000 A 
ATOM     27  N   UNL     1      49.083   3.585  19.178  0.00  0.00    +0.000 N 
ATOM     28  C   UNL     1      49.200   4.347  18.042  0.00  0.00    +0.000 A 
ATOM     29  O   UNL     1      49.569   3.854  16.981  0.00  0.00    +0.000 OA
ATOM     30  C   UNL     1      48.845   5.744  18.211  0.00  0.00    +0.000 A 
ATOM     31  H   UNL     1      49.318   2.608  19.085  0.00  0.00    +0.000 HD
ENDBRANCH  18  21
ENDBRANCH   1  17
TORSDOF 6
ENDMDL
MODEL 3
REMARK VINA RESULT:    -7.980      2.333      2.889
REMARK INTER + INTRA:         -11.827
REMARK INTER:                 -10.898
REMARK INTRA:                  -0.929
REMARK UNBOUND:                -1.048
REMARK  Name = 
REMARK  7 active torsions:
REMARK  status: ('A' for Active; 'I' for Inactive)
REMARK    1  A    between atoms: C_1  and  C_2
REMARK    2  A    between atoms: C_6  and  C_7
REMARK    3  A    between atoms: C_7  and  O_8
REMARK    4  A    between atoms: O_8  and  C_9
REMARK    5  A    between atoms: C_12  and  C_13
REMARK    6  A    between atoms: C_13  and  N_14
REMARK    7  A    between atoms: C_15  and  C_17
REMARK                            x       y       z     vdW  Elec       q    Type
REMARK                         _______ _______ _______ _____ _____    ______ ____
ROOT
ATOM      1  C   UNL     1      48.173   7.093  13.725  0.00  0.00    +0.000 C 
ENDROOT
BRANCH   1   5
ATOM      2  C   UNL     1      45.051   5.154  11.463  0.00  0.00    +0.000 A 
ATOM      3  C   UNL     1      45.557   6.382  11.036  0.00  0.00    +0.000 A 
ATOM      4  C   UNL     1      46.566   7.022  11.763  0.00  0.00    +0.000 A 
ATOM      5  C   UNL     1      47.076   6.437  12.929  0.00  0.00    +0.000 A 
ATOM      6  C   UNL     1      46.503   5.246  13.394  0.00  0.00    +0.000 A 
ATOM      7  C   UNL     1      45.495   4.611  12.668  0.00  0.00    +0.000 A 
BRANCH   2   8
ATOM      8  O   UNL     1      44.123   4.566  10.644  0.00  0.00    +0.000 OA
BRANCH   8   9
ATOM      9  C   UNL     1      44.360   3.174  10.383  0.00  0.00    +0.000 C 
BRANCH   9  15
ATOM     10  C   UNL     1      46.856   0.053   7.603  0.00  0.00    +0.000 C 
ATOM     11  C   UNL     1      46.401   1.464   7.821  0.00  0.00    +0.000 A 
ATOM     12  C   UNL     1      46.813   2.484   6.972  0.00  0.00    +0.000 A 
ATOM     13  C   UNL     1      46.389   3.783   7.232  0.00  0.00    +0.000 A 
ATOM     14  C   UNL     1      45.569   4.028   8.328  0.00  0.00    +0.000 A 
ATOM     15  C   UNL     1      45.180   2.958   9.128  0.00  0.00    +0.000 A 
ATOM     16  N   UNL     1      45.597   1.686   8.889  0.00  0.00    +0.000 NA
ENDBRANCH   9  15
ENDBRANCH   8   9
ENDBRANCH   2   8
ENDBRANCH   1   5
BRANCH   1  17
ATOM     17  N   UNL     1      48.018   6.795  15.120  0.00  0.00    +0.000 N 
ATOM     18  C   UNL     1      49.088   6.512  15.928  0.00  0.00    +0.000 C 
ATOM     19  O   UNL     1      50.246   6.550  15.517  0.00  0.00    +0.000 OA
ATOM     20  H   UNL     1      47.091   6.506  15.415  0.00  0.00    +0.000 HD
BRANCH  18  21
ATOM     21  C   UNL     1      48.773   6.233  17.331  0.00  0.00    +0.000 A 
ATOM     22  C   UNL     1      48.951   4.955  17.843  0.00  0.00    +0.000 A 
ATOM     23  S   UNL     1      48.643   4.844  19.517  0.00  0.00    +0.000 S 
ATOM     24  C   UNL     1      48.203   6.486  19.604  0.00  0.00    +0.000 A 
ATOM     25  N   UNL     1      47.823   7.051  20.781  0.00  0.00    +0.000 NA
ATOM     26  C   UNL     1      47.491   8.297  20.693  0.00  0.00    +0.000 A 
ATOM     27  N   UNL     1      47.497   9.027  19.533  0.00  0.00    +0.000 N 
ATOM     28  C   UNL     1      47.881   8.501  18.325  0.00  0.00    +0.000 A 
ATOM     29  O   UNL     1      47.882   9.184  17.305  0.00  0.00    +0.000 OA
ATOM     30  C   UNL     1      48.285   7.108  18.372  0.00  0.00    +0.000 A 
ATOM     31  H   UNL     1      47.218   9.997  19.529  0.00  0.00    +0.000 HD
ENDBRANCH  18  21
ENDBRANCH   1  17
TORSDOF 6
ENDMDL
MODEL 4
REMARK VINA RESULT:    -7.539      1.815      2.322
REMARK INTER + INTRA:         -11.231
REMARK INTER:                 -10.298
REMARK INTRA:                  -0.933
REMARK UNBOUND:                -1.048
REMARK  Name = 
REMARK  7 active torsions:
REMARK  status: ('A' for Active; 'I' for Inactive)
REMARK    1  A    between atoms: C_1  and  C_2
REMARK    2  A    between atoms: C_6  and  C_7
REMARK    3  A    between atoms: C_7  and  O_8
REMARK    4  A    between atoms: O_8  and  C_9
REMARK    5  A    between atoms: C_12  and  C_13
REMARK    6  A    between atoms: C_13  and  N_14
REMARK    7  A    between atoms: C_15  and  C_17
REMARK                            x       y       z     vdW  Elec       q    Type
REMARK                         _______ _______ _______ _____ _____    ______ ____
ROOT
ATOM      1  C   UNL     1      47.395   7.416  13.455  0.00  0.00    +0.000 C 
ENDROOT
BRANCH   1   5
ATOM      2  C   UNL     1      45.245   4.030  11.861  0.00  0.00    +0.000 A 
ATOM      3  C   UNL     1      44.937   5.318  11.421  0.00  0.00    +0.000 A 
ATOM      4  C   UNL     1      45.624   6.424  11.934  0.00  0.00    +0.000 A 
ATOM      5  C   UNL     1      46.627   6.248  12.896  0.00  0.00    +0.000 A 
ATOM      6  C   UNL     1      46.870   4.960  13.391  0.00  0.00    +0.000 A 
ATOM      7  C   UNL     1      46.181   3.860  12.880  0.00  0.00    +0.000 A 
BRANCH   2   8
ATOM      8  O   UNL     1      44.576   3.006  11.243  0.00  0.00    +0.000 OA
BRANCH   8   9
ATOM      9  C   UNL     1      44.083   3.325   9.933  0.00  0.00    +0.000 C 
BRANCH   9  15
ATOM     10  C   UNL     1      46.789  -0.057   7.710  0.00  0.00    +0.000 C 
ATOM     11  C   UNL     1      46.409   1.390   7.813  0.00  0.00    +0.000 A 
ATOM     12  C   UNL     1      47.041   2.349   7.030  0.00  0.00    +0.000 A 
ATOM     13  C   UNL     1      46.675   3.683   7.183  0.00  0.00    +0.000 A 
ATOM     14  C   UNL     1      45.696   4.021   8.109  0.00  0.00    +0.000 A 
ATOM     15  C   UNL     1      45.093   3.010   8.849  0.00  0.00    +0.000 A 
ATOM     16  N   UNL     1      45.449   1.704   8.716  0.00  0.00    +0.000 NA
ENDBRANCH   9  15
ENDBRANCH   8   9
ENDBRANCH   2   8
ENDBRANCH   1   5
BRANCH   1  17
ATOM     17  N   UNL     1      48.572   6.954  14.134  0.00  0.00    +0.000 N 
ATOM     18  C   UNL     1      48.979   7.486  15.329  0.00  0.00    +0.000 C 
ATOM     19  O   UNL     1      48.331   8.350  15.916  0.00  0.00    +0.000 OA
ATOM     20  H   UNL     1      49.246   6.449  13.567  0.00  0.00    +0.000 HD
BRANCH  18  21
ATOM     21  C   UNL     1      50.198   6.909  15.903  0.00  0.00    +0.000 A 
ATOM     22  C   UNL     1      51.435   7.461  15.604  0.00  0.00    +0.000 A 
ATOM     23  S   UNL     1      52.726   6.732  16.450  0.00  0.00    +0.000 S 
ATOM     24  C   UNL     1      51.682   5.616  17.198  0.00  0.00    +0.000 A 
ATOM     25  N   UNL     1      52.156   4.684  18.068  0.00  0.00    +0.000 NA
ATOM     26  C   UNL     1      51.255   3.887  18.540  0.00  0.00    +0.000 A 
ATOM     27  N   UNL     1      49.925   3.930  18.212  0.00  0.00    +0.000 N 
ATOM     28  C   UNL     1      49.401   4.857  17.346  0.00  0.00    +0.000 A 
ATOM     29  O   UNL     1      48.204   4.874  17.079  0.00  0.00    +0.000 OA
ATOM     30  C   UNL     1      50.369   5.793  16.804  0.00  0.00    +0.000 A 
ATOM     31  H   UNL     1      49.271   3.271  18.609  0.00  0.00    +0.000 HD
ENDBRANCH  18  21
ENDBRANCH   1  17
TORSDOF 6
ENDMDL
MODEL 5
REMARK VINA RESULT:    -7.501      2.305      3.583
REMARK INTER + INTRA:         -11.180
REMARK INTER:                 -10.129
REMARK INTRA:                  -1.051
REMARK UNBOUND:                -1.048
REMARK  Name = 
REMARK  7 active torsions:
REMARK  status: ('A' for Active; 'I' for Inactive)
REMARK    1  A    between atoms: C_1  and  C_2
REMARK    2  A    between atoms: C_6  and  C_7
REMARK    3  A    between atoms: C_7  and  O_8
REMARK    4  A    between atoms: O_8  and  C_9
REMARK    5  A    between atoms: C_12  and  C_13
REMARK    6  A    between atoms: C_13  and  N_14
REMARK    7  A    between atoms: C_15  and  C_17
REMARK                            x       y       z     vdW  Elec       q    Type
REMARK                         _______ _______ _______ _____ _____    ______ ____
ROOT
ATOM      1  C   UNL     1      47.502   4.005  15.107  0.00  0.00    +0.000 C 
ENDROOT
BRANCH   1   5
ATOM      2  C   UNL     1      45.352   4.735  11.437  0.00  0.00    +0.000 A 
ATOM      3  C   UNL     1      46.048   5.776  12.052  0.00  0.00    +0.000 A 
ATOM      4  C   UNL     1      46.744   5.553  13.245  0.00  0.00    +0.000 A 
ATOM      5  C   UNL     1      46.749   4.281  13.833  0.00  0.00    +0.000 A 
ATOM      6  C   UNL     1      45.979   3.265  13.251  0.00  0.00    +0.000 A 
ATOM      7  C   UNL     1      45.283   3.491  12.064  0.00  0.00    +0.000 A 
BRANCH   2   8
ATOM      8  O   UNL     1      44.768   5.029  10.232  0.00  0.00    +0.000 OA
BRANCH   8   9
ATOM      9  C   UNL     1      44.307   3.882   9.501  0.00  0.00    +0.000 C 
BRANCH   9  15
ATOM     10  C   UNL     1      46.718   0.042   7.727  0.00  0.00    +0.000 C 
ATOM     11  C   UNL     1      46.520   1.528   7.708  0.00  0.00    +0.000 A 
ATOM     12  C   UNL     1      47.327   2.344   6.924  0.00  0.00    +0.000 A 
ATOM     13  C   UNL     1      47.125   3.719   6.963  0.00  0.00    +0.000 A 
ATOM     14  C   UNL     1      46.130   4.242   7.780  0.00  0.00    +0.000 A 
ATOM     15  C   UNL     1      45.347   3.368   8.528  0.00  0.00    +0.000 A 
ATOM     16  N   UNL     1      45.542   2.022   8.506  0.00  0.00    +0.000 NA
ENDBRANCH   9  15
ENDBRANCH   8   9
ENDBRANCH   2   8
ENDBRANCH   1   5
BRANCH   1  17
ATOM     17  N   UNL     1      47.528   5.180  15.930  0.00  0.00    +0.000 N 
ATOM     18  C   UNL     1      48.612   5.501  16.707  0.00  0.00    +0.000 C 
ATOM     19  O   UNL     1      49.642   4.832  16.700  0.00  0.00    +0.000 OA
ATOM     20  H   UNL     1      46.627   5.591  16.152  0.00  0.00    +0.000 HD
BRANCH  18  21
ATOM     21  C   UNL     1      48.493   6.734  17.490  0.00  0.00    +0.000 A 
ATOM     22  C   UNL     1      48.372   6.670  18.871  0.00  0.00    +0.000 A 
ATOM     23  S   UNL     1      48.360   8.202  19.623  0.00  0.00    +0.000 S 
ATOM     24  C   UNL     1      48.456   9.002  18.125  0.00  0.00    +0.000 A 
ATOM     25  N   UNL     1      48.486  10.361  18.054  0.00  0.00    +0.000 NA
ATOM     26  C   UNL     1      48.533  10.832  16.852  0.00  0.00    +0.000 A 
ATOM     27  N   UNL     1      48.541  10.069  15.713  0.00  0.00    +0.000 N 
ATOM     28  C   UNL     1      48.520   8.696  15.737  0.00  0.00    +0.000 A 
ATOM     29  O   UNL     1      48.536   8.042  14.699  0.00  0.00    +0.000 OA
ATOM     30  C   UNL     1      48.490   8.114  17.066  0.00  0.00    +0.000 A 
ATOM     31  H   UNL     1      48.569  10.498  14.800  0.00  0.00    +0.000 HD
ENDBRANCH  18  21
ENDBRANCH   1  17
TORSDOF 6
ENDMDL
MODEL 6
REMARK VINA RESULT:    -7.237      2.032      3.002
REMARK INTER + INTRA:         -10.824
REMARK INTER:                 -10.231
REMARK INTRA:                  -0.593
REMARK UNBOUND:                -1.048
REMARK  Name = 
REMARK  7 active torsions:
REMARK  status: ('A' for Active; 'I' for Inactive)
REMARK    1  A    between atoms: C_1  and  C_2
REMARK    2  A    between atoms: C_6  and  C_7
REMARK    3  A    between atoms: C_7  and  O_8
REMARK    4  A    between atoms: O_8  and  C_9
REMARK    5  A    between atoms: C_12  and  C_13
REMARK    6  A    between atoms: C_13  and  N_14
REMARK    7  A    between atoms: C_15  and  C_17
REMARK                            x       y       z     vdW  Elec       q    Type
REMARK                         _______ _______ _______ _____ _____    ______ ____
ROOT
ATOM      1  C   UNL     1      46.896   7.816  13.581  0.00  0.00    +0.000 C 
ENDROOT
BRANCH   1   5
ATOM      2  C   UNL     1      44.454   5.158  11.217  0.00  0.00    +0.000 A 
ATOM      3  C   UNL     1      44.307   6.539  11.083  0.00  0.00    +0.000 A 
ATOM      4  C   UNL     1      45.089   7.410  11.848  0.00  0.00    +0.000 A 
ATOM      5  C   UNL     1      46.028   6.904  12.756  0.00  0.00    +0.000 A 
ATOM      6  C   UNL     1      46.109   5.518  12.943  0.00  0.00    +0.000 A 
ATOM      7  C   UNL     1      45.325   4.651  12.181  0.00  0.00    +0.000 A 
BRANCH   2   8
ATOM      8  O   UNL     1      43.703   4.386  10.369  0.00  0.00    +0.000 OA
BRANCH   8   9
ATOM      9  C   UNL     1      44.156   3.029  10.243  0.00  0.00    +0.000 C 
BRANCH   9  15
ATOM     10  C   UNL     1      46.860  -0.035   7.598  0.00  0.00    +0.000 C 
ATOM     11  C   UNL     1      46.386   1.371   7.808  0.00  0.00    +0.000 A 
ATOM     12  C   UNL     1      46.857   2.408   7.012  0.00  0.00    +0.000 A 
ATOM     13  C   UNL     1      46.411   3.701   7.264  0.00  0.00    +0.000 A 
ATOM     14  C   UNL     1      45.512   3.924   8.300  0.00  0.00    +0.000 A 
ATOM     15  C   UNL     1      45.067   2.839   9.049  0.00  0.00    +0.000 A 
ATOM     16  N   UNL     1      45.505   1.572   8.818  0.00  0.00    +0.000 NA
ENDBRANCH   9  15
ENDBRANCH   8   9
ENDBRANCH   2   8
ENDBRANCH   1   5
BRANCH   1  17
ATOM     17  N   UNL     1      47.691   7.047  14.496  0.00  0.00    +0.000 N 
ATOM     18  C   UNL     1      48.663   7.621  15.275  0.00  0.00    +0.000 C 
ATOM     19  O   UNL     1      48.872   8.831  15.275  0.00  0.00    +0.000 OA
ATOM     20  H   UNL     1      47.723   6.047  14.329  0.00  0.00    +0.000 HD
BRANCH  18  21
ATOM     21  C   UNL     1      49.389   6.709  16.163  0.00  0.00    +0.000 A 
ATOM     22  C   UNL     1      48.690   5.861  17.010  0.00  0.00    +0.000 A 
ATOM     23  S   UNL     1      49.694   4.795  17.885  0.00  0.00    +0.000 S 
ATOM     24  C   UNL     1      51.101   5.471  17.207  0.00  0.00    +0.000 A 
ATOM     25  N   UNL     1      52.335   5.006  17.538  0.00  0.00    +0.000 NA
ATOM     26  C   UNL     1      53.313   5.630  16.968  0.00  0.00    +0.000 A 
ATOM     27  N   UNL     1      53.168   6.683  16.103  0.00  0.00    +0.000 N 
ATOM     28  C   UNL     1      51.942   7.180  15.734  0.00  0.00    +0.000 A 
ATOM     29  O   UNL     1      51.847   8.120  14.951  0.00  0.00    +0.000 OA
ATOM     30  C   UNL     1      50.808   6.499  16.330  0.00  0.00    +0.000 A 
ATOM     31  H   UNL     1      53.973   7.135  15.696  0.00  0.00    +0.000 HD
ENDBRANCH  18  21
ENDBRANCH   1  17
TORSDOF 6
ENDMDL
MODEL 7
REMARK VINA RESULT:    -7.171      2.734      4.438
REMARK INTER + INTRA:         -10.735
REMARK INTER:                  -9.862
REMARK INTRA:                  -0.872
REMARK UNBOUND:                -1.048
REMARK  Name = 
REMARK  7 active torsions:
REMARK  status: ('A' for Active; 'I' for Inactive)
REMARK    1  A    between atoms: C_1  and  C_2
REMARK    2  A    between atoms: C_6  and  C_7
REMARK    3  A    between atoms: C_7  and  O_8
REMARK    4  A    between atoms: O_8  and  C_9
REMARK    5  A    between atoms: C_12  and  C_13
REMARK    6  A    between atoms: C_13  and  N_14
REMARK    7  A    between atoms: C_15  and  C_17
REMARK                            x       y       z     vdW  Elec       q    Type
REMARK                         _______ _______ _______ _____ _____    ______ ____
ROOT
ATOM      1  C   UNL     1      47.224   5.528  14.294  0.00  0.00    +0.000 C 
ENDROOT
BRANCH   1   5
ATOM      2  C   UNL     1      44.721   4.171  11.051  0.00  0.00    +0.000 A 
ATOM      3  C   UNL     1      45.225   5.472  11.041  0.00  0.00    +0.000 A 
ATOM      4  C   UNL     1      46.034   5.925  12.089  0.00  0.00    +0.000 A 
ATOM      5  C   UNL     1      46.344   5.076  13.159  0.00  0.00    +0.000 A 
ATOM      6  C   UNL     1      45.764   3.800  13.200  0.00  0.00    +0.000 A 
ATOM      7  C   UNL     1      44.956   3.353  12.155  0.00  0.00    +0.000 A 
BRANCH   2   8
ATOM      8  O   UNL     1      44.007   3.793   9.944  0.00  0.00    +0.000 OA
BRANCH   8   9
ATOM      9  C   UNL     1      44.584   4.207   8.696  0.00  0.00    +0.000 C 
BRANCH   9  15
ATOM     10  C   UNL     1      47.547   2.913   5.056  0.00  0.00    +0.000 C 
ATOM     11  C   UNL     1      46.894   2.530   6.350  0.00  0.00    +0.000 A 
ATOM     12  C   UNL     1      47.060   1.257   6.882  0.00  0.00    +0.000 A 
ATOM     13  C   UNL     1      46.410   0.938   8.070  0.00  0.00    +0.000 A 
ATOM     14  C   UNL     1      45.613   1.893   8.691  0.00  0.00    +0.000 A 
ATOM     15  C   UNL     1      45.503   3.155   8.113  0.00  0.00    +0.000 A 
ATOM     16  N   UNL     1      46.126   3.473   6.947  0.00  0.00    +0.000 NA
ENDBRANCH   9  15
ENDBRANCH   8   9
ENDBRANCH   2   8
ENDBRANCH   1   5
BRANCH   1  17
ATOM     17  N   UNL     1      47.675   6.871  14.065  0.00  0.00    +0.000 N 
ATOM     18  C   UNL     1      48.884   7.321  14.529  0.00  0.00    +0.000 C 
ATOM     19  O   UNL     1      49.673   6.588  15.119  0.00  0.00    +0.000 OA
ATOM     20  H   UNL     1      46.959   7.548  13.824  0.00  0.00    +0.000 HD
BRANCH  18  21
ATOM     21  C   UNL     1      49.209   8.715  14.214  0.00  0.00    +0.000 A 
ATOM     22  C   UNL     1      48.884   9.724  15.109  0.00  0.00    +0.000 A 
ATOM     23  S   UNL     1      49.439  11.264  14.628  0.00  0.00    +0.000 S 
ATOM     24  C   UNL     1      50.080  10.644  13.179  0.00  0.00    +0.000 A 
ATOM     25  N   UNL     1      50.711  11.453  12.285  0.00  0.00    +0.000 NA
ATOM     26  C   UNL     1      51.123  10.853  11.218  0.00  0.00    +0.000 A 
ATOM     27  N   UNL     1      50.954   9.517  10.959  0.00  0.00    +0.000 N 
ATOM     28  C   UNL     1      50.332   8.662  11.834  0.00  0.00    +0.000 A 
ATOM     29  O   UNL     1      50.203   7.470  11.575  0.00  0.00    +0.000 OA
ATOM     30  C   UNL     1      49.868   9.283  13.061  0.00  0.00    +0.000 A 
ATOM     31  H   UNL     1      51.291   9.108  10.100  0.00  0.00    +0.000 HD
ENDBRANCH  18  21
ENDBRANCH   1  17
TORSDOF 6
ENDMDL
MODEL 8
REMARK VINA RESULT:    -6.955      2.801      8.344
REMARK INTER + INTRA:         -10.443
REMARK INTER:                  -9.367
REMARK INTRA:                  -1.076
REMARK UNBOUND:                -1.048
REMARK  Name = 
REMARK  7 active torsions:
REMARK  status: ('A' for Active; 'I' for Inactive)
REMARK    1  A    between atoms: C_1  and  C_2
REMARK    2  A    between atoms: C_6  and  C_7
REMARK    3  A    between atoms: C_7  and  O_8
REMARK    4  A    between atoms: O_8  and  C_9
REMARK    5  A    between atoms: C_12  and  C_13
REMARK    6  A    between atoms: C_13  and  N_14
REMARK    7  A    between atoms: C_15  and  C_17
REMARK                            x       y       z     vdW  Elec       q    Type
REMARK                         _______ _______ _______ _____ _____    ______ ____
ROOT
ATOM      1  C   UNL     1      47.156   7.921  12.168  0.00  0.00    +0.000 C 
ENDROOT
BRANCH   1   5
ATOM      2  C   UNL     1      49.131   7.764  16.002  0.00  0.00    +0.000 A 
ATOM      3  C   UNL     1      48.240   8.801  15.722  0.00  0.00    +0.000 A 
ATOM      4  C   UNL     1      47.597   8.865  14.481  0.00  0.00    +0.000 A 
ATOM      5  C   UNL     1      47.844   7.889  13.507  0.00  0.00    +0.000 A 
ATOM      6  C   UNL     1      48.802   6.900  13.767  0.00  0.00    +0.000 A 
ATOM      7  C   UNL     1      49.444   6.841  15.005  0.00  0.00    +0.000 A 
BRANCH   2   8
ATOM      8  O   UNL     1      49.649   7.740  17.270  0.00  0.00    +0.000 OA
BRANCH   8   9
ATOM      9  C   UNL     1      48.825   7.067  18.235  0.00  0.00    +0.000 C 
BRANCH   9  15
ATOM     10  C   UNL     1      51.226   2.881  17.594  0.00  0.00    +0.000 C 
ATOM     11  C   UNL     1      49.903   3.584  17.639  0.00  0.00    +0.000 A 
ATOM     12  C   UNL     1      48.725   2.904  17.352  0.00  0.00    +0.000 A 
ATOM     13  C   UNL     1      47.524   3.606  17.377  0.00  0.00    +0.000 A 
ATOM     14  C   UNL     1      47.531   4.961  17.684  0.00  0.00    +0.000 A 
ATOM     15  C   UNL     1      48.744   5.577  17.978  0.00  0.00    +0.000 A 
ATOM     16  N   UNL     1      49.924   4.904  17.946  0.00  0.00    +0.000 NA
ENDBRANCH   9  15
ENDBRANCH   8   9
ENDBRANCH   2   8
ENDBRANCH   1   5
BRANCH   1  17
ATOM     17  N   UNL     1      46.551   6.649  11.892  0.00  0.00    +0.000 N 
ATOM     18  C   UNL     1      45.208   6.519  11.651  0.00  0.00    +0.000 C 
ATOM     19  O   UNL     1      44.455   7.489  11.602  0.00  0.00    +0.000 OA
ATOM     20  H   UNL     1      47.079   5.831  12.179  0.00  0.00    +0.000 HD
BRANCH  18  21
ATOM     21  C   UNL     1      44.737   5.158  11.380  0.00  0.00    +0.000 A 
ATOM     22  C   UNL     1      44.015   4.468  12.344  0.00  0.00    +0.000 A 
ATOM     23  S   UNL     1      43.453   2.947  11.814  0.00  0.00    +0.000 S 
ATOM     24  C   UNL     1      44.206   3.133  10.299  0.00  0.00    +0.000 A 
ATOM     25  N   UNL     1      44.115   2.168   9.345  0.00  0.00    +0.000 NA
ATOM     26  C   UNL     1      44.757   2.431   8.255  0.00  0.00    +0.000 A 
ATOM     27  N   UNL     1      45.490   3.568   8.035  0.00  0.00    +0.000 N 
ATOM     28  C   UNL     1      45.603   4.572   8.965  0.00  0.00    +0.000 A 
ATOM     29  O   UNL     1      46.261   5.581   8.735  0.00  0.00    +0.000 OA
ATOM     30  C   UNL     1      44.881   4.335  10.202  0.00  0.00    +0.000 A 
ATOM     31  H   UNL     1      45.978   3.712   7.164  0.00  0.00    +0.000 HD
ENDBRANCH  18  21
ENDBRANCH   1  17
TORSDOF 6
ENDMDL
MODEL 9
REMARK VINA RESULT:    -6.829      3.308      7.879
REMARK INTER + INTRA:         -10.273
REMARK INTER:                  -9.015
REMARK INTRA:                  -1.258
REMARK UNBOUND:                -1.048
REMARK  Name = 
REMARK  7 active torsions:
REMARK  status: ('A' for Active; 'I' for Inactive)
REMARK    1  A    between atoms: C_1  and  C_2
REMARK    2  A    between atoms: C_6  and  C_7
REMARK    3  A    between atoms: C_7  and  O_8
REMARK    4  A    between atoms: O_8  and  C_9
REMARK    5  A    between atoms: C_12  and  C_13
REMARK    6  A    between atoms: C_13  and  N_14
REMARK    7  A    between atoms: C_15  and  C_17
REMARK                            x       y       z     vdW  Elec       q    Type
REMARK                         _______ _______ _______ _____ _____    ______ ____
ROOT
ATOM      1  C   UNL     1      47.763   8.477  12.157  0.00  0.00    +0.000 C 
ENDROOT
BRANCH   1   5
ATOM      2  C   UNL     1      49.297   7.629  16.101  0.00  0.00    +0.000 A 
ATOM      3  C   UNL     1      48.325   8.615  15.932  0.00  0.00    +0.000 A 
ATOM      4  C   UNL     1      47.823   8.902  14.657  0.00  0.00    +0.000 A 
ATOM      5  C   UNL     1      48.294   8.203  13.539  0.00  0.00    +0.000 A 
ATOM      6  C   UNL     1      49.329   7.274  13.709  0.00  0.00    +0.000 A 
ATOM      7  C   UNL     1      49.830   6.992  14.980  0.00  0.00    +0.000 A 
BRANCH   2   8
ATOM      8  O   UNL     1      49.668   7.363  17.393  0.00  0.00    +0.000 OA
BRANCH   8   9
ATOM      9  C   UNL     1      48.655   6.716  18.179  0.00  0.00    +0.000 C 
BRANCH   9  15
ATOM     10  C   UNL     1      50.937   2.484  17.414  0.00  0.00    +0.000 C 
ATOM     11  C   UNL     1      49.636   3.228  17.456  0.00  0.00    +0.000 A 
ATOM     12  C   UNL     1      48.445   2.600  17.110  0.00  0.00    +0.000 A 
ATOM     13  C   UNL     1      47.267   3.340  17.136  0.00  0.00    +0.000 A 
ATOM     14  C   UNL     1      47.309   4.680  17.503  0.00  0.00    +0.000 A 
ATOM     15  C   UNL     1      48.533   5.242  17.854  0.00  0.00    +0.000 A 
ATOM     16  N   UNL     1      49.691   4.532  17.822  0.00  0.00    +0.000 NA
ENDBRANCH   9  15
ENDBRANCH   8   9
ENDBRANCH   2   8
ENDBRANCH   1   5
BRANCH   1  17
ATOM     17  N   UNL     1      47.185   7.286  11.604  0.00  0.00    +0.000 N 
ATOM     18  C   UNL     1      45.841   7.175  11.358  0.00  0.00    +0.000 C 
ATOM     19  O   UNL     1      45.062   8.108  11.545  0.00  0.00    +0.000 OA
ATOM     20  H   UNL     1      47.740   6.440  11.686  0.00  0.00    +0.000 HD
BRANCH  18  21
ATOM     21  C   UNL     1      45.399   5.900  10.788  0.00  0.00    +0.000 A 
ATOM     22  C   UNL     1      45.730   5.572   9.480  0.00  0.00    +0.000 A 
ATOM     23  S   UNL     1      45.230   4.005   9.026  0.00  0.00    +0.000 S 
ATOM     24  C   UNL     1      44.502   3.735  10.540  0.00  0.00    +0.000 A 
ATOM     25  N   UNL     1      43.878   2.560  10.821  0.00  0.00    +0.000 NA
ATOM     26  C   UNL     1      43.348   2.504  11.998  0.00  0.00    +0.000 A 
ATOM     27  N   UNL     1      43.377   3.521  12.917  0.00  0.00    +0.000 N 
ATOM     28  C   UNL     1      44.001   4.721  12.680  0.00  0.00    +0.000 A 
ATOM     29  O   UNL     1      44.015   5.608  13.526  0.00  0.00    +0.000 OA
ATOM     30  C   UNL     1      44.633   4.827  11.378  0.00  0.00    +0.000 A 
ATOM     31  H   UNL     1      42.935   3.419  13.818  0.00  0.00    +0.000 HD
ENDBRANCH  18  21
ENDBRANCH   1  17
TORSDOF 6
ENDMDL
