MODEL 1
REMARK VINA RESULT:    -8.441      0.000      0.000
REMARK INTER + INTRA:         -13.123
REMARK INTER:                 -11.895
REMARK INTRA:                  -1.228
REMARK UNBOUND:                -1.228
REMARK  Name = 
REMARK  9 active torsions:
REMARK  status: ('A' for Active; 'I' for Inactive)
REMARK    1  A    between atoms: C_1  and  O_2
REMARK    2  A    between atoms: O_2  and  C_3
REMARK    3  A    between atoms: C_10  and  C_11
REMARK    4  A    between atoms: N_13  and  C_14
REMARK    5  A    between atoms: C_14  and  C_15
REMARK    6  A    between atoms: C_18  and  N_19
REMARK    7  A    between atoms: N_19  and  C_20
REMARK    8  A    between atoms: N_19  and  C_21
REMARK    9  A    between atoms: C_21  and  C_22
REMARK                            x       y       z     vdW  Elec       q    Type
REMARK                         _______ _______ _______ _____ _____    ______ ____
ROOT
ATOM      1  C   UNL     1      47.903   7.623  13.360  0.00  0.00    +0.000 C 
ENDROOT
BRANCH   1   2
ATOM      2  C   UNL     1      46.957   6.614  12.759  0.00  0.00    +0.000 A 
ATOM      3  C   UNL     1      46.479   6.753  11.453  0.00  0.00    +0.000 A 
ATOM      4  C   UNL     1      45.623   5.787  10.896  0.00  0.00    +0.000 A 
ATOM      5  C   UNL     1      45.214   4.654  11.617  0.00  0.00    +0.000 A 
ATOM      6  C   UNL     1      45.657   4.565  12.946  0.00  0.00    +0.000 A 
ATOM      7  C   UNL     1      46.508   5.527  13.512  0.00  0.00    +0.000 A 
BRANCH   5   8
ATOM      8  N   UNL     1      44.471   3.646  10.981  0.00  0.00    +0.000 N 
ATOM      9  C   UNL     1      43.393   3.015  11.744  0.00  0.00    +0.000 C 
BRANCH   8  10
ATOM     10  C   UNL     1      44.186   3.841   9.546  0.00  0.00    +0.000 C 
BRANCH  10  11
ATOM     11  C   UNL     1      45.149   3.113   8.620  0.00  0.00    +0.000 A 
ATOM     12  C   UNL     1      45.880   3.850   7.669  0.00  0.00    +0.000 A 
ATOM     13  C   UNL     1      46.871   3.243   6.890  0.00  0.00    +0.000 A 
ATOM     14  C   UNL     1      47.152   1.891   7.052  0.00  0.00    +0.000 A 
ATOM     15  C   UNL     1      46.429   1.141   7.980  0.00  0.00    +0.000 A 
ATOM     16  C   UNL     1      45.437   1.747   8.759  0.00  0.00    +0.000 A 
ENDBRANCH  10  11
ENDBRANCH   8  10
ENDBRANCH   5   8
ENDBRANCH   1   2
BRANCH   1  19
ATOM     17  C   UNL     1      48.988   7.142  15.514  0.00  0.00    +0.000 C 
ATOM     18  O   UNL     1      50.029   6.802  14.953  0.00  0.00    +0.000 OA
ATOM     19  N   UNL     1      47.897   7.551  14.800  0.00  0.00    +0.000 N 
ATOM     20  H   UNL     1      47.031   7.772  15.271  0.00  0.00    +0.000 HD
BRANCH  17  28
ATOM     21  C   UNL     1      48.833   4.617  17.856  0.00  0.00    +0.000 A 
ATOM     22  N   UNL     1      48.739   3.849  18.960  0.00  0.00    +0.000 NA
ATOM     23  C   UNL     1      48.601   4.458  20.140  0.00  0.00    +0.000 A 
ATOM     24  N   UNL     1      48.547   5.768  20.363  0.00  0.00    +0.000 NA
ATOM     25  C   UNL     1      48.652   6.497  19.239  0.00  0.00    +0.000 A 
ATOM     26  S   UNL     1      48.598   8.192  19.336  0.00  0.00    +0.000 S 
ATOM     27  C   UNL     1      48.766   8.342  17.652  0.00  0.00    +0.000 A 
ATOM     28  C   UNL     1      48.864   7.126  16.984  0.00  0.00    +0.000 A 
ATOM     29  C   UNL     1      48.799   6.021  17.940  0.00  0.00    +0.000 A 
BRANCH  21  31
ATOM     30  C   UNL     1      47.869   3.250  16.220  0.00  0.00    +0.000 C 
ATOM     31  O   UNL     1      49.015   3.986  16.644  0.00  0.00    +0.000 OA
ENDBRANCH  21  31
ENDBRANCH  17  28
ENDBRANCH   1  19
TORSDOF 7
ENDMDL
MODEL 2
REMARK VINA RESULT:    -8.162      1.479      2.482
REMARK INTER + INTRA:         -12.731
REMARK INTER:                 -11.495
REMARK INTRA:                  -1.236
REMARK UNBOUND:                -1.228
REMARK  Name = 
REMARK  9 active torsions:
REMARK  status: ('A' for Active; 'I' for Inactive)
REMARK    1  A    between atoms: C_1  and  O_2
REMARK    2  A    between atoms: O_2  and  C_3
REMARK    3  A    between atoms: C_10  and  C_11
REMARK    4  A    between atoms: N_13  and  C_14
REMARK    5  A    between atoms: C_14  and  C_15
REMARK    6  A    between atoms: C_18  and  N_19
REMARK    7  A    between atoms: N_19  and  C_20
REMARK    8  A    between atoms: N_19  and  C_21
REMARK    9  A    between atoms: C_21  and  C_22
REMARK                            x       y       z     vdW  Elec       q    Type
REMARK                         _______ _______ _______ _____ _____    ______ ____
ROOT
ATOM      1  C   UNL     1      48.048   7.100  13.808  0.00  0.00    +0.000 C 
ENDROOT
BRANCH   1   2
ATOM      2  C   UNL     1      47.101   6.218  13.034  0.00  0.00    +0.000 A 
ATOM      3  C   UNL     1      46.622   6.594  11.775  0.00  0.00    +0.000 A 
ATOM      4  C   UNL     1      45.765   5.747  11.051  0.00  0.00    +0.000 A 
ATOM      5  C   UNL     1      45.356   4.500  11.553  0.00  0.00    +0.000 A 
ATOM      6  C   UNL     1      45.801   4.169  12.843  0.00  0.00    +0.000 A 
ATOM      7  C   UNL     1      46.652   5.012  13.574  0.00  0.00    +0.000 A 
BRANCH   5   8
ATOM      8  N   UNL     1      44.612   3.626  10.744  0.00  0.00    +0.000 N 
ATOM      9  C   UNL     1      43.399   3.041  11.316  0.00  0.00    +0.000 C 
BRANCH   8  10
ATOM     10  C   UNL     1      44.523   3.968   9.311  0.00  0.00    +0.000 C 
BRANCH  10  11
ATOM     11  C   UNL     1      45.422   3.127   8.417  0.00  0.00    +0.000 A 
ATOM     12  C   UNL     1      46.159   3.756   7.396  0.00  0.00    +0.000 A 
ATOM     13  C   UNL     1      47.097   3.046   6.639  0.00  0.00    +0.000 A 
ATOM     14  C   UNL     1      47.318   1.696   6.893  0.00  0.00    +0.000 A 
ATOM     15  C   UNL     1      46.587   1.053   7.893  0.00  0.00    +0.000 A 
ATOM     16  C   UNL     1      45.648   1.763   8.650  0.00  0.00    +0.000 A 
ENDBRANCH  10  11
ENDBRANCH   8  10
ENDBRANCH   5   8
ENDBRANCH   1   2
BRANCH   1  19
ATOM     17  C   UNL     1      49.002   6.545  16.006  0.00  0.00    +0.000 C 
ATOM     18  O   UNL     1      50.126   6.414  15.524  0.00  0.00    +0.000 OA
ATOM     19  N   UNL     1      47.928   6.874  15.226  0.00  0.00    +0.000 N 
ATOM     20  H   UNL     1      47.002   6.922  15.627  0.00  0.00    +0.000 HD
BRANCH  17  28
ATOM     21  C   UNL     1      47.812   8.603  18.502  0.00  0.00    +0.000 A 
ATOM     22  N   UNL     1      47.398   9.179  19.650  0.00  0.00    +0.000 NA
ATOM     23  C   UNL     1      47.424   8.446  20.765  0.00  0.00    +0.000 A 
ATOM     24  N   UNL     1      47.817   7.181  20.883  0.00  0.00    +0.000 NA
ATOM     25  C   UNL     1      48.213   6.643  19.717  0.00  0.00    +0.000 A 
ATOM     26  S   UNL     1      48.754   5.033  19.682  0.00  0.00    +0.000 S 
ATOM     27  C   UNL     1      49.052   5.119  18.012  0.00  0.00    +0.000 A 
ATOM     28  C   UNL     1      48.755   6.355  17.448  0.00  0.00    +0.000 A 
ATOM     29  C   UNL     1      48.248   7.266  18.473  0.00  0.00    +0.000 A 
BRANCH  21  31
ATOM     30  C   UNL     1      48.230  10.681  17.512  0.00  0.00    +0.000 C 
ATOM     31  O   UNL     1      47.747   9.350  17.345  0.00  0.00    +0.000 OA
ENDBRANCH  21  31
ENDBRANCH  17  28
ENDBRANCH   1  19
TORSDOF 7
ENDMDL
MODEL 3
REMARK VINA RESULT:    -7.943      1.664      1.878
REMARK INTER + INTRA:         -12.422
REMARK INTER:                 -11.170
REMARK INTRA:                  -1.251
REMARK UNBOUND:                -1.228
REMARK  Name = 
REMARK  9 active torsions:
REMARK  status: ('A' for Active; 'I' for Inactive)
REMARK    1  A    between atoms: C_1  and  O_2
REMARK    2  A    between atoms: O_2  and  C_3
REMARK    3  A    between atoms: C_10  and  C_11
REMARK    4  A    between atoms: N_13  and  C_14
REMARK    5  A    between atoms: C_14  and  C_15
REMARK    6  A    between atoms: C_18  and  N_19
REMARK    7  A    between atoms: N_19  and  C_20
REMARK    8  A    between atoms: N_19  and  C_21
REMARK    9  A    between atoms: C_21  and  C_22
REMARK                            x       y       z     vdW  Elec       q    Type
REMARK                         _______ _______ _______ _____ _____    ______ ____
ROOT
ATOM      1  C   UNL     1      47.557   7.846  13.304  0.00  0.00    +0.000 C 
ENDROOT
BRANCH   1   2
ATOM      2  C   UNL     1      46.701   6.752  12.717  0.00  0.00    +0.000 A 
ATOM      3  C   UNL     1      45.996   6.940  11.524  0.00  0.00    +0.000 A 
ATOM      4  C   UNL     1      45.229   5.901  10.972  0.00  0.00    +0.000 A 
ATOM      5  C   UNL     1      45.136   4.641  11.586  0.00  0.00    +0.000 A 
ATOM      6  C   UNL     1      45.803   4.492  12.812  0.00  0.00    +0.000 A 
ATOM      7  C   UNL     1      46.568   5.526  13.372  0.00  0.00    +0.000 A 
BRANCH   5   8
ATOM      8  N   UNL     1      44.472   3.588  10.934  0.00  0.00    +0.000 N 
ATOM      9  C   UNL     1      43.422   2.888  11.676  0.00  0.00    +0.000 C 
BRANCH   8  10
ATOM     10  C   UNL     1      44.203   3.768   9.494  0.00  0.00    +0.000 C 
BRANCH  10  11
ATOM     11  C   UNL     1      45.197   3.059   8.586  0.00  0.00    +0.000 A 
ATOM     12  C   UNL     1      45.971   3.817   7.687  0.00  0.00    +0.000 A 
ATOM     13  C   UNL     1      46.988   3.225   6.932  0.00  0.00    +0.000 A 
ATOM     14  C   UNL     1      47.253   1.866   7.065  0.00  0.00    +0.000 A 
ATOM     15  C   UNL     1      46.488   1.096   7.941  0.00  0.00    +0.000 A 
ATOM     16  C   UNL     1      45.469   1.688   8.697  0.00  0.00    +0.000 A 
ENDBRANCH  10  11
ENDBRANCH   8  10
ENDBRANCH   5   8
ENDBRANCH   1   2
BRANCH   1  19
ATOM     17  C   UNL     1      49.060   7.745  15.248  0.00  0.00    +0.000 C 
ATOM     18  O   UNL     1      48.446   8.649  15.813  0.00  0.00    +0.000 OA
ATOM     19  N   UNL     1      48.689   7.300  14.010  0.00  0.00    +0.000 N 
ATOM     20  H   UNL     1      49.236   6.596  13.534  0.00  0.00    +0.000 HD
BRANCH  17  28
ATOM     21  C   UNL     1      49.463   4.865  17.100  0.00  0.00    +0.000 A 
ATOM     22  N   UNL     1      49.897   3.826  17.840  0.00  0.00    +0.000 NA
ATOM     23  C   UNL     1      51.193   3.778  18.157  0.00  0.00    +0.000 A 
ATOM     24  N   UNL     1      52.133   4.655  17.816  0.00  0.00    +0.000 NA
ATOM     25  C   UNL     1      51.661   5.669  17.073  0.00  0.00    +0.000 A 
ATOM     26  S   UNL     1      52.724   6.887  16.552  0.00  0.00    +0.000 S 
ATOM     27  C   UNL     1      51.467   7.714  15.763  0.00  0.00    +0.000 A 
ATOM     28  C   UNL     1      50.226   7.096  15.876  0.00  0.00    +0.000 A 
ATOM     29  C   UNL     1      50.347   5.867  16.659  0.00  0.00    +0.000 A 
BRANCH  21  31
ATOM     30  C   UNL     1      47.603   3.597  16.463  0.00  0.00    +0.000 C 
ATOM     31  O   UNL     1      48.132   4.891  16.741  0.00  0.00    +0.000 OA
ENDBRANCH  21  31
ENDBRANCH  17  28
ENDBRANCH   1  19
TORSDOF 7
ENDMDL
MODEL 4
REMARK VINA RESULT:    -7.089      4.282      8.995
REMARK INTER + INTRA:         -11.218
REMARK INTER:                 -10.154
REMARK INTRA:                  -1.064
REMARK UNBOUND:                -1.228
REMARK  Name = 
REMARK  9 active torsions:
REMARK  status: ('A' for Active; 'I' for Inactive)
REMARK    1  A    between atoms: C_1  and  O_2
REMARK    2  A    between atoms: O_2  and  C_3
REMARK    3  A    between atoms: C_10  and  C_11
REMARK    4  A    between atoms: N_13  and  C_14
REMARK    5  A    between atoms: C_14  and  C_15
REMARK    6  A    between atoms: C_18  and  N_19
REMARK    7  A    between atoms: N_19  and  C_20
REMARK    8  A    between atoms: N_19  and  C_21
REMARK    9  A    between atoms: C_21  and  C_22
REMARK                            x       y       z     vdW  Elec       q    Type
REMARK                         _______ _______ _______ _____ _____    ______ ____
ROOT
ATOM      1  C   UNL     1      47.142   3.347  16.869  0.00  0.00    +0.000 C 
ENDROOT
BRANCH   1   2
ATOM      2  C   UNL     1      48.597   3.420  17.257  0.00  0.00    +0.000 A 
ATOM      3  C   UNL     1      49.470   2.355  17.011  0.00  0.00    +0.000 A 
ATOM      4  C   UNL     1      50.830   2.450  17.349  0.00  0.00    +0.000 A 
ATOM      5  C   UNL     1      51.369   3.604  17.942  0.00  0.00    +0.000 A 
ATOM      6  C   UNL     1      50.464   4.637  18.235  0.00  0.00    +0.000 A 
ATOM      7  C   UNL     1      49.103   4.548  17.905  0.00  0.00    +0.000 A 
BRANCH   5   8
ATOM      8  N   UNL     1      52.755   3.712  18.139  0.00  0.00    +0.000 N 
ATOM      9  C   UNL     1      53.287   5.024  18.513  0.00  0.00    +0.000 C 
BRANCH   8  10
ATOM     10  C   UNL     1      53.422   2.564  18.784  0.00  0.00    +0.000 C 
BRANCH  10  11
ATOM     11  C   UNL     1      54.214   1.689  17.824  0.00  0.00    +0.000 A 
ATOM     12  C   UNL     1      53.898   0.321  17.719  0.00  0.00    +0.000 A 
ATOM     13  C   UNL     1      54.508  -0.490  16.756  0.00  0.00    +0.000 A 
ATOM     14  C   UNL     1      55.440   0.053  15.878  0.00  0.00    +0.000 A 
ATOM     15  C   UNL     1      55.775   1.404  15.975  0.00  0.00    +0.000 A 
ATOM     16  C   UNL     1      55.166   2.216  16.939  0.00  0.00    +0.000 A 
ENDBRANCH  10  11
ENDBRANCH   8  10
ENDBRANCH   5   8
ENDBRANCH   1   2
BRANCH   1  19
ATOM     17  C   UNL     1      46.901   4.242  14.591  0.00  0.00    +0.000 C 
ATOM     18  O   UNL     1      47.311   3.193  14.098  0.00  0.00    +0.000 OA
ATOM     19  N   UNL     1      46.796   4.398  15.945  0.00  0.00    +0.000 N 
ATOM     20  H   UNL     1      46.512   5.285  16.337  0.00  0.00    +0.000 HD
BRANCH  17  28
ATOM     21  C   UNL     1      44.125   4.912  12.660  0.00  0.00    +0.000 A 
ATOM     22  N   UNL     1      43.183   5.418  11.838  0.00  0.00    +0.000 NA
ATOM     23  C   UNL     1      43.407   6.612  11.285  0.00  0.00    +0.000 A 
ATOM     24  N   UNL     1      44.476   7.385  11.455  0.00  0.00    +0.000 NA
ATOM     25  C   UNL     1      45.385   6.849  12.286  0.00  0.00    +0.000 A 
ATOM     26  S   UNL     1      46.818   7.699  12.615  0.00  0.00    +0.000 S 
ATOM     27  C   UNL     1      47.376   6.461  13.636  0.00  0.00    +0.000 A 
ATOM     28  C   UNL     1      46.501   5.385  13.748  0.00  0.00    +0.000 A 
ATOM     29  C   UNL     1      45.305   5.623  12.940  0.00  0.00    +0.000 A 
BRANCH  21  31
ATOM     30  C   UNL     1      43.498   2.682  12.332  0.00  0.00    +0.000 C 
ATOM     31  O   UNL     1      43.873   3.697  13.261  0.00  0.00    +0.000 OA
ENDBRANCH  21  31
ENDBRANCH  17  28
ENDBRANCH   1  19
TORSDOF 7
ENDMDL
MODEL 5
REMARK VINA RESULT:    -7.072      2.016      2.898
REMARK INTER + INTRA:         -11.194
REMARK INTER:                  -9.882
REMARK INTRA:                  -1.312
REMARK UNBOUND:                -1.228
REMARK  Name = 
REMARK  9 active torsions:
REMARK  status: ('A' for Active; 'I' for Inactive)
REMARK    1  A    between atoms: C_1  and  O_2
REMARK    2  A    between atoms: O_2  and  C_3
REMARK    3  A    between atoms: C_10  and  C_11
REMARK    4  A    between atoms: N_13  and  C_14
REMARK    5  A    between atoms: C_14  and  C_15
REMARK    6  A    between atoms: C_18  and  N_19
REMARK    7  A    between atoms: N_19  and  C_20
REMARK    8  A    between atoms: N_19  and  C_21
REMARK    9  A    between atoms: C_21  and  C_22
REMARK                            x       y       z     vdW  Elec       q    Type
REMARK                         _______ _______ _______ _____ _____    ______ ____
ROOT
ATOM      1  C   UNL     1      47.913   4.984  15.169  0.00  0.00    +0.000 C 
ENDROOT
BRANCH   1   2
ATOM      2  C   UNL     1      47.028   4.855  13.955  0.00  0.00    +0.000 A 
ATOM      3  C   UNL     1      46.776   5.947  13.119  0.00  0.00    +0.000 A 
ATOM      4  C   UNL     1      45.975   5.804  11.973  0.00  0.00    +0.000 A 
ATOM      5  C   UNL     1      45.400   4.572  11.619  0.00  0.00    +0.000 A 
ATOM      6  C   UNL     1      45.618   3.503  12.503  0.00  0.00    +0.000 A 
ATOM      7  C   UNL     1      46.411   3.639  13.652  0.00  0.00    +0.000 A 
BRANCH   5   8
ATOM      8  N   UNL     1      44.722   4.438  10.396  0.00  0.00    +0.000 N 
ATOM      9  C   UNL     1      43.311   4.824  10.359  0.00  0.00    +0.000 C 
BRANCH   8  10
ATOM     10  C   UNL     1      45.489   4.762   9.177  0.00  0.00    +0.000 C 
BRANCH  10  11
ATOM     11  C   UNL     1      45.935   3.542   8.385  0.00  0.00    +0.000 A 
ATOM     12  C   UNL     1      46.774   3.717   7.268  0.00  0.00    +0.000 A 
ATOM     13  C   UNL     1      47.316   2.618   6.593  0.00  0.00    +0.000 A 
ATOM     14  C   UNL     1      47.033   1.326   7.025  0.00  0.00    +0.000 A 
ATOM     15  C   UNL     1      46.193   1.134   8.123  0.00  0.00    +0.000 A 
ATOM     16  C   UNL     1      45.650   2.233   8.798  0.00  0.00    +0.000 A 
ENDBRANCH  10  11
ENDBRANCH   8  10
ENDBRANCH   5   8
ENDBRANCH   1   2
BRANCH   1  19
ATOM     17  C   UNL     1      49.046   7.088  15.754  0.00  0.00    +0.000 C 
ATOM     18  O   UNL     1      50.137   6.637  15.405  0.00  0.00    +0.000 OA
ATOM     19  N   UNL     1      47.908   6.335  15.675  0.00  0.00    +0.000 N 
ATOM     20  H   UNL     1      47.030   6.698  16.018  0.00  0.00    +0.000 HD
BRANCH  17  28
ATOM     21  C   UNL     1      47.629   8.421  18.599  0.00  0.00    +0.000 A 
ATOM     22  N   UNL     1      47.152   9.196  19.594  0.00  0.00    +0.000 NA
ATOM     23  C   UNL     1      47.319  10.517  19.496  0.00  0.00    +0.000 A 
ATOM     24  N   UNL     1      47.918  11.177  18.509  0.00  0.00    +0.000 NA
ATOM     25  C   UNL     1      48.386  10.369  17.543  0.00  0.00    +0.000 A 
ATOM     26  S   UNL     1      49.176  11.043  16.201  0.00  0.00    +0.000 S 
ATOM     27  C   UNL     1      49.420   9.509  15.512  0.00  0.00    +0.000 A 
ATOM     28  C   UNL     1      48.911   8.462  16.273  0.00  0.00    +0.000 A 
ATOM     29  C   UNL     1      48.295   8.980  17.494  0.00  0.00    +0.000 A 
BRANCH  21  31
ATOM     30  C   UNL     1      48.370   6.490  19.693  0.00  0.00    +0.000 C 
ATOM     31  O   UNL     1      47.491   7.055  18.722  0.00  0.00    +0.000 OA
ENDBRANCH  21  31
ENDBRANCH  17  28
ENDBRANCH   1  19
TORSDOF 7
ENDMDL
MODEL 6
REMARK VINA RESULT:    -6.697      3.724      8.791
REMARK INTER + INTRA:         -10.665
REMARK INTER:                  -9.573
REMARK INTRA:                  -1.093
REMARK UNBOUND:                -1.228
REMARK  Name = 
REMARK  9 active torsions:
REMARK  status: ('A' for Active; 'I' for Inactive)
REMARK    1  A    between atoms: C_1  and  O_2
REMARK    2  A    between atoms: O_2  and  C_3
REMARK    3  A    between atoms: C_10  and  C_11
REMARK    4  A    between atoms: N_13  and  C_14
REMARK    5  A    between atoms: C_14  and  C_15
REMARK    6  A    between atoms: C_18  and  N_19
REMARK    7  A    between atoms: N_19  and  C_20
REMARK    8  A    between atoms: N_19  and  C_21
REMARK    9  A    between atoms: C_21  and  C_22
REMARK                            x       y       z     vdW  Elec       q    Type
REMARK                         _______ _______ _______ _____ _____    ______ ____
ROOT
ATOM      1  C   UNL     1      47.411   3.232  17.028  0.00  0.00    +0.000 C 
ENDROOT
BRANCH   1   2
ATOM      2  C   UNL     1      48.863   3.200  17.431  0.00  0.00    +0.000 A 
ATOM      3  C   UNL     1      49.719   2.187  16.989  0.00  0.00    +0.000 A 
ATOM      4  C   UNL     1      51.078   2.189  17.347  0.00  0.00    +0.000 A 
ATOM      5  C   UNL     1      51.631   3.196  18.155  0.00  0.00    +0.000 A 
ATOM      6  C   UNL     1      50.742   4.170  18.637  0.00  0.00    +0.000 A 
ATOM      7  C   UNL     1      49.383   4.173  18.288  0.00  0.00    +0.000 A 
BRANCH   5   8
ATOM      8  N   UNL     1      53.018   3.237  18.378  0.00  0.00    +0.000 N 
ATOM      9  C   UNL     1      53.845   2.248  17.685  0.00  0.00    +0.000 C 
BRANCH   8  10
ATOM     10  C   UNL     1      53.626   4.576  18.507  0.00  0.00    +0.000 C 
BRANCH  10  11
ATOM     11  C   UNL     1      53.892   5.266  17.177  0.00  0.00    +0.000 A 
ATOM     12  C   UNL     1      52.957   6.197  16.686  0.00  0.00    +0.000 A 
ATOM     13  C   UNL     1      53.224   6.951  15.539  0.00  0.00    +0.000 A 
ATOM     14  C   UNL     1      54.430   6.792  14.865  0.00  0.00    +0.000 A 
ATOM     15  C   UNL     1      55.363   5.864  15.330  0.00  0.00    +0.000 A 
ATOM     16  C   UNL     1      55.097   5.108  16.478  0.00  0.00    +0.000 A 
ENDBRANCH  10  11
ENDBRANCH   8  10
ENDBRANCH   5   8
ENDBRANCH   1   2
BRANCH   1  19
ATOM     17  C   UNL     1      47.147   4.156  14.764  0.00  0.00    +0.000 C 
ATOM     18  O   UNL     1      47.390   3.064  14.252  0.00  0.00    +0.000 OA
ATOM     19  N   UNL     1      47.146   4.320  16.120  0.00  0.00    +0.000 N 
ATOM     20  H   UNL     1      47.001   5.235  16.524  0.00  0.00    +0.000 HD
BRANCH  17  28
ATOM     21  C   UNL     1      44.529   5.001  12.686  0.00  0.00    +0.000 A 
ATOM     22  N   UNL     1      43.661   5.571  11.826  0.00  0.00    +0.000 NA
ATOM     23  C   UNL     1      43.964   6.774  11.333  0.00  0.00    +0.000 A 
ATOM     24  N   UNL     1      45.048   7.499  11.600  0.00  0.00    +0.000 NA
ATOM     25  C   UNL     1      45.881   6.900  12.466  0.00  0.00    +0.000 A 
ATOM     26  S   UNL     1      47.319   7.680  12.917  0.00  0.00    +0.000 S 
ATOM     27  C   UNL     1      47.764   6.386  13.924  0.00  0.00    +0.000 A 
ATOM     28  C   UNL     1      46.845   5.342  13.940  0.00  0.00    +0.000 A 
ATOM     29  C   UNL     1      45.714   5.655  13.068  0.00  0.00    +0.000 A 
BRANCH  21  31
ATOM     30  C   UNL     1      43.579   2.902  12.281  0.00  0.00    +0.000 C 
ATOM     31  O   UNL     1      44.194   3.776  13.224  0.00  0.00    +0.000 OA
ENDBRANCH  21  31
ENDBRANCH  17  28
ENDBRANCH   1  19
TORSDOF 7
ENDMDL
MODEL 7
REMARK VINA RESULT:    -6.613      2.983      4.125
REMARK INTER + INTRA:         -10.548
REMARK INTER:                  -9.286
REMARK INTRA:                  -1.262
REMARK UNBOUND:                -1.228
REMARK  Name = 
REMARK  9 active torsions:
REMARK  status: ('A' for Active; 'I' for Inactive)
REMARK    1  A    between atoms: C_1  and  O_2
REMARK    2  A    between atoms: O_2  and  C_3
REMARK    3  A    between atoms: C_10  and  C_11
REMARK    4  A    between atoms: N_13  and  C_14
REMARK    5  A    between atoms: C_14  and  C_15
REMARK    6  A    between atoms: C_18  and  N_19
REMARK    7  A    between atoms: N_19  and  C_20
REMARK    8  A    between atoms: N_19  and  C_21
REMARK    9  A    between atoms: C_21  and  C_22
REMARK                            x       y       z     vdW  Elec       q    Type
REMARK                         _______ _______ _______ _____ _____    ______ ____
ROOT
ATOM      1  C   UNL     1      47.380   8.902  12.684  0.00  0.00    +0.000 C 
ENDROOT
BRANCH   1   2
ATOM      2  C   UNL     1      46.547   7.685  12.370  0.00  0.00    +0.000 A 
ATOM      3  C   UNL     1      45.311   7.796  11.726  0.00  0.00    +0.000 A 
ATOM      4  C   UNL     1      44.561   6.651  11.411  0.00  0.00    +0.000 A 
ATOM      5  C   UNL     1      45.013   5.358  11.725  0.00  0.00    +0.000 A 
ATOM      6  C   UNL     1      46.228   5.273  12.423  0.00  0.00    +0.000 A 
ATOM      7  C   UNL     1      46.981   6.412  12.746  0.00  0.00    +0.000 A 
BRANCH   5   8
ATOM      8  N   UNL     1      44.301   4.235  11.272  0.00  0.00    +0.000 N 
ATOM      9  C   UNL     1      43.259   3.696  12.147  0.00  0.00    +0.000 C 
BRANCH   8  10
ATOM     10  C   UNL     1      43.989   4.188   9.830  0.00  0.00    +0.000 C 
BRANCH  10  11
ATOM     11  C   UNL     1      45.082   3.554   8.982  0.00  0.00    +0.000 A 
ATOM     12  C   UNL     1      45.270   2.159   9.032  0.00  0.00    +0.000 A 
ATOM     13  C   UNL     1      46.169   1.520   8.172  0.00  0.00    +0.000 A 
ATOM     14  C   UNL     1      46.892   2.263   7.243  0.00  0.00    +0.000 A 
ATOM     15  C   UNL     1      46.728   3.647   7.188  0.00  0.00    +0.000 A 
ATOM     16  C   UNL     1      45.829   4.287   8.049  0.00  0.00    +0.000 A 
ENDBRANCH  10  11
ENDBRANCH   8  10
ENDBRANCH   5   8
ENDBRANCH   1   2
BRANCH   1  19
ATOM     17  C   UNL     1      48.825   8.646  14.658  0.00  0.00    +0.000 C 
ATOM     18  O   UNL     1      47.948   9.082  15.401  0.00  0.00    +0.000 OA
ATOM     19  N   UNL     1      48.625   8.534  13.310  0.00  0.00    +0.000 N 
ATOM     20  H   UNL     1      49.375   8.228  12.706  0.00  0.00    +0.000 HD
BRANCH  17  28
ATOM     21  C   UNL     1      51.999   8.544  13.315  0.00  0.00    +0.000 A 
ATOM     22  N   UNL     1      53.311   8.387  13.046  0.00  0.00    +0.000 NA
ATOM     23  C   UNL     1      54.091   7.876  14.002  0.00  0.00    +0.000 A 
ATOM     24  N   UNL     1      53.720   7.497  15.221  0.00  0.00    +0.000 NA
ATOM     25  C   UNL     1      52.409   7.678  15.451  0.00  0.00    +0.000 A 
ATOM     26  S   UNL     1      51.758   7.242  16.958  0.00  0.00    +0.000 S 
ATOM     27  C   UNL     1      50.201   7.726  16.480  0.00  0.00    +0.000 A 
ATOM     28  C   UNL     1      50.137   8.221  15.182  0.00  0.00    +0.000 A 
ATOM     29  C   UNL     1      51.465   8.194  14.568  0.00  0.00    +0.000 A 
BRANCH  21  31
ATOM     30  C   UNL     1      51.489   8.618  11.034  0.00  0.00    +0.000 C 
ATOM     31  O   UNL     1      51.203   9.109  12.341  0.00  0.00    +0.000 OA
ENDBRANCH  21  31
ENDBRANCH  17  28
ENDBRANCH   1  19
TORSDOF 7
ENDMDL
MODEL 8
REMARK VINA RESULT:    -6.611      3.411      7.952
REMARK INTER + INTRA:         -10.545
REMARK INTER:                  -8.846
REMARK INTRA:                  -1.699
REMARK UNBOUND:                -1.228
REMARK  Name = 
REMARK  9 active torsions:
REMARK  status: ('A' for Active; 'I' for Inactive)
REMARK    1  A    between atoms: C_1  and  O_2
REMARK    2  A    between atoms: O_2  and  C_3
REMARK    3  A    between atoms: C_10  and  C_11
REMARK    4  A    between atoms: N_13  and  C_14
REMARK    5  A    between atoms: C_14  and  C_15
REMARK    6  A    between atoms: C_18  and  N_19
REMARK    7  A    between atoms: N_19  and  C_20
REMARK    8  A    between atoms: N_19  and  C_21
REMARK    9  A    between atoms: C_21  and  C_22
REMARK                            x       y       z     vdW  Elec       q    Type
REMARK                         _______ _______ _______ _____ _____    ______ ____
ROOT
ATOM      1  C   UNL     1      47.932   9.016  14.034  0.00  0.00    +0.000 C 
ENDROOT
BRANCH   1   2
ATOM      2  C   UNL     1      48.621   8.329  15.186  0.00  0.00    +0.000 A 
ATOM      3  C   UNL     1      49.597   7.351  14.971  0.00  0.00    +0.000 A 
ATOM      4  C   UNL     1      50.254   6.743  16.055  0.00  0.00    +0.000 A 
ATOM      5  C   UNL     1      49.964   7.086  17.386  0.00  0.00    +0.000 A 
ATOM      6  C   UNL     1      48.939   8.027  17.580  0.00  0.00    +0.000 A 
ATOM      7  C   UNL     1      48.275   8.635  16.504  0.00  0.00    +0.000 A 
BRANCH   5   8
ATOM      8  N   UNL     1      50.736   6.557  18.433  0.00  0.00    +0.000 N 
ATOM      9  C   UNL     1      51.604   7.478  19.167  0.00  0.00    +0.000 C 
BRANCH   8  10
ATOM     10  C   UNL     1      50.101   5.510  19.257  0.00  0.00    +0.000 C 
BRANCH  10  11
ATOM     11  C   UNL     1      49.748   4.246  18.486  0.00  0.00    +0.000 A 
ATOM     12  C   UNL     1      48.394   3.903  18.310  0.00  0.00    +0.000 A 
ATOM     13  C   UNL     1      48.021   2.827  17.498  0.00  0.00    +0.000 A 
ATOM     14  C   UNL     1      48.993   2.078  16.844  0.00  0.00    +0.000 A 
ATOM     15  C   UNL     1      50.341   2.395  17.017  0.00  0.00    +0.000 A 
ATOM     16  C   UNL     1      50.715   3.472  17.830  0.00  0.00    +0.000 A 
ENDBRANCH  10  11
ENDBRANCH   8  10
ENDBRANCH   5   8
ENDBRANCH   1   2
BRANCH   1  19
ATOM     17  C   UNL     1      46.774   7.498  12.483  0.00  0.00    +0.000 C 
ATOM     18  O   UNL     1      47.774   7.405  11.772  0.00  0.00    +0.000 OA
ATOM     19  N   UNL     1      46.771   8.276  13.606  0.00  0.00    +0.000 N 
ATOM     20  H   UNL     1      45.925   8.388  14.148  0.00  0.00    +0.000 HD
BRANCH  17  28
ATOM     21  C   UNL     1      45.766   4.222  12.845  0.00  0.00    +0.000 A 
ATOM     22  N   UNL     1      45.129   3.033  12.856  0.00  0.00    +0.000 NA
ATOM     23  C   UNL     1      43.895   2.977  12.350  0.00  0.00    +0.000 A 
ATOM     24  N   UNL     1      43.198   3.981  11.827  0.00  0.00    +0.000 NA
ATOM     25  C   UNL     1      43.863   5.148  11.843  0.00  0.00    +0.000 A 
ATOM     26  S   UNL     1      43.125   6.539  11.209  0.00  0.00    +0.000 S 
ATOM     27  C   UNL     1      44.492   7.484  11.561  0.00  0.00    +0.000 A 
ATOM     28  C   UNL     1      45.529   6.776  12.158  0.00  0.00    +0.000 A 
ATOM     29  C   UNL     1      45.148   5.375  12.330  0.00  0.00    +0.000 A 
BRANCH  21  31
ATOM     30  C   UNL     1      47.008   4.683  14.773  0.00  0.00    +0.000 C 
ATOM     31  O   UNL     1      47.025   4.285  13.404  0.00  0.00    +0.000 OA
ENDBRANCH  21  31
ENDBRANCH  17  28
ENDBRANCH   1  19
TORSDOF 7
ENDMDL
MODEL 9
REMARK VINA RESULT:    -6.588      3.286      8.044
REMARK INTER + INTRA:         -10.513
REMARK INTER:                  -8.935
REMARK INTRA:                  -1.577
REMARK UNBOUND:                -1.228
REMARK  Name = 
REMARK  9 active torsions:
REMARK  status: ('A' for Active; 'I' for Inactive)
REMARK    1  A    between atoms: C_1  and  O_2
REMARK    2  A    between atoms: O_2  and  C_3
REMARK    3  A    between atoms: C_10  and  C_11
REMARK    4  A    between atoms: N_13  and  C_14
REMARK    5  A    between atoms: C_14  and  C_15
REMARK    6  A    between atoms: C_18  and  N_19
REMARK    7  A    between atoms: N_19  and  C_20
REMARK    8  A    between atoms: N_19  and  C_21
REMARK    9  A    between atoms: C_21  and  C_22
REMARK                            x       y       z     vdW  Elec       q    Type
REMARK                         _______ _______ _______ _____ _____    ______ ____
ROOT
ATOM      1  C   UNL     1      48.241   8.082  11.851  0.00  0.00    +0.000 C 
ENDROOT
BRANCH   1   2
ATOM      2  C   UNL     1      48.505   7.959  13.330  0.00  0.00    +0.000 A 
ATOM      3  C   UNL     1      47.892   8.813  14.252  0.00  0.00    +0.000 A 
ATOM      4  C   UNL     1      48.123   8.666  15.630  0.00  0.00    +0.000 A 
ATOM      5  C   UNL     1      48.969   7.667  16.139  0.00  0.00    +0.000 A 
ATOM      6  C   UNL     1      49.621   6.859  15.193  0.00  0.00    +0.000 A 
ATOM      7  C   UNL     1      49.400   7.003  13.815  0.00  0.00    +0.000 A 
BRANCH   5   8
ATOM      8  N   UNL     1      49.067   7.466  17.525  0.00  0.00    +0.000 N 
ATOM      9  C   UNL     1      49.303   8.642  18.365  0.00  0.00    +0.000 C 
BRANCH   8  10
ATOM     10  C   UNL     1      48.166   6.454  18.110  0.00  0.00    +0.000 C 
BRANCH  10  11
ATOM     11  C   UNL     1      48.596   5.018  17.847  0.00  0.00    +0.000 A 
ATOM     12  C   UNL     1      47.691   4.130  17.235  0.00  0.00    +0.000 A 
ATOM     13  C   UNL     1      48.087   2.844  16.854  0.00  0.00    +0.000 A 
ATOM     14  C   UNL     1      49.394   2.425  17.073  0.00  0.00    +0.000 A 
ATOM     15  C   UNL     1      50.302   3.286  17.690  0.00  0.00    +0.000 A 
ATOM     16  C   UNL     1      49.906   4.573  18.072  0.00  0.00    +0.000 A 
ENDBRANCH  10  11
ENDBRANCH   8  10
ENDBRANCH   5   8
ENDBRANCH   1   2
BRANCH   1  19
ATOM     17  C   UNL     1      46.156   6.924  11.249  0.00  0.00    +0.000 C 
ATOM     18  O   UNL     1      45.478   7.892  11.588  0.00  0.00    +0.000 OA
ATOM     19  N   UNL     1      47.519   6.937  11.354  0.00  0.00    +0.000 N 
ATOM     20  H   UNL     1      48.057   6.113  11.125  0.00  0.00    +0.000 HD
BRANCH  17  28
ATOM     21  C   UNL     1      44.460   4.291  12.690  0.00  0.00    +0.000 A 
ATOM     22  N   UNL     1      43.791   3.158  12.983  0.00  0.00    +0.000 NA
ATOM     23  C   UNL     1      43.489   2.329  11.980  0.00  0.00    +0.000 A 
ATOM     24  N   UNL     1      43.776   2.495  10.692  0.00  0.00    +0.000 NA
ATOM     25  C   UNL     1      44.435   3.638  10.442  0.00  0.00    +0.000 A 
ATOM     26  S   UNL     1      44.887   4.011   8.848  0.00  0.00    +0.000 S 
ATOM     27  C   UNL     1      45.613   5.465   9.341  0.00  0.00    +0.000 A 
ATOM     28  C   UNL     1      45.534   5.699  10.710  0.00  0.00    +0.000 A 
ATOM     29  C   UNL     1      44.823   4.603  11.368  0.00  0.00    +0.000 A 
BRANCH  21  31
ATOM     30  C   UNL     1      46.077   5.066  14.193  0.00  0.00    +0.000 C 
ATOM     31  O   UNL     1      44.735   5.164  13.722  0.00  0.00    +0.000 OA
ENDBRANCH  21  31
ENDBRANCH  17  28
ENDBRANCH   1  19
TORSDOF 7
ENDMDL
