MODEL 1
REMARK VINA RESULT:    -7.539      0.000      0.000
REMARK INTER + INTRA:          -9.757
REMARK INTER:                  -9.523
REMARK INTRA:                  -0.234
REMARK UNBOUND:                -0.234
REMARK  Name = 
REMARK  5 active torsions:
REMARK  status: ('A' for Active; 'I' for Inactive)
REMARK    1  A    between atoms: N_1  and  C_2
REMARK    2  A    between atoms: C_2  and  C_3
REMARK    3  A    between atoms: C_3  and  C_4
REMARK    4  A    between atoms: C_8  and  C_9
REMARK    5  A    between atoms: C_9  and  N_10
REMARK                            x       y       z     vdW  Elec       q    Type
REMARK                         _______ _______ _______ _____ _____    ______ ____
ROOT
ATOM      1  C   UNL     1      46.090   2.350   8.034  0.00  0.00    +0.000 A 
ATOM      2  C   UNL     1      46.136   3.669   7.596  0.00  0.00    +0.000 A 
ATOM      3  N   UNL     1      45.429   4.675   8.155  0.00  0.00    +0.000 NA
ATOM      4  C   UNL     1      44.638   4.356   9.203  0.00  0.00    +0.000 A 
ATOM      5  C   UNL     1      44.537   3.078   9.747  0.00  0.00    +0.000 A 
ATOM      6  C   UNL     1      45.270   2.062   9.132  0.00  0.00    +0.000 A 
ENDROOT
BRANCH   1   7
ATOM      7  C   UNL     1      46.912   1.280   7.364  0.00  0.00    +0.000 C 
BRANCH   7   8
ATOM      8  C   UNL     1      48.263   1.814   6.873  0.00  0.00    +0.000 C 
BRANCH   8   9
ATOM      9  N   UNL     1      48.327   1.807   5.413  0.00  0.00    +0.000 NA
ATOM     10  H   UNL     1      47.382   1.752   5.034  0.00  0.00    +0.000 HD
ATOM     11  H   UNL     1      48.808   0.967   5.091  0.00  0.00    +0.000 HD
ENDBRANCH   8   9
ENDBRANCH   7   8
ENDBRANCH   1   7
BRANCH   5  12
ATOM     12  C   UNL     1      43.672   2.821  10.949  0.00  0.00    +0.000 C 
BRANCH  12  13
ATOM     13  N   UNL     1      44.488   2.550  12.113  0.00  0.00    +0.000 N 
ATOM     14  C   UNL     1      45.254   3.555  12.678  0.00  0.00    +0.000 A 
ATOM     15  C   UNL     1      44.912   4.911  12.691  0.00  0.00    +0.000 A 
ATOM     16  N   UNL     1      45.650   5.877  13.296  0.00  0.00    +0.000 NA
ATOM     17  C   UNL     1      46.752   5.432  13.933  0.00  0.00    +0.000 A 
ATOM     18  C   UNL     1      47.099   4.095  13.946  0.00  0.00    +0.000 A 
ATOM     19  N   UNL     1      46.369   3.142  13.313  0.00  0.00    +0.000 NA
ATOM     20  H   UNL     1      45.047   1.702  12.085  0.00  0.00    +0.000 HD
ENDBRANCH  12  13
ENDBRANCH   5  12
TORSDOF 5
ENDMDL
MODEL 2
REMARK VINA RESULT:    -7.147      1.868      6.212
REMARK INTER + INTRA:          -9.261
REMARK INTER:                  -8.885
REMARK INTRA:                  -0.376
REMARK UNBOUND:                -0.234
REMARK  Name = 
REMARK  5 active torsions:
REMARK  status: ('A' for Active; 'I' for Inactive)
REMARK    1  A    between atoms: N_1  and  C_2
REMARK    2  A    between atoms: C_2  and  C_3
REMARK    3  A    between atoms: C_3  and  C_4
REMARK    4  A    between atoms: C_8  and  C_9
REMARK    5  A    between atoms: C_9  and  N_10
REMARK                            x       y       z     vdW  Elec       q    Type
REMARK                         _______ _______ _______ _____ _____    ______ ____
ROOT
ATOM      1  C   UNL     1      46.390   6.120  12.324  0.00  0.00    +0.000 A 
ATOM      2  C   UNL     1      46.666   5.140  13.271  0.00  0.00    +0.000 A 
ATOM      3  N   UNL     1      46.067   3.929  13.302  0.00  0.00    +0.000 NA
ATOM      4  C   UNL     1      45.151   3.678  12.340  0.00  0.00    +0.000 A 
ATOM      5  C   UNL     1      44.819   4.569  11.324  0.00  0.00    +0.000 A 
ATOM      6  C   UNL     1      45.446   5.815  11.335  0.00  0.00    +0.000 A 
ENDROOT
BRANCH   1   7
ATOM      7  C   UNL     1      47.103   7.447  12.349  0.00  0.00    +0.000 C 
BRANCH   7   8
ATOM      8  C   UNL     1      46.322   8.506  13.135  0.00  0.00    +0.000 C 
BRANCH   8   9
ATOM      9  N   UNL     1      46.998   8.829  14.389  0.00  0.00    +0.000 NA
ATOM     10  H   UNL     1      46.747   8.138  15.096  0.00  0.00    +0.000 HD
ATOM     11  H   UNL     1      46.665   9.726  14.742  0.00  0.00    +0.000 HD
ENDBRANCH   8   9
ENDBRANCH   7   8
ENDBRANCH   1   7
BRANCH   5  12
ATOM     12  C   UNL     1      43.825   4.187  10.262  0.00  0.00    +0.000 C 
BRANCH  12  13
ATOM     13  N   UNL     1      44.396   4.363   8.945  0.00  0.00    +0.000 N 
ATOM     14  C   UNL     1      45.323   3.456   8.459  0.00  0.00    +0.000 A 
ATOM     15  C   UNL     1      45.346   2.092   8.767  0.00  0.00    +0.000 A 
ATOM     16  N   UNL     1      46.230   1.207   8.239  0.00  0.00    +0.000 NA
ATOM     17  C   UNL     1      47.094   1.733   7.349  0.00  0.00    +0.000 A 
ATOM     18  C   UNL     1      47.079   3.074   7.019  0.00  0.00    +0.000 A 
ATOM     19  N   UNL     1      46.209   3.955   7.573  0.00  0.00    +0.000 NA
ATOM     20  H   UNL     1      44.716   5.299   8.712  0.00  0.00    +0.000 HD
ENDBRANCH  12  13
ENDBRANCH   5  12
TORSDOF 5
ENDMDL
MODEL 3
REMARK VINA RESULT:    -7.036      1.407      1.767
REMARK INTER + INTRA:          -9.121
REMARK INTER:                  -8.787
REMARK INTRA:                  -0.334
REMARK UNBOUND:                -0.234
REMARK  Name = 
REMARK  5 active torsions:
REMARK  status: ('A' for Active; 'I' for Inactive)
REMARK    1  A    between atoms: N_1  and  C_2
REMARK    2  A    between atoms: C_2  and  C_3
REMARK    3  A    between atoms: C_3  and  C_4
REMARK    4  A    between atoms: C_8  and  C_9
REMARK    5  A    between atoms: C_9  and  N_10
REMARK                            x       y       z     vdW  Elec       q    Type
REMARK                         _______ _______ _______ _____ _____    ______ ____
ROOT
ATOM      1  C   UNL     1      46.068   3.204   7.658  0.00  0.00    +0.000 A 
ATOM      2  C   UNL     1      45.935   1.864   8.006  0.00  0.00    +0.000 A 
ATOM      3  N   UNL     1      45.182   1.422   9.035  0.00  0.00    +0.000 NA
ATOM      4  C   UNL     1      44.522   2.358   9.754  0.00  0.00    +0.000 A 
ATOM      5  C   UNL     1      44.554   3.721   9.479  0.00  0.00    +0.000 A 
ATOM      6  C   UNL     1      45.357   4.141   8.418  0.00  0.00    +0.000 A 
ENDROOT
BRANCH   1   7
ATOM      7  C   UNL     1      46.923   3.624   6.491  0.00  0.00    +0.000 C 
BRANCH   7   8
ATOM      8  C   UNL     1      47.168   2.470   5.512  0.00  0.00    +0.000 C 
BRANCH   8   9
ATOM      9  N   UNL     1      48.524   1.945   5.653  0.00  0.00    +0.000 NA
ATOM     10  H   UNL     1      49.194   2.705   5.537  0.00  0.00    +0.000 HD
ATOM     11  H   UNL     1      48.719   1.281   4.904  0.00  0.00    +0.000 HD
ENDBRANCH   8   9
ENDBRANCH   7   8
ENDBRANCH   1   7
BRANCH   5  12
ATOM     12  C   UNL     1      43.747   4.689  10.299  0.00  0.00    +0.000 C 
BRANCH  12  13
ATOM     13  N   UNL     1      43.957   4.457  11.712  0.00  0.00    +0.000 N 
ATOM     14  C   UNL     1      45.127   4.878  12.322  0.00  0.00    +0.000 A 
ATOM     15  C   UNL     1      45.860   6.009  11.951  0.00  0.00    +0.000 A 
ATOM     16  N   UNL     1      46.976   6.438  12.595  0.00  0.00    +0.000 NA
ATOM     17  C   UNL     1      47.329   5.701  13.667  0.00  0.00    +0.000 A 
ATOM     18  C   UNL     1      46.610   4.590  14.060  0.00  0.00    +0.000 A 
ATOM     19  N   UNL     1      45.511   4.154  13.392  0.00  0.00    +0.000 NA
ATOM     20  H   UNL     1      43.739   3.525  12.054  0.00  0.00    +0.000 HD
ENDBRANCH  12  13
ENDBRANCH   5  12
TORSDOF 5
ENDMDL
MODEL 4
REMARK VINA RESULT:    -7.013      1.787      5.912
REMARK INTER + INTRA:          -9.092
REMARK INTER:                  -8.688
REMARK INTRA:                  -0.404
REMARK UNBOUND:                -0.234
REMARK  Name = 
REMARK  5 active torsions:
REMARK  status: ('A' for Active; 'I' for Inactive)
REMARK    1  A    between atoms: N_1  and  C_2
REMARK    2  A    between atoms: C_2  and  C_3
REMARK    3  A    between atoms: C_3  and  C_4
REMARK    4  A    between atoms: C_8  and  C_9
REMARK    5  A    between atoms: C_9  and  N_10
REMARK                            x       y       z     vdW  Elec       q    Type
REMARK                         _______ _______ _______ _____ _____    ______ ____
ROOT
ATOM      1  C   UNL     1      46.344   5.973  12.886  0.00  0.00    +0.000 A 
ATOM      2  C   UNL     1      45.944   7.304  12.837  0.00  0.00    +0.000 A 
ATOM      3  N   UNL     1      44.951   7.766  12.047  0.00  0.00    +0.000 NA
ATOM      4  C   UNL     1      44.320   6.859  11.268  0.00  0.00    +0.000 A 
ATOM      5  C   UNL     1      44.612   5.498  11.258  0.00  0.00    +0.000 A 
ATOM      6  C   UNL     1      45.656   5.062  12.076  0.00  0.00    +0.000 A 
ENDROOT
BRANCH   1   7
ATOM      7  C   UNL     1      47.458   5.529  13.798  0.00  0.00    +0.000 C 
BRANCH   7   8
ATOM      8  C   UNL     1      46.976   4.524  14.850  0.00  0.00    +0.000 C 
BRANCH   8   9
ATOM      9  N   UNL     1      47.434   3.174  14.530  0.00  0.00    +0.000 NA
ATOM     10  H   UNL     1      47.927   3.187  13.638  0.00  0.00    +0.000 HD
ATOM     11  H   UNL     1      46.633   2.557  14.399  0.00  0.00    +0.000 HD
ENDBRANCH   8   9
ENDBRANCH   7   8
ENDBRANCH   1   7
BRANCH   5  12
ATOM     12  C   UNL     1      43.824   4.549  10.398  0.00  0.00    +0.000 C 
BRANCH  12  13
ATOM     13  N   UNL     1      44.287   4.601   9.029  0.00  0.00    +0.000 N 
ATOM     14  C   UNL     1      45.164   3.642   8.552  0.00  0.00    +0.000 A 
ATOM     15  C   UNL     1      45.201   2.310   8.975  0.00  0.00    +0.000 A 
ATOM     16  N   UNL     1      46.032   1.368   8.458  0.00  0.00    +0.000 NA
ATOM     17  C   UNL     1      46.825   1.802   7.458  0.00  0.00    +0.000 A 
ATOM     18  C   UNL     1      46.794   3.109   7.014  0.00  0.00    +0.000 A 
ATOM     19  N   UNL     1      45.978   4.048   7.557  0.00  0.00    +0.000 NA
ATOM     20  H   UNL     1      44.595   5.508   8.689  0.00  0.00    +0.000 HD
ENDBRANCH  12  13
ENDBRANCH   5  12
TORSDOF 5
ENDMDL
MODEL 5
REMARK VINA RESULT:    -6.452      2.001      6.179
REMARK INTER + INTRA:          -8.383
REMARK INTER:                  -8.088
REMARK INTRA:                  -0.295
REMARK UNBOUND:                -0.234
REMARK  Name = 
REMARK  5 active torsions:
REMARK  status: ('A' for Active; 'I' for Inactive)
REMARK    1  A    between atoms: N_1  and  C_2
REMARK    2  A    between atoms: C_2  and  C_3
REMARK    3  A    between atoms: C_3  and  C_4
REMARK    4  A    between atoms: C_8  and  C_9
REMARK    5  A    between atoms: C_9  and  N_10
REMARK                            x       y       z     vdW  Elec       q    Type
REMARK                         _______ _______ _______ _____ _____    ______ ____
ROOT
ATOM      1  C   UNL     1      44.720   5.830  11.640  0.00  0.00    +0.000 A 
ATOM      2  C   UNL     1      44.102   5.534  12.850  0.00  0.00    +0.000 A 
ATOM      3  N   UNL     1      43.533   4.344  13.137  0.00  0.00    +0.000 NA
ATOM      4  C   UNL     1      43.583   3.397  12.173  0.00  0.00    +0.000 A 
ATOM      5  C   UNL     1      44.203   3.568  10.939  0.00  0.00    +0.000 A 
ATOM      6  C   UNL     1      44.765   4.817  10.674  0.00  0.00    +0.000 A 
ENDROOT
BRANCH   1   7
ATOM      7  C   UNL     1      45.340   7.180  11.393  0.00  0.00    +0.000 C 
BRANCH   7   8
ATOM      8  C   UNL     1      44.342   8.322  11.618  0.00  0.00    +0.000 C 
BRANCH   8   9
ATOM      9  N   UNL     1      43.127   8.115  10.834  0.00  0.00    +0.000 NA
ATOM     10  H   UNL     1      42.660   7.266  11.152  0.00  0.00    +0.000 HD
ATOM     11  H   UNL     1      43.367   7.954   9.856  0.00  0.00    +0.000 HD
ENDBRANCH   8   9
ENDBRANCH   7   8
ENDBRANCH   1   7
BRANCH   5  12
ATOM     12  C   UNL     1      44.258   2.442   9.944  0.00  0.00    +0.000 C 
BRANCH  12  13
ATOM     13  N   UNL     1      44.477   2.954   8.609  0.00  0.00    +0.000 N 
ATOM     14  C   UNL     1      45.624   2.615   7.911  0.00  0.00    +0.000 A 
ATOM     15  C   UNL     1      46.302   1.398   8.029  0.00  0.00    +0.000 A 
ATOM     16  N   UNL     1      47.396   1.062   7.297  0.00  0.00    +0.000 NA
ATOM     17  C   UNL     1      47.782   1.989   6.398  0.00  0.00    +0.000 A 
ATOM     18  C   UNL     1      47.117   3.190   6.255  0.00  0.00    +0.000 A 
ATOM     19  N   UNL     1      46.042   3.528   7.011  0.00  0.00    +0.000 NA
ATOM     20  H   UNL     1      44.303   3.946   8.471  0.00  0.00    +0.000 HD
ENDBRANCH  12  13
ENDBRANCH   5  12
TORSDOF 5
ENDMDL
MODEL 6
REMARK VINA RESULT:    -6.252      2.094      2.991
REMARK INTER + INTRA:          -8.130
REMARK INTER:                  -7.804
REMARK INTRA:                  -0.326
REMARK UNBOUND:                -0.234
REMARK  Name = 
REMARK  5 active torsions:
REMARK  status: ('A' for Active; 'I' for Inactive)
REMARK    1  A    between atoms: N_1  and  C_2
REMARK    2  A    between atoms: C_2  and  C_3
REMARK    3  A    between atoms: C_3  and  C_4
REMARK    4  A    between atoms: C_8  and  C_9
REMARK    5  A    between atoms: C_9  and  N_10
REMARK                            x       y       z     vdW  Elec       q    Type
REMARK                         _______ _______ _______ _____ _____    ______ ____
ROOT
ATOM      1  C   UNL     1      45.654   3.462   8.331  0.00  0.00    +0.000 A 
ATOM      2  C   UNL     1      45.350   2.143   8.651  0.00  0.00    +0.000 A 
ATOM      3  N   UNL     1      44.529   1.780   9.660  0.00  0.00    +0.000 NA
ATOM      4  C   UNL     1      43.979   2.778  10.387  0.00  0.00    +0.000 A 
ATOM      5  C   UNL     1      44.184   4.132  10.139  0.00  0.00    +0.000 A 
ATOM      6  C   UNL     1      45.052   4.467   9.098  0.00  0.00    +0.000 A 
ENDROOT
BRANCH   1   7
ATOM      7  C   UNL     1      46.575   3.791   7.186  0.00  0.00    +0.000 C 
BRANCH   7   8
ATOM      8  C   UNL     1      47.566   2.657   6.898  0.00  0.00    +0.000 C 
BRANCH   8   9
ATOM      9  N   UNL     1      48.215   2.848   5.603  0.00  0.00    +0.000 NA
ATOM     10  H   UNL     1      48.825   3.663   5.648  0.00  0.00    +0.000 HD
ATOM     11  H   UNL     1      47.515   3.060   4.892  0.00  0.00    +0.000 HD
ENDBRANCH   8   9
ENDBRANCH   7   8
ENDBRANCH   1   7
BRANCH   5  12
ATOM     12  C   UNL     1      43.490   5.179  10.965  0.00  0.00    +0.000 C 
BRANCH  12  13
ATOM     13  N   UNL     1      44.041   6.489  10.693  0.00  0.00    +0.000 N 
ATOM     14  C   UNL     1      44.856   7.110  11.623  0.00  0.00    +0.000 A 
ATOM     15  C   UNL     1      45.719   6.446  12.500  0.00  0.00    +0.000 A 
ATOM     16  N   UNL     1      46.552   7.074  13.371  0.00  0.00    +0.000 NA
ATOM     17  C   UNL     1      46.517   8.421  13.315  0.00  0.00    +0.000 A 
ATOM     18  C   UNL     1      45.684   9.096  12.445  0.00  0.00    +0.000 A 
ATOM     19  N   UNL     1      44.836   8.458  11.599  0.00  0.00    +0.000 NA
ATOM     20  H   UNL     1      43.397   7.182  10.322  0.00  0.00    +0.000 HD
ENDBRANCH  12  13
ENDBRANCH   5  12
TORSDOF 5
ENDMDL
MODEL 7
REMARK VINA RESULT:    -6.012      2.661      4.080
REMARK INTER + INTRA:          -7.828
REMARK INTER:                  -7.554
REMARK INTRA:                  -0.274
REMARK UNBOUND:                -0.234
REMARK  Name = 
REMARK  5 active torsions:
REMARK  status: ('A' for Active; 'I' for Inactive)
REMARK    1  A    between atoms: N_1  and  C_2
REMARK    2  A    between atoms: C_2  and  C_3
REMARK    3  A    between atoms: C_3  and  C_4
REMARK    4  A    between atoms: C_8  and  C_9
REMARK    5  A    between atoms: C_9  and  N_10
REMARK                            x       y       z     vdW  Elec       q    Type
REMARK                         _______ _______ _______ _____ _____    ______ ____
ROOT
ATOM      1  C   UNL     1      44.876   3.801  10.860  0.00  0.00    +0.000 A 
ATOM      2  C   UNL     1      45.237   4.902  10.091  0.00  0.00    +0.000 A 
ATOM      3  N   UNL     1      45.893   5.979  10.574  0.00  0.00    +0.000 NA
ATOM      4  C   UNL     1      46.209   5.960  11.888  0.00  0.00    +0.000 A 
ATOM      5  C   UNL     1      45.928   4.901  12.746  0.00  0.00    +0.000 A 
ATOM      6  C   UNL     1      45.235   3.813  12.213  0.00  0.00    +0.000 A 
ENDROOT
BRANCH   1   7
ATOM      7  C   UNL     1      44.150   2.631  10.249  0.00  0.00    +0.000 C 
BRANCH   7   8
ATOM      8  C   UNL     1      44.610   2.352   8.813  0.00  0.00    +0.000 C 
BRANCH   8   9
ATOM      9  N   UNL     1      45.644   1.321   8.788  0.00  0.00    +0.000 NA
ATOM     10  H   UNL     1      45.207   0.402   8.854  0.00  0.00    +0.000 HD
ATOM     11  H   UNL     1      46.241   1.407   9.611  0.00  0.00    +0.000 HD
ENDBRANCH   8   9
ENDBRANCH   7   8
ENDBRANCH   1   7
BRANCH   5  12
ATOM     12  C   UNL     1      46.362   4.941  14.185  0.00  0.00    +0.000 C 
BRANCH  12  13
ATOM     13  N   UNL     1      46.937   3.673  14.577  0.00  0.00    +0.000 N 
ATOM     14  C   UNL     1      47.605   3.553  15.784  0.00  0.00    +0.000 A 
ATOM     15  C   UNL     1      47.296   4.269  16.944  0.00  0.00    +0.000 A 
ATOM     16  N   UNL     1      47.927   4.100  18.136  0.00  0.00    +0.000 NA
ATOM     17  C   UNL     1      48.879   3.146  18.141  0.00  0.00    +0.000 A 
ATOM     18  C   UNL     1      49.188   2.415  17.011  0.00  0.00    +0.000 A 
ATOM     19  N   UNL     1      48.570   2.612  15.818  0.00  0.00    +0.000 NA
ATOM     20  H   UNL     1      47.474   3.181  13.868  0.00  0.00    +0.000 HD
ENDBRANCH  12  13
ENDBRANCH   5  12
TORSDOF 5
ENDMDL
MODEL 8
REMARK VINA RESULT:    -5.642      3.523      5.292
REMARK INTER + INTRA:          -7.360
REMARK INTER:                  -7.081
REMARK INTRA:                  -0.279
REMARK UNBOUND:                -0.234
REMARK  Name = 
REMARK  5 active torsions:
REMARK  status: ('A' for Active; 'I' for Inactive)
REMARK    1  A    between atoms: N_1  and  C_2
REMARK    2  A    between atoms: C_2  and  C_3
REMARK    3  A    between atoms: C_3  and  C_4
REMARK    4  A    between atoms: C_8  and  C_9
REMARK    5  A    between atoms: C_9  and  N_10
REMARK                            x       y       z     vdW  Elec       q    Type
REMARK                         _______ _______ _______ _____ _____    ______ ____
ROOT
ATOM      1  C   UNL     1      44.516   5.779  11.464  0.00  0.00    +0.000 A 
ATOM      2  C   UNL     1      44.503   7.163  11.323  0.00  0.00    +0.000 A 
ATOM      3  N   UNL     1      45.331   7.997  11.988  0.00  0.00    +0.000 NA
ATOM      4  C   UNL     1      46.220   7.429  12.832  0.00  0.00    +0.000 A 
ATOM      5  C   UNL     1      46.347   6.057  13.029  0.00  0.00    +0.000 A 
ATOM      6  C   UNL     1      45.463   5.228  12.337  0.00  0.00    +0.000 A 
ENDROOT
BRANCH   1   7
ATOM      7  C   UNL     1      43.565   4.910  10.684  0.00  0.00    +0.000 C 
BRANCH   7   8
ATOM      8  C   UNL     1      43.934   3.424  10.776  0.00  0.00    +0.000 C 
BRANCH   8   9
ATOM      9  N   UNL     1      42.931   2.683  11.536  0.00  0.00    +0.000 NA
ATOM     10  H   UNL     1      43.285   2.501  12.475  0.00  0.00    +0.000 HD
ATOM     11  H   UNL     1      42.778   1.769  11.111  0.00  0.00    +0.000 HD
ENDBRANCH   8   9
ENDBRANCH   7   8
ENDBRANCH   1   7
BRANCH   5  12
ATOM     12  C   UNL     1      47.401   5.506  13.949  0.00  0.00    +0.000 C 
BRANCH  12  13
ATOM     13  N   UNL     1      46.792   4.751  15.023  0.00  0.00    +0.000 N 
ATOM     14  C   UNL     1      47.527   4.427  16.151  0.00  0.00    +0.000 A 
ATOM     15  C   UNL     1      48.549   5.211  16.693  0.00  0.00    +0.000 A 
ATOM     16  N   UNL     1      49.224   4.904  17.831  0.00  0.00    +0.000 NA
ATOM     17  C   UNL     1      48.813   3.776  18.445  0.00  0.00    +0.000 A 
ATOM     18  C   UNL     1      47.794   2.995  17.935  0.00  0.00    +0.000 A 
ATOM     19  N   UNL     1      47.146   3.298  16.781  0.00  0.00    +0.000 NA
ATOM     20  H   UNL     1      46.250   3.935  14.752  0.00  0.00    +0.000 HD
ENDBRANCH  12  13
ENDBRANCH   5  12
TORSDOF 5
ENDMDL
MODEL 9
REMARK VINA RESULT:    -5.250      4.133      6.313
REMARK INTER + INTRA:          -6.865
REMARK INTER:                  -6.576
REMARK INTRA:                  -0.289
REMARK UNBOUND:                -0.234
REMARK  Name = 
REMARK  5 active torsions:
REMARK  status: ('A' for Active; 'I' for Inactive)
REMARK    1  A    between atoms: N_1  and  C_2
REMARK    2  A    between atoms: C_2  and  C_3
REMARK    3  A    between atoms: C_3  and  C_4
REMARK    4  A    between atoms: C_8  and  C_9
REMARK    5  A    between atoms: C_9  and  N_10
REMARK                            x       y       z     vdW  Elec       q    Type
REMARK                         _______ _______ _______ _____ _____    ______ ____
ROOT
ATOM      1  C   UNL     1      45.313   7.982  12.204  0.00  0.00    +0.000 A 
ATOM      2  C   UNL     1      44.379   7.304  11.428  0.00  0.00    +0.000 A 
ATOM      3  N   UNL     1      44.324   5.959  11.316  0.00  0.00    +0.000 NA
ATOM      4  C   UNL     1      45.241   5.252  12.012  0.00  0.00    +0.000 A 
ATOM      5  C   UNL     1      46.201   5.820  12.845  0.00  0.00    +0.000 A 
ATOM      6  C   UNL     1      46.236   7.213  12.922  0.00  0.00    +0.000 A 
ENDROOT
BRANCH   1   7
ATOM      7  C   UNL     1      45.309   9.486  12.286  0.00  0.00    +0.000 C 
BRANCH   7   8
ATOM      8  C   UNL     1      44.268  10.113  11.351  0.00  0.00    +0.000 C 
BRANCH   8   9
ATOM      9  N   UNL     1      43.155  10.675  12.112  0.00  0.00    +0.000 NA
ATOM     10  H   UNL     1      43.145  11.688  11.997  0.00  0.00    +0.000 HD
ATOM     11  H   UNL     1      43.295  10.506  13.108  0.00  0.00    +0.000 HD
ENDBRANCH   8   9
ENDBRANCH   7   8
ENDBRANCH   1   7
BRANCH   5  12
ATOM     12  C   UNL     1      47.151   4.954  13.625  0.00  0.00    +0.000 C 
BRANCH  12  13
ATOM     13  N   UNL     1      46.511   4.447  14.820  0.00  0.00    +0.000 N 
ATOM     14  C   UNL     1      47.230   4.321  15.996  0.00  0.00    +0.000 A 
ATOM     15  C   UNL     1      48.282   5.157  16.385  0.00  0.00    +0.000 A 
ATOM     16  N   UNL     1      48.941   5.052  17.568  0.00  0.00    +0.000 NA
ATOM     17  C   UNL     1      48.485   4.082  18.385  0.00  0.00    +0.000 A 
ATOM     18  C   UNL     1      47.438   3.256  18.028  0.00  0.00    +0.000 A 
ATOM     19  N   UNL     1      46.804   3.352  16.831  0.00  0.00    +0.000 NA
ATOM     20  H   UNL     1      45.938   3.616  14.708  0.00  0.00    +0.000 HD
ENDBRANCH  12  13
ENDBRANCH   5  12
TORSDOF 5
ENDMDL
