MODEL 1
REMARK VINA RESULT:    -7.701      0.000      0.000
REMARK INTER + INTRA:         -11.516
REMARK INTER:                 -10.627
REMARK INTRA:                  -0.889
REMARK UNBOUND:                -0.889
REMARK  Name = 
REMARK  7 active torsions:
REMARK  status: ('A' for Active; 'I' for Inactive)
REMARK    1  A    between atoms: N_1  and  C_2
REMARK    2  A    between atoms: C_2  and  C_3
REMARK    3  A    between atoms: C_6  and  O_7
REMARK    4  A    between atoms: O_7  and  C_8
REMARK    5  A    between atoms: C_8  and  C_9
REMARK    6  A    between atoms: C_9  and  C_10
REMARK    7  A    between atoms: C_13  and  C_14
REMARK                            x       y       z     vdW  Elec       q    Type
REMARK                         _______ _______ _______ _____ _____    ______ ____
ROOT
ATOM      1  C   UNL     1      43.464   4.994  12.328  0.00  0.00    +0.000 C 
ENDROOT
BRANCH   1   2
ATOM      2  C   UNL     1      44.876   5.462  12.559  0.00  0.00    +0.000 A 
ATOM      3  C   UNL     1      45.710   4.787  13.453  0.00  0.00    +0.000 A 
ATOM      4  C   UNL     1      47.023   5.220  13.656  0.00  0.00    +0.000 A 
ATOM      5  C   UNL     1      47.524   6.341  12.974  0.00  0.00    +0.000 A 
ATOM      6  C   UNL     1      46.685   7.030  12.093  0.00  0.00    +0.000 A 
ATOM      7  C   UNL     1      45.377   6.588  11.900  0.00  0.00    +0.000 A 
ATOM      8  F   UNL     1      44.588   7.269  11.055  0.00  0.00    +0.000 F 
BRANCH   5   9
ATOM      9  C   UNL     1      48.940   6.729  13.230  0.00  0.00    +0.000 C 
ATOM     10  N   UNL     1      49.695   7.184  12.188  0.00  0.00    +0.000 N 
ATOM     11  O   UNL     1      49.433   6.644  14.349  0.00  0.00    +0.000 OA
ATOM     12  H   UNL     1      49.386   7.284  11.235  0.00  0.00    +0.000 HD
ATOM     13  H   UNL     1      50.653   7.432  12.401  0.00  0.00    +0.000 HD
ENDBRANCH   5   9
ENDBRANCH   1   2
BRANCH   1  14
ATOM     14  C   UNL     1      43.375   3.810  11.365  0.00  0.00    +0.000 C 
BRANCH  14  15
ATOM     15  O   UNL     1      43.564   4.250  10.016  0.00  0.00    +0.000 OA
BRANCH  15  19
ATOM     16  C   UNL     1      46.460   2.364   7.652  0.00  0.00    +0.000 A 
ATOM     17  C   UNL     1      45.691   1.596   8.535  0.00  0.00    +0.000 A 
ATOM     18  C   UNL     1      44.723   2.190   9.346  0.00  0.00    +0.000 A 
ATOM     19  C   UNL     1      44.505   3.565   9.291  0.00  0.00    +0.000 A 
ATOM     20  C   UNL     1      45.284   4.343   8.429  0.00  0.00    +0.000 A 
ATOM     21  C   UNL     1      46.256   3.748   7.614  0.00  0.00    +0.000 A 
BRANCH  16  22
ATOM     22  C   UNL     1      47.488   1.694   6.776  0.00  0.00    +0.000 C 
BRANCH  22  23
ATOM     23  N   UNL     1      48.591   2.599   6.468  0.00  0.00    +0.000 NA
ATOM     24  H   UNL     1      48.247   3.556   6.447  0.00  0.00    +0.000 HD
ATOM     25  H   UNL     1      48.933   2.389   5.531  0.00  0.00    +0.000 HD
ENDBRANCH  22  23
ENDBRANCH  16  22
ENDBRANCH  15  19
ENDBRANCH  14  15
ENDBRANCH   1  14
TORSDOF 7
ENDMDL
MODEL 2
REMARK VINA RESULT:    -7.611      1.837      5.839
REMARK INTER + INTRA:         -11.392
REMARK INTER:                 -10.520
REMARK INTRA:                  -0.871
REMARK UNBOUND:                -0.889
REMARK  Name = 
REMARK  7 active torsions:
REMARK  status: ('A' for Active; 'I' for Inactive)
REMARK    1  A    between atoms: N_1  and  C_2
REMARK    2  A    between atoms: C_2  and  C_3
REMARK    3  A    between atoms: C_6  and  O_7
REMARK    4  A    between atoms: O_7  and  C_8
REMARK    5  A    between atoms: C_8  and  C_9
REMARK    6  A    between atoms: C_9  and  C_10
REMARK    7  A    between atoms: C_13  and  C_14
REMARK                            x       y       z     vdW  Elec       q    Type
REMARK                         _______ _______ _______ _____ _____    ______ ____
ROOT
ATOM      1  C   UNL     1      43.525   3.719  10.639  0.00  0.00    +0.000 C 
ENDROOT
BRANCH   1   2
ATOM      2  C   UNL     1      44.557   3.374   9.597  0.00  0.00    +0.000 A 
ATOM      3  C   UNL     1      44.749   2.048   9.203  0.00  0.00    +0.000 A 
ATOM      4  C   UNL     1      45.701   1.734   8.229  0.00  0.00    +0.000 A 
ATOM      5  C   UNL     1      46.483   2.739   7.637  0.00  0.00    +0.000 A 
ATOM      6  C   UNL     1      46.305   4.064   8.044  0.00  0.00    +0.000 A 
ATOM      7  C   UNL     1      45.353   4.364   9.018  0.00  0.00    +0.000 A 
ATOM      8  F   UNL     1      45.205   5.643   9.397  0.00  0.00    +0.000 F 
BRANCH   5   9
ATOM      9  C   UNL     1      47.462   2.326   6.593  0.00  0.00    +0.000 C 
ATOM     10  N   UNL     1      47.450   2.971   5.390  0.00  0.00    +0.000 N 
ATOM     11  O   UNL     1      48.268   1.425   6.793  0.00  0.00    +0.000 OA
ATOM     12  H   UNL     1      46.827   3.717   5.126  0.00  0.00    +0.000 HD
ATOM     13  H   UNL     1      48.127   2.658   4.705  0.00  0.00    +0.000 HD
ENDBRANCH   5   9
ENDBRANCH   1   2
BRANCH   1  14
ATOM     14  C   UNL     1      43.650   2.878  11.908  0.00  0.00    +0.000 C 
BRANCH  14  15
ATOM     15  O   UNL     1      43.760   3.724  13.058  0.00  0.00    +0.000 OA
BRANCH  15  19
ATOM     16  C   UNL     1      46.969   6.413  13.054  0.00  0.00    +0.000 A 
ATOM     17  C   UNL     1      47.217   5.053  13.272  0.00  0.00    +0.000 A 
ATOM     18  C   UNL     1      46.172   4.127  13.289  0.00  0.00    +0.000 A 
ATOM     19  C   UNL     1      44.858   4.545  13.092  0.00  0.00    +0.000 A 
ATOM     20  C   UNL     1      44.599   5.904  12.896  0.00  0.00    +0.000 A 
ATOM     21  C   UNL     1      45.646   6.835  12.877  0.00  0.00    +0.000 A 
BRANCH  16  22
ATOM     22  C   UNL     1      48.118   7.389  13.022  0.00  0.00    +0.000 C 
BRANCH  22  23
ATOM     23  N   UNL     1      49.397   6.697  12.889  0.00  0.00    +0.000 NA
ATOM     24  H   UNL     1      49.455   6.270  11.967  0.00  0.00    +0.000 HD
ATOM     25  H   UNL     1      49.427   5.936  13.567  0.00  0.00    +0.000 HD
ENDBRANCH  22  23
ENDBRANCH  16  22
ENDBRANCH  15  19
ENDBRANCH  14  15
ENDBRANCH   1  14
TORSDOF 7
ENDMDL
MODEL 3
REMARK VINA RESULT:    -7.450      1.269      1.569
REMARK INTER + INTRA:         -11.170
REMARK INTER:                 -10.381
REMARK INTRA:                  -0.788
REMARK UNBOUND:                -0.889
REMARK  Name = 
REMARK  7 active torsions:
REMARK  status: ('A' for Active; 'I' for Inactive)
REMARK    1  A    between atoms: N_1  and  C_2
REMARK    2  A    between atoms: C_2  and  C_3
REMARK    3  A    between atoms: C_6  and  O_7
REMARK    4  A    between atoms: O_7  and  C_8
REMARK    5  A    between atoms: C_8  and  C_9
REMARK    6  A    between atoms: C_9  and  C_10
REMARK    7  A    between atoms: C_13  and  C_14
REMARK                            x       y       z     vdW  Elec       q    Type
REMARK                         _______ _______ _______ _____ _____    ______ ____
ROOT
ATOM      1  C   UNL     1      43.481   4.091  12.711  0.00  0.00    +0.000 C 
ENDROOT
BRANCH   1   2
ATOM      2  C   UNL     1      44.795   4.818  12.835  0.00  0.00    +0.000 A 
ATOM      3  C   UNL     1      44.840   6.213  12.793  0.00  0.00    +0.000 A 
ATOM      4  C   UNL     1      46.061   6.882  12.919  0.00  0.00    +0.000 A 
ATOM      5  C   UNL     1      47.259   6.167  13.081  0.00  0.00    +0.000 A 
ATOM      6  C   UNL     1      47.218   4.770  13.104  0.00  0.00    +0.000 A 
ATOM      7  C   UNL     1      45.994   4.115  12.977  0.00  0.00    +0.000 A 
ATOM      8  F   UNL     1      45.980   2.773  12.995  0.00  0.00    +0.000 F 
BRANCH   5   9
ATOM      9  C   UNL     1      48.517   6.953  13.227  0.00  0.00    +0.000 C 
ATOM     10  N   UNL     1      48.740   7.998  12.378  0.00  0.00    +0.000 N 
ATOM     11  O   UNL     1      49.346   6.677  14.086  0.00  0.00    +0.000 OA
ATOM     12  H   UNL     1      48.126   8.299  11.638  0.00  0.00    +0.000 HD
ATOM     13  H   UNL     1      49.608   8.504  12.505  0.00  0.00    +0.000 HD
ENDBRANCH   5   9
ENDBRANCH   1   2
BRANCH   1  14
ATOM     14  C   UNL     1      43.360   3.289  11.416  0.00  0.00    +0.000 C 
BRANCH  14  15
ATOM     15  O   UNL     1      43.769   4.084  10.297  0.00  0.00    +0.000 OA
BRANCH  15  19
ATOM     16  C   UNL     1      46.422   2.463   7.492  0.00  0.00    +0.000 A 
ATOM     17  C   UNL     1      45.811   1.617   8.426  0.00  0.00    +0.000 A 
ATOM     18  C   UNL     1      44.928   2.122   9.382  0.00  0.00    +0.000 A 
ATOM     19  C   UNL     1      44.641   3.484   9.425  0.00  0.00    +0.000 A 
ATOM     20  C   UNL     1      45.262   4.340   8.511  0.00  0.00    +0.000 A 
ATOM     21  C   UNL     1      46.148   3.835   7.550  0.00  0.00    +0.000 A 
BRANCH  16  22
ATOM     22  C   UNL     1      47.357   1.889   6.459  0.00  0.00    +0.000 C 
BRANCH  22  23
ATOM     23  N   UNL     1      48.660   2.547   6.501  0.00  0.00    +0.000 NA
ATOM     24  H   UNL     1      48.997   2.689   5.552  0.00  0.00    +0.000 HD
ATOM     25  H   UNL     1      49.324   1.926   6.959  0.00  0.00    +0.000 HD
ENDBRANCH  22  23
ENDBRANCH  16  22
ENDBRANCH  15  19
ENDBRANCH  14  15
ENDBRANCH   1  14
TORSDOF 7
ENDMDL
MODEL 4
REMARK VINA RESULT:    -7.366      2.115      6.342
REMARK INTER + INTRA:         -11.054
REMARK INTER:                 -10.284
REMARK INTRA:                  -0.770
REMARK UNBOUND:                -0.889
REMARK  Name = 
REMARK  7 active torsions:
REMARK  status: ('A' for Active; 'I' for Inactive)
REMARK    1  A    between atoms: N_1  and  C_2
REMARK    2  A    between atoms: C_2  and  C_3
REMARK    3  A    between atoms: C_6  and  O_7
REMARK    4  A    between atoms: O_7  and  C_8
REMARK    5  A    between atoms: C_8  and  C_9
REMARK    6  A    between atoms: C_9  and  C_10
REMARK    7  A    between atoms: C_13  and  C_14
REMARK                            x       y       z     vdW  Elec       q    Type
REMARK                         _______ _______ _______ _____ _____    ______ ____
ROOT
ATOM      1  C   UNL     1      43.736   4.720  10.289  0.00  0.00    +0.000 C 
ENDROOT
BRANCH   1   2
ATOM      2  C   UNL     1      44.681   3.947   9.407  0.00  0.00    +0.000 A 
ATOM      3  C   UNL     1      45.521   4.613   8.513  0.00  0.00    +0.000 A 
ATOM      4  C   UNL     1      46.403   3.892   7.704  0.00  0.00    +0.000 A 
ATOM      5  C   UNL     1      46.455   2.489   7.769  0.00  0.00    +0.000 A 
ATOM      6  C   UNL     1      45.601   1.820   8.650  0.00  0.00    +0.000 A 
ATOM      7  C   UNL     1      44.725   2.552   9.451  0.00  0.00    +0.000 A 
ATOM      8  F   UNL     1      43.910   1.886  10.284  0.00  0.00    +0.000 F 
BRANCH   5   9
ATOM      9  C   UNL     1      47.435   1.793   6.888  0.00  0.00    +0.000 C 
ATOM     10  N   UNL     1      48.510   2.493   6.422  0.00  0.00    +0.000 N 
ATOM     11  O   UNL     1      47.290   0.617   6.576  0.00  0.00    +0.000 OA
ATOM     12  H   UNL     1      48.714   3.460   6.614  0.00  0.00    +0.000 HD
ATOM     13  H   UNL     1      49.150   1.987   5.822  0.00  0.00    +0.000 HD
ENDBRANCH   5   9
ENDBRANCH   1   2
BRANCH   1  14
ATOM     14  C   UNL     1      44.451   5.699  11.220  0.00  0.00    +0.000 C 
BRANCH  14  15
ATOM     15  O   UNL     1      45.422   5.011  12.016  0.00  0.00    +0.000 OA
BRANCH  15  19
ATOM     16  C   UNL     1      48.711   7.374  13.078  0.00  0.00    +0.000 A 
ATOM     17  C   UNL     1      48.193   6.465  14.008  0.00  0.00    +0.000 A 
ATOM     18  C   UNL     1      47.092   5.666  13.694  0.00  0.00    +0.000 A 
ATOM     19  C   UNL     1      46.485   5.764  12.443  0.00  0.00    +0.000 A 
ATOM     20  C   UNL     1      46.982   6.685  11.517  0.00  0.00    +0.000 A 
ATOM     21  C   UNL     1      48.087   7.487  11.830  0.00  0.00    +0.000 A 
BRANCH  16  22
ATOM     22  C   UNL     1      49.912   8.212  13.437  0.00  0.00    +0.000 C 
BRANCH  22  23
ATOM     23  N   UNL     1      51.093   7.790  12.691  0.00  0.00    +0.000 NA
ATOM     24  H   UNL     1      51.450   8.576  12.152  0.00  0.00    +0.000 HD
ATOM     25  H   UNL     1      50.816   7.076  12.019  0.00  0.00    +0.000 HD
ENDBRANCH  22  23
ENDBRANCH  16  22
ENDBRANCH  15  19
ENDBRANCH  14  15
ENDBRANCH   1  14
TORSDOF 7
ENDMDL
MODEL 5
REMARK VINA RESULT:    -7.100      2.021      2.612
REMARK INTER + INTRA:         -10.687
REMARK INTER:                 -10.373
REMARK INTRA:                  -0.314
REMARK UNBOUND:                -0.889
REMARK  Name = 
REMARK  7 active torsions:
REMARK  status: ('A' for Active; 'I' for Inactive)
REMARK    1  A    between atoms: N_1  and  C_2
REMARK    2  A    between atoms: C_2  and  C_3
REMARK    3  A    between atoms: C_6  and  O_7
REMARK    4  A    between atoms: O_7  and  C_8
REMARK    5  A    between atoms: C_8  and  C_9
REMARK    6  A    between atoms: C_9  and  C_10
REMARK    7  A    between atoms: C_13  and  C_14
REMARK                            x       y       z     vdW  Elec       q    Type
REMARK                         _______ _______ _______ _____ _____    ______ ____
ROOT
ATOM      1  C   UNL     1      45.479   5.571  10.891  0.00  0.00    +0.000 C 
ENDROOT
BRANCH   1   2
ATOM      2  C   UNL     1      46.126   5.391  12.239  0.00  0.00    +0.000 A 
ATOM      3  C   UNL     1      46.719   6.474  12.891  0.00  0.00    +0.000 A 
ATOM      4  C   UNL     1      47.309   6.304  14.147  0.00  0.00    +0.000 A 
ATOM      5  C   UNL     1      47.323   5.045  14.770  0.00  0.00    +0.000 A 
ATOM      6  C   UNL     1      46.746   3.956  14.110  0.00  0.00    +0.000 A 
ATOM      7  C   UNL     1      46.162   4.139  12.858  0.00  0.00    +0.000 A 
ATOM      8  F   UNL     1      45.621   3.077  12.241  0.00  0.00    +0.000 F 
BRANCH   5   9
ATOM      9  C   UNL     1      47.954   4.948  16.116  0.00  0.00    +0.000 C 
ATOM     10  N   UNL     1      47.149   4.904  17.217  0.00  0.00    +0.000 N 
ATOM     11  O   UNL     1      49.172   4.911  16.249  0.00  0.00    +0.000 OA
ATOM     12  H   UNL     1      46.142   4.934  17.214  0.00  0.00    +0.000 HD
ATOM     13  H   UNL     1      47.615   4.844  18.114  0.00  0.00    +0.000 HD
ENDBRANCH   5   9
ENDBRANCH   1   2
BRANCH   1  14
ATOM     14  C   UNL     1      44.019   5.122  10.862  0.00  0.00    +0.000 C 
BRANCH  14  15
ATOM     15  O   UNL     1      43.661   4.674   9.550  0.00  0.00    +0.000 OA
BRANCH  15  19
ATOM     16  C   UNL     1      46.435   2.077   7.791  0.00  0.00    +0.000 A 
ATOM     17  C   UNL     1      46.452   3.433   7.445  0.00  0.00    +0.000 A 
ATOM     18  C   UNL     1      45.538   4.327   8.004  0.00  0.00    +0.000 A 
ATOM     19  C   UNL     1      44.586   3.882   8.918  0.00  0.00    +0.000 A 
ATOM     20  C   UNL     1      44.546   2.526   9.252  0.00  0.00    +0.000 A 
ATOM     21  C   UNL     1      45.464   1.626   8.693  0.00  0.00    +0.000 A 
BRANCH  16  22
ATOM     22  C   UNL     1      47.445   1.135   7.186  0.00  0.00    +0.000 C 
BRANCH  22  23
ATOM     23  N   UNL     1      48.309   1.827   6.234  0.00  0.00    +0.000 NA
ATOM     24  H   UNL     1      47.744   2.437   5.648  0.00  0.00    +0.000 HD
ATOM     25  H   UNL     1      48.731   1.135   5.616  0.00  0.00    +0.000 HD
ENDBRANCH  22  23
ENDBRANCH  16  22
ENDBRANCH  15  19
ENDBRANCH  14  15
ENDBRANCH   1  14
TORSDOF 7
ENDMDL
MODEL 6
REMARK VINA RESULT:    -6.495      2.203      6.610
REMARK INTER + INTRA:          -9.851
REMARK INTER:                  -9.507
REMARK INTRA:                  -0.345
REMARK UNBOUND:                -0.889
REMARK  Name = 
REMARK  7 active torsions:
REMARK  status: ('A' for Active; 'I' for Inactive)
REMARK    1  A    between atoms: N_1  and  C_2
REMARK    2  A    between atoms: C_2  and  C_3
REMARK    3  A    between atoms: C_6  and  O_7
REMARK    4  A    between atoms: O_7  and  C_8
REMARK    5  A    between atoms: C_8  and  C_9
REMARK    6  A    between atoms: C_9  and  C_10
REMARK    7  A    between atoms: C_13  and  C_14
REMARK                            x       y       z     vdW  Elec       q    Type
REMARK                         _______ _______ _______ _____ _____    ______ ____
ROOT
ATOM      1  C   UNL     1      43.752   4.463  10.497  0.00  0.00    +0.000 C 
ENDROOT
BRANCH   1   2
ATOM      2  C   UNL     1      44.695   3.759   9.556  0.00  0.00    +0.000 A 
ATOM      3  C   UNL     1      44.695   2.365   9.464  0.00  0.00    +0.000 A 
ATOM      4  C   UNL     1      45.564   1.718   8.583  0.00  0.00    +0.000 A 
ATOM      5  C   UNL     1      46.455   2.452   7.782  0.00  0.00    +0.000 A 
ATOM      6  C   UNL     1      46.470   3.845   7.887  0.00  0.00    +0.000 A 
ATOM      7  C   UNL     1      45.598   4.479   8.771  0.00  0.00    +0.000 A 
ATOM      8  F   UNL     1      45.635   5.818   8.859  0.00  0.00    +0.000 F 
BRANCH   5   9
ATOM      9  C   UNL     1      47.337   1.689   6.854  0.00  0.00    +0.000 C 
ATOM     10  N   UNL     1      48.383   2.337   6.262  0.00  0.00    +0.000 N 
ATOM     11  O   UNL     1      47.140   0.504   6.614  0.00  0.00    +0.000 OA
ATOM     12  H   UNL     1      48.624   3.307   6.388  0.00  0.00    +0.000 HD
ATOM     13  H   UNL     1      48.956   1.787   5.634  0.00  0.00    +0.000 HD
ENDBRANCH   5   9
ENDBRANCH   1   2
BRANCH   1  14
ATOM     14  C   UNL     1      44.442   4.986  11.756  0.00  0.00    +0.000 C 
BRANCH  14  15
ATOM     15  O   UNL     1      45.765   4.447  11.860  0.00  0.00    +0.000 OA
BRANCH  15  19
ATOM     16  C   UNL     1      47.918   5.668  15.237  0.00  0.00    +0.000 A 
ATOM     17  C   UNL     1      47.976   6.441  14.072  0.00  0.00    +0.000 A 
ATOM     18  C   UNL     1      47.280   6.062  12.923  0.00  0.00    +0.000 A 
ATOM     19  C   UNL     1      46.512   4.899  12.917  0.00  0.00    +0.000 A 
ATOM     20  C   UNL     1      46.466   4.109  14.069  0.00  0.00    +0.000 A 
ATOM     21  C   UNL     1      47.164   4.489  15.223  0.00  0.00    +0.000 A 
BRANCH  16  22
ATOM     22  C   UNL     1      48.666   6.111  16.469  0.00  0.00    +0.000 C 
BRANCH  22  23
ATOM     23  N   UNL     1      49.936   5.402  16.599  0.00  0.00    +0.000 NA
ATOM     24  H   UNL     1      49.757   4.435  16.860  0.00  0.00    +0.000 HD
ATOM     25  H   UNL     1      50.465   5.819  17.364  0.00  0.00    +0.000 HD
ENDBRANCH  22  23
ENDBRANCH  16  22
ENDBRANCH  15  19
ENDBRANCH  14  15
ENDBRANCH   1  14
TORSDOF 7
ENDMDL
MODEL 7
REMARK VINA RESULT:    -6.313      1.465      1.962
REMARK INTER + INTRA:          -9.600
REMARK INTER:                  -8.685
REMARK INTRA:                  -0.915
REMARK UNBOUND:                -0.889
REMARK  Name = 
REMARK  7 active torsions:
REMARK  status: ('A' for Active; 'I' for Inactive)
REMARK    1  A    between atoms: N_1  and  C_2
REMARK    2  A    between atoms: C_2  and  C_3
REMARK    3  A    between atoms: C_6  and  O_7
REMARK    4  A    between atoms: O_7  and  C_8
REMARK    5  A    between atoms: C_8  and  C_9
REMARK    6  A    between atoms: C_9  and  C_10
REMARK    7  A    between atoms: C_13  and  C_14
REMARK                            x       y       z     vdW  Elec       q    Type
REMARK                         _______ _______ _______ _____ _____    ______ ____
ROOT
ATOM      1  C   UNL     1      45.147   4.795  13.331  0.00  0.00    +0.000 C 
ENDROOT
BRANCH   1   2
ATOM      2  C   UNL     1      46.186   5.797  12.900  0.00  0.00    +0.000 A 
ATOM      3  C   UNL     1      47.535   5.592  13.198  0.00  0.00    +0.000 A 
ATOM      4  C   UNL     1      48.496   6.520  12.787  0.00  0.00    +0.000 A 
ATOM      5  C   UNL     1      48.124   7.675  12.079  0.00  0.00    +0.000 A 
ATOM      6  C   UNL     1      46.772   7.891  11.798  0.00  0.00    +0.000 A 
ATOM      7  C   UNL     1      45.824   6.958  12.214  0.00  0.00    +0.000 A 
ATOM      8  F   UNL     1      44.531   7.191  11.938  0.00  0.00    +0.000 F 
BRANCH   5   9
ATOM      9  C   UNL     1      49.208   8.606  11.661  0.00  0.00    +0.000 C 
ATOM     10  N   UNL     1      48.880   9.891  11.333  0.00  0.00    +0.000 N 
ATOM     11  O   UNL     1      50.377   8.242  11.603  0.00  0.00    +0.000 OA
ATOM     12  H   UNL     1      47.953  10.283  11.342  0.00  0.00    +0.000 HD
ATOM     13  H   UNL     1      49.644  10.492  11.049  0.00  0.00    +0.000 HD
ENDBRANCH   5   9
ENDBRANCH   1   2
BRANCH   1  14
ATOM     14  C   UNL     1      45.047   3.594  12.390  0.00  0.00    +0.000 C 
BRANCH  14  15
ATOM     15  O   UNL     1      44.301   3.940  11.218  0.00  0.00    +0.000 OA
BRANCH  15  19
ATOM     16  C   UNL     1      46.149   2.780   7.645  0.00  0.00    +0.000 A 
ATOM     17  C   UNL     1      45.997   4.142   7.926  0.00  0.00    +0.000 A 
ATOM     18  C   UNL     1      45.378   4.568   9.102  0.00  0.00    +0.000 A 
ATOM     19  C   UNL     1      44.896   3.638  10.021  0.00  0.00    +0.000 A 
ATOM     20  C   UNL     1      45.024   2.275   9.739  0.00  0.00    +0.000 A 
ATOM     21  C   UNL     1      45.646   1.846   8.559  0.00  0.00    +0.000 A 
BRANCH  16  22
ATOM     22  C   UNL     1      46.838   2.347   6.375  0.00  0.00    +0.000 C 
BRANCH  22  23
ATOM     23  N   UNL     1      47.181   3.496   5.543  0.00  0.00    +0.000 NA
ATOM     24  H   UNL     1      47.211   4.334   6.119  0.00  0.00    +0.000 HD
ATOM     25  H   UNL     1      46.438   3.637   4.859  0.00  0.00    +0.000 HD
ENDBRANCH  22  23
ENDBRANCH  16  22
ENDBRANCH  15  19
ENDBRANCH  14  15
ENDBRANCH   1  14
TORSDOF 7
ENDMDL
MODEL 8
REMARK VINA RESULT:    -5.797      4.767      6.847
REMARK INTER + INTRA:          -8.889
REMARK INTER:                  -8.083
REMARK INTRA:                  -0.806
REMARK UNBOUND:                -0.889
REMARK  Name = 
REMARK  7 active torsions:
REMARK  status: ('A' for Active; 'I' for Inactive)
REMARK    1  A    between atoms: N_1  and  C_2
REMARK    2  A    between atoms: C_2  and  C_3
REMARK    3  A    between atoms: C_6  and  O_7
REMARK    4  A    between atoms: O_7  and  C_8
REMARK    5  A    between atoms: C_8  and  C_9
REMARK    6  A    between atoms: C_9  and  C_10
REMARK    7  A    between atoms: C_13  and  C_14
REMARK                            x       y       z     vdW  Elec       q    Type
REMARK                         _______ _______ _______ _____ _____    ______ ____
ROOT
ATOM      1  C   UNL     1      48.388   5.900  16.919  0.00  0.00    +0.000 C 
ENDROOT
BRANCH   1   2
ATOM      2  C   UNL     1      49.335   4.745  17.114  0.00  0.00    +0.000 A 
ATOM      3  C   UNL     1      50.687   4.973  17.379  0.00  0.00    +0.000 A 
ATOM      4  C   UNL     1      51.558   3.898  17.569  0.00  0.00    +0.000 A 
ATOM      5  C   UNL     1      51.096   2.574  17.489  0.00  0.00    +0.000 A 
ATOM      6  C   UNL     1      49.747   2.344  17.204  0.00  0.00    +0.000 A 
ATOM      7  C   UNL     1      48.888   3.426  17.016  0.00  0.00    +0.000 A 
ATOM      8  F   UNL     1      47.599   3.179  16.736  0.00  0.00    +0.000 F 
BRANCH   5   9
ATOM      9  C   UNL     1      52.083   1.483  17.722  0.00  0.00    +0.000 C 
ATOM     10  N   UNL     1      51.626   0.252  18.096  0.00  0.00    +0.000 N 
ATOM     11  O   UNL     1      53.287   1.671  17.588  0.00  0.00    +0.000 OA
ATOM     12  H   UNL     1      50.661  -0.001  18.238  0.00  0.00    +0.000 HD
ATOM     13  H   UNL     1      52.327  -0.461  18.250  0.00  0.00    +0.000 HD
ENDBRANCH   5   9
ENDBRANCH   1   2
BRANCH   1  14
ATOM     14  C   UNL     1      48.655   6.683  15.634  0.00  0.00    +0.000 C 
BRANCH  14  15
ATOM     15  O   UNL     1      48.579   5.816  14.497  0.00  0.00    +0.000 OA
BRANCH  15  19
ATOM     16  C   UNL     1      44.858   5.871  12.578  0.00  0.00    +0.000 A 
ATOM     17  C   UNL     1      45.261   4.715  13.255  0.00  0.00    +0.000 A 
ATOM     18  C   UNL     1      46.498   4.655  13.899  0.00  0.00    +0.000 A 
ATOM     19  C   UNL     1      47.358   5.751  13.876  0.00  0.00    +0.000 A 
ATOM     20  C   UNL     1      46.973   6.903  13.183  0.00  0.00    +0.000 A 
ATOM     21  C   UNL     1      45.732   6.965  12.537  0.00  0.00    +0.000 A 
BRANCH  16  22
ATOM     22  C   UNL     1      43.509   5.915  11.905  0.00  0.00    +0.000 C 
BRANCH  22  23
ATOM     23  N   UNL     1      43.588   5.435  10.529  0.00  0.00    +0.000 NA
ATOM     24  H   UNL     1      42.939   4.662  10.403  0.00  0.00    +0.000 HD
ATOM     25  H   UNL     1      44.523   5.062  10.367  0.00  0.00    +0.000 HD
ENDBRANCH  22  23
ENDBRANCH  16  22
ENDBRANCH  15  19
ENDBRANCH  14  15
ENDBRANCH   1  14
TORSDOF 7
ENDMDL
MODEL 9
REMARK VINA RESULT:    -5.654      3.807      7.032
REMARK INTER + INTRA:          -8.691
REMARK INTER:                  -7.748
REMARK INTRA:                  -0.943
REMARK UNBOUND:                -0.889
REMARK  Name = 
REMARK  7 active torsions:
REMARK  status: ('A' for Active; 'I' for Inactive)
REMARK    1  A    between atoms: N_1  and  C_2
REMARK    2  A    between atoms: C_2  and  C_3
REMARK    3  A    between atoms: C_6  and  O_7
REMARK    4  A    between atoms: O_7  and  C_8
REMARK    5  A    between atoms: C_8  and  C_9
REMARK    6  A    between atoms: C_9  and  C_10
REMARK    7  A    between atoms: C_13  and  C_14
REMARK                            x       y       z     vdW  Elec       q    Type
REMARK                         _______ _______ _______ _____ _____    ______ ____
ROOT
ATOM      1  C   UNL     1      48.188   8.160  12.062  0.00  0.00    +0.000 C 
ENDROOT
BRANCH   1   2
ATOM      2  C   UNL     1      46.869   7.447  11.918  0.00  0.00    +0.000 A 
ATOM      3  C   UNL     1      46.729   6.388  11.019  0.00  0.00    +0.000 A 
ATOM      4  C   UNL     1      45.506   5.724  10.897  0.00  0.00    +0.000 A 
ATOM      5  C   UNL     1      44.397   6.112  11.667  0.00  0.00    +0.000 A 
ATOM      6  C   UNL     1      44.529   7.185  12.553  0.00  0.00    +0.000 A 
ATOM      7  C   UNL     1      45.755   7.839  12.664  0.00  0.00    +0.000 A 
ATOM      8  F   UNL     1      45.856   8.871  13.517  0.00  0.00    +0.000 F 
BRANCH   5   9
ATOM      9  C   UNL     1      43.133   5.343  11.493  0.00  0.00    +0.000 C 
ATOM     10  N   UNL     1      41.945   5.963  11.757  0.00  0.00    +0.000 N 
ATOM     11  O   UNL     1      43.141   4.174  11.125  0.00  0.00    +0.000 OA
ATOM     12  H   UNL     1      41.833   6.914  12.069  0.00  0.00    +0.000 HD
ATOM     13  H   UNL     1      41.109   5.406  11.632  0.00  0.00    +0.000 HD
ENDBRANCH   5   9
ENDBRANCH   1   2
BRANCH   1  14
ATOM     14  C   UNL     1      49.145   7.460  13.025  0.00  0.00    +0.000 C 
BRANCH  14  15
ATOM     15  O   UNL     1      48.732   7.672  14.380  0.00  0.00    +0.000 OA
BRANCH  15  19
ATOM     16  C   UNL     1      48.150   4.175  16.607  0.00  0.00    +0.000 A 
ATOM     17  C   UNL     1      49.072   5.127  17.057  0.00  0.00    +0.000 A 
ATOM     18  C   UNL     1      49.300   6.301  16.337  0.00  0.00    +0.000 A 
ATOM     19  C   UNL     1      48.611   6.545  15.151  0.00  0.00    +0.000 A 
ATOM     20  C   UNL     1      47.705   5.589  14.682  0.00  0.00    +0.000 A 
ATOM     21  C   UNL     1      47.474   4.411  15.404  0.00  0.00    +0.000 A 
BRANCH  16  22
ATOM     22  C   UNL     1      47.910   2.924  17.414  0.00  0.00    +0.000 C 
BRANCH  22  23
ATOM     23  N   UNL     1      46.500   2.785  17.767  0.00  0.00    +0.000 NA
ATOM     24  H   UNL     1      45.952   3.463  17.243  0.00  0.00    +0.000 HD
ATOM     25  H   UNL     1      46.387   3.016  18.753  0.00  0.00    +0.000 HD
ENDBRANCH  22  23
ENDBRANCH  16  22
ENDBRANCH  15  19
ENDBRANCH  14  15
ENDBRANCH   1  14
TORSDOF 7
ENDMDL
