MODEL 1
REMARK VINA RESULT:    -7.509      0.000      0.000
REMARK INTER + INTRA:         -10.478
REMARK INTER:                  -9.704
REMARK INTRA:                  -0.774
REMARK UNBOUND:                -0.774
REMARK  Name = 
REMARK  7 active torsions:
REMARK  status: ('A' for Active; 'I' for Inactive)
REMARK    1  A    between atoms: C_1  and  C_2
REMARK    2  A    between atoms: C_3  and  C_4
REMARK    3  A    between atoms: C_4  and  O_5
REMARK    4  A    between atoms: O_5  and  C_6
REMARK    5  A    between atoms: C_8  and  C_9
REMARK    6  A    between atoms: C_18  and  C_19
REMARK    7  A    between atoms: C_18  and  C_20
REMARK                            x       y       z     vdW  Elec       q    Type
REMARK                         _______ _______ _______ _____ _____    ______ ____
ROOT
ATOM      1  C   UNL     1      46.501   3.767  12.547  0.00  0.00    +0.000 C 
ATOM      2  C   UNL     1      46.124   5.183  12.951  0.00  0.00    +0.000 C 
ATOM      3  C   UNL     1      45.480   6.077  11.885  0.00  0.00    +0.000 C 
ATOM      4  C   UNL     1      45.783   7.488  12.405  0.00  0.00    +0.000 C 
ATOM      5  O   UNL     1      46.563   7.354  13.616  0.00  0.00    +0.000 OA
ATOM      6  C   UNL     1      47.234   6.068  13.567  0.00  0.00    +0.000 C 
ATOM      7  C   UNL     1      48.494   6.302  12.704  0.00  0.00    +0.000 C 
ENDROOT
BRANCH   6   8
ATOM      8  C   UNL     1      47.630   5.595  14.976  0.00  0.00    +0.000 A 
ATOM      9  C   UNL     1      48.584   6.287  15.741  0.00  0.00    +0.000 A 
ATOM     10  C   UNL     1      48.925   5.860  17.034  0.00  0.00    +0.000 A 
ATOM     11  C   UNL     1      48.330   4.728  17.575  0.00  0.00    +0.000 A 
ATOM     12 CL   UNL     1      48.749   4.196  19.157  0.00  0.00    +0.000 Cl
ATOM     13  C   UNL     1      47.389   4.017  16.841  0.00  0.00    +0.000 A 
ATOM     14  C   UNL     1      47.036   4.456  15.562  0.00  0.00    +0.000 A 
ENDBRANCH   6   8
BRANCH   3  15
ATOM     15  C   UNL     1      45.915   5.875  10.424  0.00  0.00    +0.000 C 
BRANCH  15  16
ATOM     16  O   UNL     1      44.873   5.137   9.774  0.00  0.00    +0.000 OA
BRANCH  16  17
ATOM     17  C   UNL     1      45.136   3.871   9.324  0.00  0.00    +0.000 A 
ATOM     18  C   UNL     1      46.092   3.820   8.297  0.00  0.00    +0.000 A 
ATOM     19  C   UNL     1      46.432   2.607   7.680  0.00  0.00    +0.000 A 
ATOM     20  C   UNL     1      45.794   1.429   8.111  0.00  0.00    +0.000 A 
ATOM     21  C   UNL     1      44.849   1.473   9.137  0.00  0.00    +0.000 A 
ATOM     22  C   UNL     1      44.528   2.686   9.742  0.00  0.00    +0.000 A 
ATOM     23  F   UNL     1      43.590   2.682  10.699  0.00  0.00    +0.000 F 
BRANCH  19  24
ATOM     24  C   UNL     1      47.416   2.497   6.560  0.00  0.00    +0.000 C 
ATOM     25  N   UNL     1      47.262   3.306   5.471  0.00  0.00    +0.000 N 
ATOM     26  O   UNL     1      48.342   1.699   6.605  0.00  0.00    +0.000 OA
ATOM     27  H   UNL     1      46.536   3.988   5.336  0.00  0.00    +0.000 HD
ATOM     28  H   UNL     1      47.948   3.202   4.727  0.00  0.00    +0.000 HD
ENDBRANCH  19  24
ENDBRANCH  16  17
ENDBRANCH  15  16
ENDBRANCH   3  15
TORSDOF 5
ENDMDL
MODEL 2
REMARK VINA RESULT:    -7.192      1.289      1.743
REMARK INTER + INTRA:         -10.068
REMARK INTER:                  -9.204
REMARK INTRA:                  -0.863
REMARK UNBOUND:                -0.774
REMARK  Name = 
REMARK  7 active torsions:
REMARK  status: ('A' for Active; 'I' for Inactive)
REMARK    1  A    between atoms: C_1  and  C_2
REMARK    2  A    between atoms: C_3  and  C_4
REMARK    3  A    between atoms: C_4  and  O_5
REMARK    4  A    between atoms: O_5  and  C_6
REMARK    5  A    between atoms: C_8  and  C_9
REMARK    6  A    between atoms: C_18  and  C_19
REMARK    7  A    between atoms: C_18  and  C_20
REMARK                            x       y       z     vdW  Elec       q    Type
REMARK                         _______ _______ _______ _____ _____    ______ ____
ROOT
ATOM      1  C   UNL     1      46.754   4.523  13.066  0.00  0.00    +0.000 C 
ATOM      2  C   UNL     1      46.480   5.952  13.503  0.00  0.00    +0.000 C 
ATOM      3  C   UNL     1      45.540   6.793  12.630  0.00  0.00    +0.000 C 
ATOM      4  C   UNL     1      45.949   8.228  12.985  0.00  0.00    +0.000 C 
ATOM      5  O   UNL     1      47.046   8.155  13.925  0.00  0.00    +0.000 OA
ATOM      6  C   UNL     1      47.702   6.873  13.738  0.00  0.00    +0.000 C 
ATOM      7  C   UNL     1      48.656   7.078  12.541  0.00  0.00    +0.000 C 
ENDROOT
BRANCH   6   8
ATOM      8  C   UNL     1      48.494   6.467  14.992  0.00  0.00    +0.000 A 
ATOM      9  C   UNL     1      48.008   5.494  15.882  0.00  0.00    +0.000 A 
ATOM     10  C   UNL     1      48.747   5.115  17.014  0.00  0.00    +0.000 A 
ATOM     11  C   UNL     1      49.972   5.711  17.282  0.00  0.00    +0.000 A 
ATOM     12 CL   UNL     1      50.879   5.255  18.671  0.00  0.00    +0.000 Cl
ATOM     13  C   UNL     1      50.476   6.682  16.424  0.00  0.00    +0.000 A 
ATOM     14  C   UNL     1      49.748   7.044  15.287  0.00  0.00    +0.000 A 
ENDBRANCH   6   8
BRANCH   3  15
ATOM     15  C   UNL     1      45.542   6.528  11.116  0.00  0.00    +0.000 C 
BRANCH  15  16
ATOM     16  O   UNL     1      44.388   5.731  10.827  0.00  0.00    +0.000 OA
BRANCH  16  17
ATOM     17  C   UNL     1      44.558   4.489  10.277  0.00  0.00    +0.000 A 
ATOM     18  C   UNL     1      45.428   4.470   9.174  0.00  0.00    +0.000 A 
ATOM     19  C   UNL     1      45.664   3.290   8.454  0.00  0.00    +0.000 A 
ATOM     20  C   UNL     1      45.010   2.111   8.859  0.00  0.00    +0.000 A 
ATOM     21  C   UNL     1      44.152   2.123   9.959  0.00  0.00    +0.000 A 
ATOM     22  C   UNL     1      43.933   3.303  10.665  0.00  0.00    +0.000 A 
ATOM     23  F   UNL     1      43.073   3.271  11.693  0.00  0.00    +0.000 F 
BRANCH  19  24
ATOM     24  C   UNL     1      46.552   3.218   7.254  0.00  0.00    +0.000 C 
ATOM     25  N   UNL     1      47.377   2.138   7.113  0.00  0.00    +0.000 N 
ATOM     26  O   UNL     1      46.554   4.105   6.412  0.00  0.00    +0.000 OA
ATOM     27  H   UNL     1      47.454   1.363   7.749  0.00  0.00    +0.000 HD
ATOM     28  H   UNL     1      47.970   2.124   6.287  0.00  0.00    +0.000 HD
ENDBRANCH  19  24
ENDBRANCH  16  17
ENDBRANCH  15  16
ENDBRANCH   3  15
TORSDOF 5
ENDMDL
MODEL 3
REMARK VINA RESULT:    -6.895      2.068      2.402
REMARK INTER + INTRA:          -9.684
REMARK INTER:                  -8.724
REMARK INTRA:                  -0.960
REMARK UNBOUND:                -0.774
REMARK  Name = 
REMARK  7 active torsions:
REMARK  status: ('A' for Active; 'I' for Inactive)
REMARK    1  A    between atoms: C_1  and  C_2
REMARK    2  A    between atoms: C_3  and  C_4
REMARK    3  A    between atoms: C_4  and  O_5
REMARK    4  A    between atoms: O_5  and  C_6
REMARK    5  A    between atoms: C_8  and  C_9
REMARK    6  A    between atoms: C_18  and  C_19
REMARK    7  A    between atoms: C_18  and  C_20
REMARK                            x       y       z     vdW  Elec       q    Type
REMARK                         _______ _______ _______ _____ _____    ______ ____
ROOT
ATOM      1  C   UNL     1      47.142   5.390  13.209  0.00  0.00    +0.000 C 
ATOM      2  C   UNL     1      46.628   6.819  13.273  0.00  0.00    +0.000 C 
ATOM      3  C   UNL     1      45.527   7.221  12.284  0.00  0.00    +0.000 C 
ATOM      4  C   UNL     1      45.682   8.746  12.215  0.00  0.00    +0.000 C 
ATOM      5  O   UNL     1      46.801   9.115  13.055  0.00  0.00    +0.000 OA
ATOM      6  C   UNL     1      47.670   7.958  13.163  0.00  0.00    +0.000 C 
ATOM      7  C   UNL     1      48.538   7.983  11.886  0.00  0.00    +0.000 C 
ENDROOT
BRANCH   6   8
ATOM      8  C   UNL     1      48.558   8.046  14.416  0.00  0.00    +0.000 A 
ATOM      9  C   UNL     1      48.168   8.796  15.539  0.00  0.00    +0.000 A 
ATOM     10  C   UNL     1      48.975   8.855  16.686  0.00  0.00    +0.000 A 
ATOM     11  C   UNL     1      50.188   8.180  16.723  0.00  0.00    +0.000 A 
ATOM     12 CL   UNL     1      51.184   8.255  18.124  0.00  0.00    +0.000 Cl
ATOM     13  C   UNL     1      50.605   7.436  15.626  0.00  0.00    +0.000 A 
ATOM     14  C   UNL     1      49.791   7.362  14.492  0.00  0.00    +0.000 A 
ENDBRANCH   6   8
BRANCH   3  15
ATOM     15  C   UNL     1      45.535   6.558  10.897  0.00  0.00    +0.000 C 
BRANCH  15  16
ATOM     16  O   UNL     1      44.448   5.624  10.873  0.00  0.00    +0.000 OA
BRANCH  16  17
ATOM     17  C   UNL     1      44.625   4.414  10.259  0.00  0.00    +0.000 A 
ATOM     18  C   UNL     1      45.509   4.453   9.169  0.00  0.00    +0.000 A 
ATOM     19  C   UNL     1      45.755   3.313   8.390  0.00  0.00    +0.000 A 
ATOM     20  C   UNL     1      45.095   2.115   8.722  0.00  0.00    +0.000 A 
ATOM     21  C   UNL     1      44.222   2.068   9.809  0.00  0.00    +0.000 A 
ATOM     22  C   UNL     1      43.994   3.210  10.575  0.00  0.00    +0.000 A 
ATOM     23  F   UNL     1      43.122   3.123  11.588  0.00  0.00    +0.000 F 
BRANCH  19  24
ATOM     24  C   UNL     1      46.659   3.304   7.199  0.00  0.00    +0.000 C 
ATOM     25  N   UNL     1      47.601   2.321   7.099  0.00  0.00    +0.000 N 
ATOM     26  O   UNL     1      46.570   4.159   6.329  0.00  0.00    +0.000 OA
ATOM     27  H   UNL     1      47.758   1.580   7.760  0.00  0.00    +0.000 HD
ATOM     28  H   UNL     1      48.201   2.348   6.278  0.00  0.00    +0.000 HD
ENDBRANCH  19  24
ENDBRANCH  16  17
ENDBRANCH  15  16
ENDBRANCH   3  15
TORSDOF 5
ENDMDL
MODEL 4
REMARK VINA RESULT:    -6.890      2.612      3.071
REMARK INTER + INTRA:          -9.678
REMARK INTER:                  -9.178
REMARK INTRA:                  -0.500
REMARK UNBOUND:                -0.774
REMARK  Name = 
REMARK  7 active torsions:
REMARK  status: ('A' for Active; 'I' for Inactive)
REMARK    1  A    between atoms: C_1  and  C_2
REMARK    2  A    between atoms: C_3  and  C_4
REMARK    3  A    between atoms: C_4  and  O_5
REMARK    4  A    between atoms: O_5  and  C_6
REMARK    5  A    between atoms: C_8  and  C_9
REMARK    6  A    between atoms: C_18  and  C_19
REMARK    7  A    between atoms: C_18  and  C_20
REMARK                            x       y       z     vdW  Elec       q    Type
REMARK                         _______ _______ _______ _____ _____    ______ ____
ROOT
ATOM      1  C   UNL     1      46.321   6.601  10.041  0.00  0.00    +0.000 C 
ATOM      2  C   UNL     1      46.194   5.738  11.286  0.00  0.00    +0.000 C 
ATOM      3  C   UNL     1      45.136   4.629  11.276  0.00  0.00    +0.000 C 
ATOM      4  C   UNL     1      44.883   4.396  12.771  0.00  0.00    +0.000 C 
ATOM      5  O   UNL     1      45.699   5.336  13.509  0.00  0.00    +0.000 OA
ATOM      6  C   UNL     1      45.971   6.463  12.636  0.00  0.00    +0.000 C 
ATOM      7  C   UNL     1      44.722   7.365  12.739  0.00  0.00    +0.000 C 
ENDROOT
BRANCH   6   8
ATOM      8  C   UNL     1      47.225   7.228  13.091  0.00  0.00    +0.000 A 
ATOM      9  C   UNL     1      48.515   6.709  12.886  0.00  0.00    +0.000 A 
ATOM     10  C   UNL     1      49.655   7.423  13.287  0.00  0.00    +0.000 A 
ATOM     11  C   UNL     1      49.524   8.657  13.912  0.00  0.00    +0.000 A 
ATOM     12 CL   UNL     1      50.918   9.533  14.411  0.00  0.00    +0.000 Cl
ATOM     13  C   UNL     1      48.261   9.193  14.135  0.00  0.00    +0.000 A 
ATOM     14  C   UNL     1      47.128   8.490  13.717  0.00  0.00    +0.000 A 
ENDBRANCH   6   8
BRANCH   3  15
ATOM     15  C   UNL     1      43.843   4.881  10.484  0.00  0.00    +0.000 C 
BRANCH  15  16
ATOM     16  O   UNL     1      44.139   4.627   9.106  0.00  0.00    +0.000 OA
BRANCH  16  17
ATOM     17  C   UNL     1      44.816   3.486   8.770  0.00  0.00    +0.000 A 
ATOM     18  C   UNL     1      45.747   3.661   7.734  0.00  0.00    +0.000 A 
ATOM     19  C   UNL     1      46.481   2.580   7.225  0.00  0.00    +0.000 A 
ATOM     20  C   UNL     1      46.269   1.302   7.776  0.00  0.00    +0.000 A 
ATOM     21  C   UNL     1      45.351   1.124   8.812  0.00  0.00    +0.000 A 
ATOM     22  C   UNL     1      44.634   2.211   9.308  0.00  0.00    +0.000 A 
ATOM     23  F   UNL     1      43.740   1.983  10.280  0.00  0.00    +0.000 F 
BRANCH  19  24
ATOM     24  C   UNL     1      47.460   2.701   6.102  0.00  0.00    +0.000 C 
ATOM     25  N   UNL     1      48.785   2.501   6.363  0.00  0.00    +0.000 N 
ATOM     26  O   UNL     1      47.094   2.979   4.969  0.00  0.00    +0.000 OA
ATOM     27  H   UNL     1      49.186   2.275   7.258  0.00  0.00    +0.000 HD
ATOM     28  H   UNL     1      49.423   2.595   5.577  0.00  0.00    +0.000 HD
ENDBRANCH  19  24
ENDBRANCH  16  17
ENDBRANCH  15  16
ENDBRANCH   3  15
TORSDOF 5
ENDMDL
MODEL 5
REMARK VINA RESULT:    -6.685      2.326      2.987
REMARK INTER + INTRA:          -9.413
REMARK INTER:                  -8.192
REMARK INTRA:                  -1.220
REMARK UNBOUND:                -0.774
REMARK  Name = 
REMARK  7 active torsions:
REMARK  status: ('A' for Active; 'I' for Inactive)
REMARK    1  A    between atoms: C_1  and  C_2
REMARK    2  A    between atoms: C_3  and  C_4
REMARK    3  A    between atoms: C_4  and  O_5
REMARK    4  A    between atoms: O_5  and  C_6
REMARK    5  A    between atoms: C_8  and  C_9
REMARK    6  A    between atoms: C_18  and  C_19
REMARK    7  A    between atoms: C_18  and  C_20
REMARK                            x       y       z     vdW  Elec       q    Type
REMARK                         _______ _______ _______ _____ _____    ______ ____
ROOT
ATOM      1  C   UNL     1      46.944   5.608  13.218  0.00  0.00    +0.000 C 
ATOM      2  C   UNL     1      46.703   7.099  13.396  0.00  0.00    +0.000 C 
ATOM      3  C   UNL     1      45.564   7.735  12.591  0.00  0.00    +0.000 C 
ATOM      4  C   UNL     1      45.974   9.212  12.543  0.00  0.00    +0.000 C 
ATOM      5  O   UNL     1      47.246   9.340  13.219  0.00  0.00    +0.000 OA
ATOM      6  C   UNL     1      47.905   8.048  13.167  0.00  0.00    +0.000 C 
ATOM      7  C   UNL     1      48.576   7.992  11.777  0.00  0.00    +0.000 C 
ENDROOT
BRANCH   6   8
ATOM      8  C   UNL     1      48.960   7.917  14.277  0.00  0.00    +0.000 A 
ATOM      9  C   UNL     1      50.330   7.820  13.979  0.00  0.00    +0.000 A 
ATOM     10  C   UNL     1      51.288   7.721  15.000  0.00  0.00    +0.000 A 
ATOM     11  C   UNL     1      50.892   7.702  16.331  0.00  0.00    +0.000 A 
ATOM     12 CL   UNL     1      52.063   7.574  17.586  0.00  0.00    +0.000 Cl
ATOM     13  C   UNL     1      49.545   7.789  16.658  0.00  0.00    +0.000 A 
ATOM     14  C   UNL     1      48.593   7.908  15.641  0.00  0.00    +0.000 A 
ENDBRANCH   6   8
BRANCH   3  15
ATOM     15  C   UNL     1      45.260   7.154  11.201  0.00  0.00    +0.000 C 
BRANCH  15  16
ATOM     16  O   UNL     1      44.000   6.477  11.294  0.00  0.00    +0.000 OA
BRANCH  16  17
ATOM     17  C   UNL     1      43.974   5.110  11.237  0.00  0.00    +0.000 A 
ATOM     18  C   UNL     1      44.634   4.575  10.119  0.00  0.00    +0.000 A 
ATOM     19  C   UNL     1      44.648   3.194   9.874  0.00  0.00    +0.000 A 
ATOM     20  C   UNL     1      43.984   2.343  10.777  0.00  0.00    +0.000 A 
ATOM     21  C   UNL     1      43.334   2.869  11.894  0.00  0.00    +0.000 A 
ATOM     22  C   UNL     1      43.335   4.243  12.124  0.00  0.00    +0.000 A 
ATOM     23  F   UNL     1      42.668   4.702  13.192  0.00  0.00    +0.000 F 
BRANCH  19  24
ATOM     24  C   UNL     1      45.305   2.573   8.684  0.00  0.00    +0.000 C 
ATOM     25  N   UNL     1      45.460   3.324   7.554  0.00  0.00    +0.000 N 
ATOM     26  O   UNL     1      45.695   1.413   8.707  0.00  0.00    +0.000 OA
ATOM     27  H   UNL     1      45.170   4.279   7.433  0.00  0.00    +0.000 HD
ATOM     28  H   UNL     1      45.908   2.868   6.763  0.00  0.00    +0.000 HD
ENDBRANCH  19  24
ENDBRANCH  16  17
ENDBRANCH  15  16
ENDBRANCH   3  15
TORSDOF 5
ENDMDL
MODEL 6
REMARK VINA RESULT:    -6.672      4.523      7.704
REMARK INTER + INTRA:          -9.396
REMARK INTER:                  -8.656
REMARK INTRA:                  -0.740
REMARK UNBOUND:                -0.774
REMARK  Name = 
REMARK  7 active torsions:
REMARK  status: ('A' for Active; 'I' for Inactive)
REMARK    1  A    between atoms: C_1  and  C_2
REMARK    2  A    between atoms: C_3  and  C_4
REMARK    3  A    between atoms: C_4  and  O_5
REMARK    4  A    between atoms: O_5  and  C_6
REMARK    5  A    between atoms: C_8  and  C_9
REMARK    6  A    between atoms: C_18  and  C_19
REMARK    7  A    between atoms: C_18  and  C_20
REMARK                            x       y       z     vdW  Elec       q    Type
REMARK                         _______ _______ _______ _____ _____    ______ ____
ROOT
ATOM      1  C   UNL     1      46.929   6.279  10.995  0.00  0.00    +0.000 C 
ATOM      2  C   UNL     1      45.455   6.146  10.651  0.00  0.00    +0.000 C 
ATOM      3  C   UNL     1      44.458   6.979  11.467  0.00  0.00    +0.000 C 
ATOM      4  C   UNL     1      43.149   6.199  11.291  0.00  0.00    +0.000 C 
ATOM      5  O   UNL     1      43.437   5.027  10.493  0.00  0.00    +0.000 OA
ATOM      6  C   UNL     1      44.847   4.722  10.651  0.00  0.00    +0.000 C 
ATOM      7  C   UNL     1      44.945   3.927  11.971  0.00  0.00    +0.000 C 
ENDROOT
BRANCH   6   8
ATOM      8  C   UNL     1      45.367   3.877   9.476  0.00  0.00    +0.000 A 
ATOM      9  C   UNL     1      45.918   4.475   8.330  0.00  0.00    +0.000 A 
ATOM     10  C   UNL     1      46.409   3.695   7.271  0.00  0.00    +0.000 A 
ATOM     11  C   UNL     1      46.343   2.309   7.334  0.00  0.00    +0.000 A 
ATOM     12 CL   UNL     1      46.936   1.349   6.035  0.00  0.00    +0.000 Cl
ATOM     13  C   UNL     1      45.797   1.688   8.450  0.00  0.00    +0.000 A 
ATOM     14  C   UNL     1      45.327   2.466   9.513  0.00  0.00    +0.000 A 
ENDBRANCH   6   8
BRANCH   3  15
ATOM     15  C   UNL     1      44.795   7.254  12.942  0.00  0.00    +0.000 C 
BRANCH  15  16
ATOM     16  O   UNL     1      45.244   8.612  13.023  0.00  0.00    +0.000 OA
BRANCH  16  17
ATOM     17  C   UNL     1      46.577   8.882  12.868  0.00  0.00    +0.000 A 
ATOM     18  C   UNL     1      47.417   8.052  13.628  0.00  0.00    +0.000 A 
ATOM     19  C   UNL     1      48.808   8.234  13.634  0.00  0.00    +0.000 A 
ATOM     20  C   UNL     1      49.355   9.273  12.858  0.00  0.00    +0.000 A 
ATOM     21  C   UNL     1      48.525  10.095  12.094  0.00  0.00    +0.000 A 
ATOM     22  C   UNL     1      47.146   9.896  12.097  0.00  0.00    +0.000 A 
ATOM     23  F   UNL     1      46.389  10.733  11.374  0.00  0.00    +0.000 F 
BRANCH  19  24
ATOM     24  C   UNL     1      49.747   7.404  14.448  0.00  0.00    +0.000 C 
ATOM     25  N   UNL     1      51.072   7.734  14.460  0.00  0.00    +0.000 N 
ATOM     26  O   UNL     1      49.349   6.442  15.091  0.00  0.00    +0.000 OA
ATOM     27  H   UNL     1      51.497   8.499  13.964  0.00  0.00    +0.000 HD
ATOM     28  H   UNL     1      51.682   7.146  15.022  0.00  0.00    +0.000 HD
ENDBRANCH  19  24
ENDBRANCH  16  17
ENDBRANCH  15  16
ENDBRANCH   3  15
TORSDOF 5
ENDMDL
MODEL 7
REMARK VINA RESULT:    -6.351      3.543      4.711
REMARK INTER + INTRA:          -8.981
REMARK INTER:                  -7.964
REMARK INTRA:                  -1.017
REMARK UNBOUND:                -0.774
REMARK  Name = 
REMARK  7 active torsions:
REMARK  status: ('A' for Active; 'I' for Inactive)
REMARK    1  A    between atoms: C_1  and  C_2
REMARK    2  A    between atoms: C_3  and  C_4
REMARK    3  A    between atoms: C_4  and  O_5
REMARK    4  A    between atoms: O_5  and  C_6
REMARK    5  A    between atoms: C_8  and  C_9
REMARK    6  A    between atoms: C_18  and  C_19
REMARK    7  A    between atoms: C_18  and  C_20
REMARK                            x       y       z     vdW  Elec       q    Type
REMARK                         _______ _______ _______ _____ _____    ______ ____
ROOT
ATOM      1  C   UNL     1      47.625   9.658  11.848  0.00  0.00    +0.000 C 
ATOM      2  C   UNL     1      48.147   8.257  12.123  0.00  0.00    +0.000 C 
ATOM      3  C   UNL     1      47.141   7.101  12.065  0.00  0.00    +0.000 C 
ATOM      4  C   UNL     1      47.818   6.027  12.925  0.00  0.00    +0.000 C 
ATOM      5  O   UNL     1      49.052   6.583  13.437  0.00  0.00    +0.000 OA
ATOM      6  C   UNL     1      48.912   8.028  13.449  0.00  0.00    +0.000 C 
ATOM      7  C   UNL     1      48.150   8.350  14.753  0.00  0.00    +0.000 C 
ENDROOT
BRANCH   6   8
ATOM      8  C   UNL     1      50.286   8.719  13.446  0.00  0.00    +0.000 A 
ATOM      9  C   UNL     1      51.228   8.471  12.434  0.00  0.00    +0.000 A 
ATOM     10  C   UNL     1      52.472   9.121  12.428  0.00  0.00    +0.000 A 
ATOM     11  C   UNL     1      52.799  10.015  13.440  0.00  0.00    +0.000 A 
ATOM     12 CL   UNL     1      54.326  10.809  13.441  0.00  0.00    +0.000 Cl
ATOM     13  C   UNL     1      51.892  10.275  14.459  0.00  0.00    +0.000 A 
ATOM     14  C   UNL     1      50.645   9.642  14.452  0.00  0.00    +0.000 A 
ENDBRANCH   6   8
BRANCH   3  15
ATOM     15  C   UNL     1      45.695   7.390  12.499  0.00  0.00    +0.000 C 
BRANCH  15  16
ATOM     16  O   UNL     1      44.841   6.929  11.445  0.00  0.00    +0.000 OA
BRANCH  16  17
ATOM     17  C   UNL     1      44.485   5.608  11.407  0.00  0.00    +0.000 A 
ATOM     18  C   UNL     1      44.981   4.917  10.289  0.00  0.00    +0.000 A 
ATOM     19  C   UNL     1      44.658   3.571  10.064  0.00  0.00    +0.000 A 
ATOM     20  C   UNL     1      43.822   2.915  10.986  0.00  0.00    +0.000 A 
ATOM     21  C   UNL     1      43.333   3.594  12.103  0.00  0.00    +0.000 A 
ATOM     22  C   UNL     1      43.668   4.930  12.313  0.00  0.00    +0.000 A 
ATOM     23  F   UNL     1      43.147   5.548  13.382  0.00  0.00    +0.000 F 
BRANCH  19  24
ATOM     24  C   UNL     1      45.129   2.796   8.876  0.00  0.00    +0.000 C 
ATOM     25  N   UNL     1      45.546   3.481   7.770  0.00  0.00    +0.000 N 
ATOM     26  O   UNL     1      45.140   1.573   8.879  0.00  0.00    +0.000 OA
ATOM     27  H   UNL     1      45.570   4.481   7.666  0.00  0.00    +0.000 HD
ATOM     28  H   UNL     1      45.856   2.922   6.979  0.00  0.00    +0.000 HD
ENDBRANCH  19  24
ENDBRANCH  16  17
ENDBRANCH  15  16
ENDBRANCH   3  15
TORSDOF 5
ENDMDL
MODEL 8
REMARK VINA RESULT:    -6.161      4.600      8.039
REMARK INTER + INTRA:          -8.736
REMARK INTER:                  -7.964
REMARK INTRA:                  -0.772
REMARK UNBOUND:                -0.774
REMARK  Name = 
REMARK  7 active torsions:
REMARK  status: ('A' for Active; 'I' for Inactive)
REMARK    1  A    between atoms: C_1  and  C_2
REMARK    2  A    between atoms: C_3  and  C_4
REMARK    3  A    between atoms: C_4  and  O_5
REMARK    4  A    between atoms: O_5  and  C_6
REMARK    5  A    between atoms: C_8  and  C_9
REMARK    6  A    between atoms: C_18  and  C_19
REMARK    7  A    between atoms: C_18  and  C_20
REMARK                            x       y       z     vdW  Elec       q    Type
REMARK                         _______ _______ _______ _____ _____    ______ ____
ROOT
ATOM      1  C   UNL     1      46.953   5.026  14.511  0.00  0.00    +0.000 C 
ATOM      2  C   UNL     1      47.638   5.842  13.427  0.00  0.00    +0.000 C 
ATOM      3  C   UNL     1      48.595   6.954  13.873  0.00  0.00    +0.000 C 
ATOM      4  C   UNL     1      48.614   7.887  12.655  0.00  0.00    +0.000 C 
ATOM      5  O   UNL     1      47.706   7.343  11.669  0.00  0.00    +0.000 OA
ATOM      6  C   UNL     1      46.736   6.522  12.368  0.00  0.00    +0.000 C 
ATOM      7  C   UNL     1      45.673   7.511  12.895  0.00  0.00    +0.000 C 
ENDROOT
BRANCH   6   8
ATOM      8  C   UNL     1      46.091   5.496  11.421  0.00  0.00    +0.000 A 
ATOM      9  C   UNL     1      45.524   4.305  11.906  0.00  0.00    +0.000 A 
ATOM     10  C   UNL     1      44.920   3.384  11.037  0.00  0.00    +0.000 A 
ATOM     11  C   UNL     1      44.886   3.631   9.670  0.00  0.00    +0.000 A 
ATOM     12 CL   UNL     1      44.152   2.501   8.599  0.00  0.00    +0.000 Cl
ATOM     13  C   UNL     1      45.444   4.796   9.159  0.00  0.00    +0.000 A 
ATOM     14  C   UNL     1      46.028   5.722  10.028  0.00  0.00    +0.000 A 
ENDBRANCH   6   8
BRANCH   3  15
ATOM     15  C   UNL     1      48.273   7.691  15.184  0.00  0.00    +0.000 C 
BRANCH  15  16
ATOM     16  O   UNL     1      49.317   7.372  16.112  0.00  0.00    +0.000 OA
BRANCH  16  17
ATOM     17  C   UNL     1      49.105   6.386  17.037  0.00  0.00    +0.000 A 
ATOM     18  C   UNL     1      49.789   5.191  16.762  0.00  0.00    +0.000 A 
ATOM     19  C   UNL     1      49.633   4.059  17.576  0.00  0.00    +0.000 A 
ATOM     20  C   UNL     1      48.772   4.141  18.686  0.00  0.00    +0.000 A 
ATOM     21  C   UNL     1      48.096   5.328  18.969  0.00  0.00    +0.000 A 
ATOM     22  C   UNL     1      48.267   6.444  18.152  0.00  0.00    +0.000 A 
ATOM     23  F   UNL     1      47.571   7.551  18.446  0.00  0.00    +0.000 F 
BRANCH  19  24
ATOM     24  C   UNL     1      50.309   2.753  17.312  0.00  0.00    +0.000 C 
ATOM     25  N   UNL     1      51.368   2.393  18.095  0.00  0.00    +0.000 N 
ATOM     26  O   UNL     1      49.934   2.015  16.411  0.00  0.00    +0.000 OA
ATOM     27  H   UNL     1      51.755   2.929  18.853  0.00  0.00    +0.000 HD
ATOM     28  H   UNL     1      51.806   1.499  17.885  0.00  0.00    +0.000 HD
ENDBRANCH  19  24
ENDBRANCH  16  17
ENDBRANCH  15  16
ENDBRANCH   3  15
TORSDOF 5
ENDMDL
MODEL 9
REMARK VINA RESULT:    -5.742      4.673      8.145
REMARK INTER + INTRA:          -8.194
REMARK INTER:                  -7.076
REMARK INTRA:                  -1.118
REMARK UNBOUND:                -0.774
REMARK  Name = 
REMARK  7 active torsions:
REMARK  status: ('A' for Active; 'I' for Inactive)
REMARK    1  A    between atoms: C_1  and  C_2
REMARK    2  A    between atoms: C_3  and  C_4
REMARK    3  A    between atoms: C_4  and  O_5
REMARK    4  A    between atoms: O_5  and  C_6
REMARK    5  A    between atoms: C_8  and  C_9
REMARK    6  A    between atoms: C_18  and  C_19
REMARK    7  A    between atoms: C_18  and  C_20
REMARK                            x       y       z     vdW  Elec       q    Type
REMARK                         _______ _______ _______ _____ _____    ______ ____
ROOT
ATOM      1  C   UNL     1      47.855   6.169  12.629  0.00  0.00    +0.000 C 
ATOM      2  C   UNL     1      46.829   6.970  11.844  0.00  0.00    +0.000 C 
ATOM      3  C   UNL     1      46.673   8.456  12.191  0.00  0.00    +0.000 C 
ATOM      4  C   UNL     1      45.256   8.768  11.693  0.00  0.00    +0.000 C 
ATOM      5  O   UNL     1      44.691   7.542  11.173  0.00  0.00    +0.000 OA
ATOM      6  C   UNL     1      45.377   6.434  11.813  0.00  0.00    +0.000 C 
ATOM      7  C   UNL     1      44.674   6.257  13.177  0.00  0.00    +0.000 C 
ENDROOT
BRANCH   6   8
ATOM      8  C   UNL     1      45.257   5.149  10.977  0.00  0.00    +0.000 A 
ATOM      9  C   UNL     1      44.860   3.932  11.556  0.00  0.00    +0.000 A 
ATOM     10  C   UNL     1      44.734   2.768  10.782  0.00  0.00    +0.000 A 
ATOM     11  C   UNL     1      45.017   2.799   9.422  0.00  0.00    +0.000 A 
ATOM     12 CL   UNL     1      44.870   1.373   8.470  0.00  0.00    +0.000 Cl
ATOM     13  C   UNL     1      45.419   3.986   8.821  0.00  0.00    +0.000 A 
ATOM     14  C   UNL     1      45.524   5.148   9.590  0.00  0.00    +0.000 A 
ENDBRANCH   6   8
BRANCH   3  15
ATOM     15  C   UNL     1      46.898   8.876  13.653  0.00  0.00    +0.000 C 
BRANCH  15  16
ATOM     16  O   UNL     1      48.227   9.403  13.738  0.00  0.00    +0.000 OA
BRANCH  16  17
ATOM     17  C   UNL     1      49.180   8.694  14.419  0.00  0.00    +0.000 A 
ATOM     18  C   UNL     1      48.689   8.019  15.548  0.00  0.00    +0.000 A 
ATOM     19  C   UNL     1      49.544   7.297  16.393  0.00  0.00    +0.000 A 
ATOM     20  C   UNL     1      50.918   7.257  16.087  0.00  0.00    +0.000 A 
ATOM     21  C   UNL     1      51.409   7.918  14.962  0.00  0.00    +0.000 A 
ATOM     22  C   UNL     1      50.544   8.627  14.131  0.00  0.00    +0.000 A 
ATOM     23  F   UNL     1      51.070   9.273  13.081  0.00  0.00    +0.000 F 
BRANCH  19  24
ATOM     24  C   UNL     1      49.083   6.588  17.625  0.00  0.00    +0.000 C 
ATOM     25  N   UNL     1      47.825   6.839  18.094  0.00  0.00    +0.000 N 
ATOM     26  O   UNL     1      49.811   5.802  18.216  0.00  0.00    +0.000 OA
ATOM     27  H   UNL     1      47.155   7.469  17.686  0.00  0.00    +0.000 HD
ATOM     28  H   UNL     1      47.546   6.343  18.936  0.00  0.00    +0.000 HD
ENDBRANCH  19  24
ENDBRANCH  16  17
ENDBRANCH  15  16
ENDBRANCH   3  15
TORSDOF 5
ENDMDL
