MODEL 1
REMARK VINA RESULT:    -6.787      0.000      0.000
REMARK INTER + INTRA:         -10.095
REMARK INTER:                  -9.167
REMARK INTRA:                  -0.928
REMARK UNBOUND:                -0.928
REMARK  Name = 
REMARK  7 active torsions:
REMARK  status: ('A' for Active; 'I' for Inactive)
REMARK    1  A    between atoms: N_1  and  C_2
REMARK    2  A    between atoms: C_2  and  C_3
REMARK    3  A    between atoms: C_2  and  C_7
REMARK    4  A    between atoms: C_3  and  C_4
REMARK    5  A    between atoms: C_4  and  O_6
REMARK    6  A    between atoms: C_10  and  C_11
REMARK    7  A    between atoms: C_11  and  N_12
REMARK                            x       y       z     vdW  Elec       q    Type
REMARK                         _______ _______ _______ _____ _____    ______ ____
ROOT
ATOM      1  C   UNL     1      45.280   3.962   8.705  0.00  0.00    +0.000 A 
ATOM      2  C   UNL     1      46.119   5.072   8.888  0.00  0.00    +0.000 A 
ATOM      3  C   UNL     1      45.893   5.979   9.934  0.00  0.00    +0.000 A 
ATOM      4  C   UNL     1      44.812   5.809  10.810  0.00  0.00    +0.000 A 
ATOM      5  C   UNL     1      43.966   4.711  10.620  0.00  0.00    +0.000 A 
ATOM      6  C   UNL     1      44.196   3.805   9.584  0.00  0.00    +0.000 A 
ENDROOT
BRANCH   1   7
ATOM      7  C   UNL     1      45.568   2.957   7.591  0.00  0.00    +0.000 C 
BRANCH   7   8
ATOM      8  N   UNL     1      46.371   3.580   6.529  0.00  0.00    +0.000 NA
ATOM      9  H   UNL     1      45.759   4.186   5.973  0.00  0.00    +0.000 HD
ATOM     10  H   UNL     1      46.715   2.871   5.885  0.00  0.00    +0.000 HD
ENDBRANCH   7   8
BRANCH   7  11
ATOM     11  C   UNL     1      46.207   1.677   8.159  0.00  0.00    +0.000 C 
BRANCH  11  12
ATOM     12  C   UNL     1      47.216   1.062   7.214  0.00  0.00    +0.000 C 
ATOM     13  O   UNL     1      48.265   1.573   6.869  0.00  0.00    +0.000 OA
BRANCH  12  14
ATOM     14  O   UNL     1      46.842  -0.166   6.783  0.00  0.00    +0.000 OA
ATOM     15  H   UNL     1      45.891  -0.252   6.581  0.00  0.00    +0.000 HD
ENDBRANCH  12  14
ENDBRANCH  11  12
ENDBRANCH   7  11
ENDBRANCH   1   7
BRANCH   4  16
ATOM     16  C   UNL     1      44.554   6.751  11.958  0.00  0.00    +0.000 C 
BRANCH  16  17
ATOM     17  N   UNL     1      45.777   7.137  12.655  0.00  0.00    +0.000 N 
ATOM     18  C   UNL     1      46.305   8.408  12.650  0.00  0.00    +0.000 A 
ATOM     19  C   UNL     1      47.394   8.420  13.492  0.00  0.00    +0.000 A 
ATOM     20  C   UNL     1      47.523   7.125  14.056  0.00  0.00    +0.000 A 
ATOM     21  C   UNL     1      48.401   6.550  14.984  0.00  0.00    +0.000 A 
ATOM     22  N   UNL     1      48.256   5.259  15.368  0.00  0.00    +0.000 NA
ATOM     23  C   UNL     1      47.252   4.533  14.833  0.00  0.00    +0.000 A 
ATOM     24  C   UNL     1      46.342   5.000  13.897  0.00  0.00    +0.000 A 
ATOM     25  C   UNL     1      46.498   6.337  13.520  0.00  0.00    +0.000 A 
ENDBRANCH  16  17
ENDBRANCH   4  16
TORSDOF 7
ENDMDL
MODEL 2
REMARK VINA RESULT:    -6.714      1.698      3.265
REMARK INTER + INTRA:          -9.998
REMARK INTER:                  -9.370
REMARK INTRA:                  -0.628
REMARK UNBOUND:                -0.928
REMARK  Name = 
REMARK  7 active torsions:
REMARK  status: ('A' for Active; 'I' for Inactive)
REMARK    1  A    between atoms: N_1  and  C_2
REMARK    2  A    between atoms: C_2  and  C_3
REMARK    3  A    between atoms: C_2  and  C_7
REMARK    4  A    between atoms: C_3  and  C_4
REMARK    5  A    between atoms: C_4  and  O_6
REMARK    6  A    between atoms: C_10  and  C_11
REMARK    7  A    between atoms: C_11  and  N_12
REMARK                            x       y       z     vdW  Elec       q    Type
REMARK                         _______ _______ _______ _____ _____    ______ ____
ROOT
ATOM      1  C   UNL     1      45.307   4.014   8.818  0.00  0.00    +0.000 A 
ATOM      2  C   UNL     1      46.047   5.169   9.114  0.00  0.00    +0.000 A 
ATOM      3  C   UNL     1      45.717   5.972  10.216  0.00  0.00    +0.000 A 
ATOM      4  C   UNL     1      44.627   5.650  11.037  0.00  0.00    +0.000 A 
ATOM      5  C   UNL     1      43.879   4.508  10.735  0.00  0.00    +0.000 A 
ATOM      6  C   UNL     1      44.213   3.706   9.644  0.00  0.00    +0.000 A 
ENDROOT
BRANCH   1   7
ATOM      7  C   UNL     1      45.709   3.124   7.644  0.00  0.00    +0.000 C 
BRANCH   7   8
ATOM      8  N   UNL     1      46.635   3.834   6.751  0.00  0.00    +0.000 NA
ATOM      9  H   UNL     1      46.084   4.357   6.062  0.00  0.00    +0.000 HD
ATOM     10  H   UNL     1      47.188   3.170   6.214  0.00  0.00    +0.000 HD
ENDBRANCH   7   8
BRANCH   7  11
ATOM     11  C   UNL     1      46.264   1.777   8.142  0.00  0.00    +0.000 C 
BRANCH  11  12
ATOM     12  C   UNL     1      47.257   1.165   7.178  0.00  0.00    +0.000 C 
ATOM     13  O   UNL     1      48.303   1.677   6.821  0.00  0.00    +0.000 OA
BRANCH  12  14
ATOM     14  O   UNL     1      46.875  -0.059   6.745  0.00  0.00    +0.000 OA
ATOM     15  H   UNL     1      45.908  -0.188   6.700  0.00  0.00    +0.000 HD
ENDBRANCH  12  14
ENDBRANCH  11  12
ENDBRANCH   7  11
ENDBRANCH   1   7
BRANCH   4  16
ATOM     16  C   UNL     1      44.258   6.479  12.241  0.00  0.00    +0.000 C 
BRANCH  16  17
ATOM     17  N   UNL     1      45.105   7.658  12.394  0.00  0.00    +0.000 N 
ATOM     18  C   UNL     1      46.291   7.676  13.091  0.00  0.00    +0.000 A 
ATOM     19  C   UNL     1      46.860   8.920  12.933  0.00  0.00    +0.000 A 
ATOM     20  C   UNL     1      46.013   9.681  12.088  0.00  0.00    +0.000 A 
ATOM     21  C   UNL     1      46.076  10.975  11.555  0.00  0.00    +0.000 A 
ATOM     22  N   UNL     1      45.106  11.434  10.727  0.00  0.00    +0.000 NA
ATOM     23  C   UNL     1      44.071  10.620  10.429  0.00  0.00    +0.000 A 
ATOM     24  C   UNL     1      43.905   9.332  10.916  0.00  0.00    +0.000 A 
ATOM     25  C   UNL     1      44.919   8.871  11.759  0.00  0.00    +0.000 A 
ENDBRANCH  16  17
ENDBRANCH   4  16
TORSDOF 7
ENDMDL
MODEL 3
REMARK VINA RESULT:    -6.670      1.596      2.107
REMARK INTER + INTRA:          -9.938
REMARK INTER:                  -9.158
REMARK INTRA:                  -0.780
REMARK UNBOUND:                -0.928
REMARK  Name = 
REMARK  7 active torsions:
REMARK  status: ('A' for Active; 'I' for Inactive)
REMARK    1  A    between atoms: N_1  and  C_2
REMARK    2  A    between atoms: C_2  and  C_3
REMARK    3  A    between atoms: C_2  and  C_7
REMARK    4  A    between atoms: C_3  and  C_4
REMARK    5  A    between atoms: C_4  and  O_6
REMARK    6  A    between atoms: C_10  and  C_11
REMARK    7  A    between atoms: C_11  and  N_12
REMARK                            x       y       z     vdW  Elec       q    Type
REMARK                         _______ _______ _______ _____ _____    ______ ____
ROOT
ATOM      1  C   UNL     1      45.917   2.584   8.534  0.00  0.00    +0.000 A 
ATOM      2  C   UNL     1      46.043   3.964   8.310  0.00  0.00    +0.000 A 
ATOM      3  C   UNL     1      45.333   4.887   9.092  0.00  0.00    +0.000 A 
ATOM      4  C   UNL     1      44.463   4.453  10.102  0.00  0.00    +0.000 A 
ATOM      5  C   UNL     1      44.324   3.078  10.316  0.00  0.00    +0.000 A 
ATOM      6  C   UNL     1      45.037   2.161   9.544  0.00  0.00    +0.000 A 
ENDROOT
BRANCH   1   7
ATOM      7  C   UNL     1      46.734   1.594   7.707  0.00  0.00    +0.000 C 
BRANCH   7   8
ATOM      8  N   UNL     1      46.351   0.212   8.030  0.00  0.00    +0.000 NA
ATOM      9  H   UNL     1      45.360   0.087   7.796  0.00  0.00    +0.000 HD
ATOM     10  H   UNL     1      46.419   0.050   9.032  0.00  0.00    +0.000 HD
ENDBRANCH   7   8
BRANCH   7  11
ATOM     11  C   UNL     1      46.628   1.915   6.205  0.00  0.00    +0.000 C 
BRANCH  11  12
ATOM     12  C   UNL     1      47.969   2.236   5.583  0.00  0.00    +0.000 C 
ATOM     13  O   UNL     1      48.252   2.108   4.406  0.00  0.00    +0.000 OA
BRANCH  12  14
ATOM     14  O   UNL     1      48.859   2.714   6.485  0.00  0.00    +0.000 OA
ATOM     15  H   UNL     1      48.750   2.359   7.388  0.00  0.00    +0.000 HD
ENDBRANCH  12  14
ENDBRANCH  11  12
ENDBRANCH   7  11
ENDBRANCH   1   7
BRANCH   4  16
ATOM     16  C   UNL     1      43.702   5.418  10.974  0.00  0.00    +0.000 C 
BRANCH  16  17
ATOM     17  N   UNL     1      44.543   6.496  11.488  0.00  0.00    +0.000 N 
ATOM     18  C   UNL     1      44.285   7.835  11.305  0.00  0.00    +0.000 A 
ATOM     19  C   UNL     1      45.225   8.551  12.012  0.00  0.00    +0.000 A 
ATOM     20  C   UNL     1      46.070   7.623  12.674  0.00  0.00    +0.000 A 
ATOM     21  C   UNL     1      47.161   7.749  13.544  0.00  0.00    +0.000 A 
ATOM     22  N   UNL     1      47.767   6.652  14.059  0.00  0.00    +0.000 NA
ATOM     23  C   UNL     1      47.304   5.433  13.712  0.00  0.00    +0.000 A 
ATOM     24  C   UNL     1      46.245   5.199  12.848  0.00  0.00    +0.000 A 
ATOM     25  C   UNL     1      45.623   6.341  12.334  0.00  0.00    +0.000 A 
ENDBRANCH  16  17
ENDBRANCH   4  16
TORSDOF 7
ENDMDL
MODEL 4
REMARK VINA RESULT:    -6.653      1.324      2.244
REMARK INTER + INTRA:          -9.915
REMARK INTER:                  -8.958
REMARK INTRA:                  -0.957
REMARK UNBOUND:                -0.928
REMARK  Name = 
REMARK  7 active torsions:
REMARK  status: ('A' for Active; 'I' for Inactive)
REMARK    1  A    between atoms: N_1  and  C_2
REMARK    2  A    between atoms: C_2  and  C_3
REMARK    3  A    between atoms: C_2  and  C_7
REMARK    4  A    between atoms: C_3  and  C_4
REMARK    5  A    between atoms: C_4  and  O_6
REMARK    6  A    between atoms: C_10  and  C_11
REMARK    7  A    between atoms: C_11  and  N_12
REMARK                            x       y       z     vdW  Elec       q    Type
REMARK                         _______ _______ _______ _____ _____    ______ ____
ROOT
ATOM      1  C   UNL     1      45.503   3.594   7.911  0.00  0.00    +0.000 A 
ATOM      2  C   UNL     1      45.960   4.794   8.478  0.00  0.00    +0.000 A 
ATOM      3  C   UNL     1      45.590   5.161   9.781  0.00  0.00    +0.000 A 
ATOM      4  C   UNL     1      44.738   4.347  10.540  0.00  0.00    +0.000 A 
ATOM      5  C   UNL     1      44.269   3.158   9.971  0.00  0.00    +0.000 A 
ATOM      6  C   UNL     1      44.644   2.791   8.679  0.00  0.00    +0.000 A 
ENDROOT
BRANCH   1   7
ATOM      7  C   UNL     1      45.954   3.186   6.511  0.00  0.00    +0.000 C 
BRANCH   7   8
ATOM      8  N   UNL     1      47.139   3.956   6.105  0.00  0.00    +0.000 NA
ATOM      9  H   UNL     1      46.974   4.944   6.322  0.00  0.00    +0.000 HD
ATOM     10  H   UNL     1      47.260   3.912   5.095  0.00  0.00    +0.000 HD
ENDBRANCH   7   8
BRANCH   7  11
ATOM     11  C   UNL     1      46.165   1.663   6.425  0.00  0.00    +0.000 C 
BRANCH  11  12
ATOM     12  C   UNL     1      47.441   1.213   7.102  0.00  0.00    +0.000 C 
ATOM     13  O   UNL     1      48.550   1.670   6.895  0.00  0.00    +0.000 OA
BRANCH  12  14
ATOM     14  O   UNL     1      47.229   0.231   8.009  0.00  0.00    +0.000 OA
ATOM     15  H   UNL     1      48.003   0.022   8.567  0.00  0.00    +0.000 HD
ENDBRANCH  12  14
ENDBRANCH  11  12
ENDBRANCH   7  11
ENDBRANCH   1   7
BRANCH   4  16
ATOM     16  C   UNL     1      44.338   4.700  11.950  0.00  0.00    +0.000 C 
BRANCH  16  17
ATOM     17  N   UNL     1      45.460   5.185  12.748  0.00  0.00    +0.000 N 
ATOM     18  C   UNL     1      46.378   4.371  13.371  0.00  0.00    +0.000 A 
ATOM     19  C   UNL     1      47.343   5.173  13.938  0.00  0.00    +0.000 A 
ATOM     20  C   UNL     1      47.026   6.520  13.629  0.00  0.00    +0.000 A 
ATOM     21  C   UNL     1      47.637   7.751  13.899  0.00  0.00    +0.000 A 
ATOM     22  N   UNL     1      47.105   8.908  13.434  0.00  0.00    +0.000 NA
ATOM     23  C   UNL     1      45.966   8.851  12.711  0.00  0.00    +0.000 A 
ATOM     24  C   UNL     1      45.274   7.690  12.404  0.00  0.00    +0.000 A 
ATOM     25  C   UNL     1      45.843   6.506  12.881  0.00  0.00    +0.000 A 
ENDBRANCH  16  17
ENDBRANCH   4  16
TORSDOF 7
ENDMDL
MODEL 5
REMARK VINA RESULT:    -6.553      1.195      1.507
REMARK INTER + INTRA:          -9.780
REMARK INTER:                  -8.942
REMARK INTRA:                  -0.838
REMARK UNBOUND:                -0.928
REMARK  Name = 
REMARK  7 active torsions:
REMARK  status: ('A' for Active; 'I' for Inactive)
REMARK    1  A    between atoms: N_1  and  C_2
REMARK    2  A    between atoms: C_2  and  C_3
REMARK    3  A    between atoms: C_2  and  C_7
REMARK    4  A    between atoms: C_3  and  C_4
REMARK    5  A    between atoms: C_4  and  O_6
REMARK    6  A    between atoms: C_10  and  C_11
REMARK    7  A    between atoms: C_11  and  N_12
REMARK                            x       y       z     vdW  Elec       q    Type
REMARK                         _______ _______ _______ _____ _____    ______ ____
ROOT
ATOM      1  C   UNL     1      45.278   3.729   9.170  0.00  0.00    +0.000 A 
ATOM      2  C   UNL     1      45.722   5.060   9.198  0.00  0.00    +0.000 A 
ATOM      3  C   UNL     1      45.552   5.852  10.343  0.00  0.00    +0.000 A 
ATOM      4  C   UNL     1      44.915   5.338  11.482  0.00  0.00    +0.000 A 
ATOM      5  C   UNL     1      44.458   4.016  11.451  0.00  0.00    +0.000 A 
ATOM      6  C   UNL     1      44.635   3.228  10.314  0.00  0.00    +0.000 A 
ENDROOT
BRANCH   1   7
ATOM      7  C   UNL     1      45.514   2.866   7.933  0.00  0.00    +0.000 C 
BRANCH   7   8
ATOM      8  N   UNL     1      46.242   3.624   6.906  0.00  0.00    +0.000 NA
ATOM      9  H   UNL     1      45.593   4.287   6.471  0.00  0.00    +0.000 HD
ATOM     10  H   UNL     1      46.545   3.004   6.157  0.00  0.00    +0.000 HD
ENDBRANCH   7   8
BRANCH   7  11
ATOM     11  C   UNL     1      46.206   1.543   8.311  0.00  0.00    +0.000 C 
BRANCH  11  12
ATOM     12  C   UNL     1      47.185   1.076   7.256  0.00  0.00    +0.000 C 
ATOM     13  O   UNL     1      48.220   1.640   6.952  0.00  0.00    +0.000 OA
BRANCH  12  14
ATOM     14  O   UNL     1      46.801  -0.081   6.668  0.00  0.00    +0.000 OA
ATOM     15  H   UNL     1      47.099  -0.183   5.743  0.00  0.00    +0.000 HD
ENDBRANCH  12  14
ENDBRANCH  11  12
ENDBRANCH   7  11
ENDBRANCH   1   7
BRANCH   4  16
ATOM     16  C   UNL     1      44.736   6.153  12.737  0.00  0.00    +0.000 C 
BRANCH  16  17
ATOM     17  N   UNL     1      45.554   7.362  12.744  0.00  0.00    +0.000 N 
ATOM     18  C   UNL     1      45.095   8.611  12.393  0.00  0.00    +0.000 A 
ATOM     19  C   UNL     1      46.107   9.517  12.619  0.00  0.00    +0.000 A 
ATOM     20  C   UNL     1      47.213   8.808  13.153  0.00  0.00    +0.000 A 
ATOM     21  C   UNL     1      48.487   9.183  13.599  0.00  0.00    +0.000 A 
ATOM     22  N   UNL     1      49.345   8.263  14.103  0.00  0.00    +0.000 NA
ATOM     23  C   UNL     1      48.951   6.973  14.161  0.00  0.00    +0.000 A 
ATOM     24  C   UNL     1      47.722   6.496  13.732  0.00  0.00    +0.000 A 
ATOM     25  C   UNL     1      46.845   7.459  13.225  0.00  0.00    +0.000 A 
ENDBRANCH  16  17
ENDBRANCH   4  16
TORSDOF 7
ENDMDL
MODEL 6
REMARK VINA RESULT:    -6.306      3.823      7.416
REMARK INTER + INTRA:          -9.446
REMARK INTER:                  -8.485
REMARK INTRA:                  -0.961
REMARK UNBOUND:                -0.928
REMARK  Name = 
REMARK  7 active torsions:
REMARK  status: ('A' for Active; 'I' for Inactive)
REMARK    1  A    between atoms: N_1  and  C_2
REMARK    2  A    between atoms: C_2  and  C_3
REMARK    3  A    between atoms: C_2  and  C_7
REMARK    4  A    between atoms: C_3  and  C_4
REMARK    5  A    between atoms: C_4  and  O_6
REMARK    6  A    between atoms: C_10  and  C_11
REMARK    7  A    between atoms: C_11  and  N_12
REMARK                            x       y       z     vdW  Elec       q    Type
REMARK                         _______ _______ _______ _____ _____    ______ ____
ROOT
ATOM      1  C   UNL     1      46.228   4.551  13.822  0.00  0.00    +0.000 A 
ATOM      2  C   UNL     1      45.543   5.546  13.108  0.00  0.00    +0.000 A 
ATOM      3  C   UNL     1      44.924   5.255  11.882  0.00  0.00    +0.000 A 
ATOM      4  C   UNL     1      44.993   3.967  11.332  0.00  0.00    +0.000 A 
ATOM      5  C   UNL     1      45.689   2.978  12.035  0.00  0.00    +0.000 A 
ATOM      6  C   UNL     1      46.297   3.267  13.257  0.00  0.00    +0.000 A 
ENDROOT
BRANCH   1   7
ATOM      7  C   UNL     1      46.854   4.872  15.177  0.00  0.00    +0.000 C 
BRANCH   7   8
ATOM      8  N   UNL     1      47.248   3.637  15.870  0.00  0.00    +0.000 NA
ATOM      9  H   UNL     1      48.211   3.409  15.604  0.00  0.00    +0.000 HD
ATOM     10  H   UNL     1      46.681   2.855  15.549  0.00  0.00    +0.000 HD
ENDBRANCH   7   8
BRANCH   7  11
ATOM     11  C   UNL     1      48.013   5.873  15.022  0.00  0.00    +0.000 C 
BRANCH  11  12
ATOM     12  C   UNL     1      48.811   6.042  16.297  0.00  0.00    +0.000 C 
ATOM     13  O   UNL     1      49.799   5.400  16.603  0.00  0.00    +0.000 OA
BRANCH  12  14
ATOM     14  O   UNL     1      48.320   7.022  17.091  0.00  0.00    +0.000 OA
ATOM     15  H   UNL     1      49.001   7.572  17.523  0.00  0.00    +0.000 HD
ENDBRANCH  12  14
ENDBRANCH  11  12
ENDBRANCH   7  11
ENDBRANCH   1   7
BRANCH   4  16
ATOM     16  C   UNL     1      44.322   3.614  10.030  0.00  0.00    +0.000 C 
BRANCH  16  17
ATOM     17  N   UNL     1      45.246   3.626   8.899  0.00  0.00    +0.000 N 
ATOM     18  C   UNL     1      45.772   4.767   8.339  0.00  0.00    +0.000 A 
ATOM     19  C   UNL     1      46.676   4.389   7.372  0.00  0.00    +0.000 A 
ATOM     20  C   UNL     1      46.730   2.972   7.356  0.00  0.00    +0.000 A 
ATOM     21  C   UNL     1      47.471   2.034   6.626  0.00  0.00    +0.000 A 
ATOM     22  N   UNL     1      47.330   0.706   6.857  0.00  0.00    +0.000 NA
ATOM     23  C   UNL     1      46.453   0.303   7.802  0.00  0.00    +0.000 A 
ATOM     24  C   UNL     1      45.661   1.147   8.566  0.00  0.00    +0.000 A 
ATOM     25  C   UNL     1      45.828   2.513   8.323  0.00  0.00    +0.000 A 
ENDBRANCH  16  17
ENDBRANCH   4  16
TORSDOF 7
ENDMDL
MODEL 7
REMARK VINA RESULT:    -6.230      3.593      7.157
REMARK INTER + INTRA:          -9.343
REMARK INTER:                  -8.286
REMARK INTRA:                  -1.057
REMARK UNBOUND:                -0.928
REMARK  Name = 
REMARK  7 active torsions:
REMARK  status: ('A' for Active; 'I' for Inactive)
REMARK    1  A    between atoms: N_1  and  C_2
REMARK    2  A    between atoms: C_2  and  C_3
REMARK    3  A    between atoms: C_2  and  C_7
REMARK    4  A    between atoms: C_3  and  C_4
REMARK    5  A    between atoms: C_4  and  O_6
REMARK    6  A    between atoms: C_10  and  C_11
REMARK    7  A    between atoms: C_11  and  N_12
REMARK                            x       y       z     vdW  Elec       q    Type
REMARK                         _______ _______ _______ _____ _____    ______ ____
ROOT
ATOM      1  C   UNL     1      46.826   7.878  13.014  0.00  0.00    +0.000 A 
ATOM      2  C   UNL     1      45.864   8.598  12.290  0.00  0.00    +0.000 A 
ATOM      3  C   UNL     1      44.814   7.938  11.634  0.00  0.00    +0.000 A 
ATOM      4  C   UNL     1      44.713   6.540  11.668  0.00  0.00    +0.000 A 
ATOM      5  C   UNL     1      45.680   5.819  12.375  0.00  0.00    +0.000 A 
ATOM      6  C   UNL     1      46.719   6.477  13.035  0.00  0.00    +0.000 A 
ENDROOT
BRANCH   1   7
ATOM      7  C   UNL     1      47.934   8.614  13.763  0.00  0.00    +0.000 C 
BRANCH   7   8
ATOM      8  N   UNL     1      47.522   8.898  15.146  0.00  0.00    +0.000 NA
ATOM      9  H   UNL     1      48.219   9.518  15.570  0.00  0.00    +0.000 HD
ATOM     10  H   UNL     1      47.538   8.046  15.701  0.00  0.00    +0.000 HD
ENDBRANCH   7   8
BRANCH   7  11
ATOM     11  C   UNL     1      49.263   7.842  13.675  0.00  0.00    +0.000 C 
BRANCH  11  12
ATOM     12  C   UNL     1      49.717   7.311  15.017  0.00  0.00    +0.000 C 
ATOM     13  O   UNL     1      49.368   6.257  15.517  0.00  0.00    +0.000 OA
BRANCH  12  14
ATOM     14  O   UNL     1      50.598   8.137  15.631  0.00  0.00    +0.000 OA
ATOM     15  H   UNL     1      50.186   8.821  16.193  0.00  0.00    +0.000 HD
ENDBRANCH  12  14
ENDBRANCH  11  12
ENDBRANCH   7  11
ENDBRANCH   1   7
BRANCH   4  16
ATOM     16  C   UNL     1      43.587   5.801  10.992  0.00  0.00    +0.000 C 
BRANCH  16  17
ATOM     17  N   UNL     1      43.900   4.394  10.755  0.00  0.00    +0.000 N 
ATOM     18  C   UNL     1      43.340   3.347  11.450  0.00  0.00    +0.000 A 
ATOM     19  C   UNL     1      43.789   2.173  10.887  0.00  0.00    +0.000 A 
ATOM     20  C   UNL     1      44.628   2.509   9.794  0.00  0.00    +0.000 A 
ATOM     21  C   UNL     1      45.334   1.760   8.843  0.00  0.00    +0.000 A 
ATOM     22  N   UNL     1      46.046   2.373   7.867  0.00  0.00    +0.000 NA
ATOM     23  C   UNL     1      46.069   3.723   7.832  0.00  0.00    +0.000 A 
ATOM     24  C   UNL     1      45.421   4.554   8.733  0.00  0.00    +0.000 A 
ATOM     25  C   UNL     1      44.682   3.906   9.726  0.00  0.00    +0.000 A 
ENDBRANCH  16  17
ENDBRANCH   4  16
TORSDOF 7
ENDMDL
MODEL 8
REMARK VINA RESULT:    -6.176      3.217      6.963
REMARK INTER + INTRA:          -9.271
REMARK INTER:                  -8.210
REMARK INTRA:                  -1.061
REMARK UNBOUND:                -0.928
REMARK  Name = 
REMARK  7 active torsions:
REMARK  status: ('A' for Active; 'I' for Inactive)
REMARK    1  A    between atoms: N_1  and  C_2
REMARK    2  A    between atoms: C_2  and  C_3
REMARK    3  A    between atoms: C_2  and  C_7
REMARK    4  A    between atoms: C_3  and  C_4
REMARK    5  A    between atoms: C_4  and  O_6
REMARK    6  A    between atoms: C_10  and  C_11
REMARK    7  A    between atoms: C_11  and  N_12
REMARK                            x       y       z     vdW  Elec       q    Type
REMARK                         _______ _______ _______ _____ _____    ______ ____
ROOT
ATOM      1  C   UNL     1      47.670   7.475  13.734  0.00  0.00    +0.000 A 
ATOM      2  C   UNL     1      47.372   6.115  13.565  0.00  0.00    +0.000 A 
ATOM      3  C   UNL     1      46.212   5.711  12.886  0.00  0.00    +0.000 A 
ATOM      4  C   UNL     1      45.313   6.659  12.376  0.00  0.00    +0.000 A 
ATOM      5  C   UNL     1      45.601   8.015  12.557  0.00  0.00    +0.000 A 
ATOM      6  C   UNL     1      46.758   8.415  13.226  0.00  0.00    +0.000 A 
ENDROOT
BRANCH   1   7
ATOM      7  C   UNL     1      48.960   7.898  14.433  0.00  0.00    +0.000 C 
BRANCH   7   8
ATOM      8  N   UNL     1      49.769   6.721  14.780  0.00  0.00    +0.000 NA
ATOM      9  H   UNL     1      50.745   7.018  14.883  0.00  0.00    +0.000 HD
ATOM     10  H   UNL     1      49.765   6.051  14.014  0.00  0.00    +0.000 HD
ENDBRANCH   7   8
BRANCH   7  11
ATOM     11  C   UNL     1      49.728   8.932  13.589  0.00  0.00    +0.000 C 
BRANCH  11  12
ATOM     12  C   UNL     1      50.923   8.332  12.881  0.00  0.00    +0.000 C 
ATOM     13  O   UNL     1      52.089   8.569  13.137  0.00  0.00    +0.000 OA
BRANCH  12  14
ATOM     14  O   UNL     1      50.566   7.458  11.910  0.00  0.00    +0.000 OA
ATOM     15  H   UNL     1      51.046   7.571  11.068  0.00  0.00    +0.000 HD
ENDBRANCH  12  14
ENDBRANCH  11  12
ENDBRANCH   7  11
ENDBRANCH   1   7
BRANCH   4  16
ATOM     16  C   UNL     1      44.070   6.260  11.622  0.00  0.00    +0.000 C 
BRANCH  16  17
ATOM     17  N   UNL     1      44.037   4.835  11.306  0.00  0.00    +0.000 N 
ATOM     18  C   UNL     1      43.314   3.901  12.012  0.00  0.00    +0.000 A 
ATOM     19  C   UNL     1      43.439   2.690  11.368  0.00  0.00    +0.000 A 
ATOM     20  C   UNL     1      44.238   2.892  10.214  0.00  0.00    +0.000 A 
ATOM     21  C   UNL     1      44.675   2.060   9.175  0.00  0.00    +0.000 A 
ATOM     22  N   UNL     1      45.424   2.554   8.159  0.00  0.00    +0.000 NA
ATOM     23  C   UNL     1      45.748   3.864   8.171  0.00  0.00    +0.000 A 
ATOM     24  C   UNL     1      45.381   4.766   9.158  0.00  0.00    +0.000 A 
ATOM     25  C   UNL     1      44.600   4.244  10.192  0.00  0.00    +0.000 A 
ENDBRANCH  16  17
ENDBRANCH   4  16
TORSDOF 7
ENDMDL
MODEL 9
REMARK VINA RESULT:    -5.942      2.968      4.299
REMARK INTER + INTRA:          -8.954
REMARK INTER:                  -7.887
REMARK INTRA:                  -1.067
REMARK UNBOUND:                -0.928
REMARK  Name = 
REMARK  7 active torsions:
REMARK  status: ('A' for Active; 'I' for Inactive)
REMARK    1  A    between atoms: N_1  and  C_2
REMARK    2  A    between atoms: C_2  and  C_3
REMARK    3  A    between atoms: C_2  and  C_7
REMARK    4  A    between atoms: C_3  and  C_4
REMARK    5  A    between atoms: C_4  and  O_6
REMARK    6  A    between atoms: C_10  and  C_11
REMARK    7  A    between atoms: C_11  and  N_12
REMARK                            x       y       z     vdW  Elec       q    Type
REMARK                         _______ _______ _______ _____ _____    ______ ____
ROOT
ATOM      1  C   UNL     1      44.552   5.792  12.443  0.00  0.00    +0.000 A 
ATOM      2  C   UNL     1      45.148   6.980  11.993  0.00  0.00    +0.000 A 
ATOM      3  C   UNL     1      46.461   7.312  12.362  0.00  0.00    +0.000 A 
ATOM      4  C   UNL     1      47.201   6.473  13.207  0.00  0.00    +0.000 A 
ATOM      5  C   UNL     1      46.604   5.296  13.669  0.00  0.00    +0.000 A 
ATOM      6  C   UNL     1      45.302   4.964  13.294  0.00  0.00    +0.000 A 
ENDROOT
BRANCH   1   7
ATOM      7  C   UNL     1      43.141   5.423  11.993  0.00  0.00    +0.000 C 
BRANCH   7   8
ATOM      8  N   UNL     1      42.593   6.460  11.107  0.00  0.00    +0.000 NA
ATOM      9  H   UNL     1      42.781   6.189  10.136  0.00  0.00    +0.000 HD
ATOM     10  H   UNL     1      43.083   7.340  11.247  0.00  0.00    +0.000 HD
ENDBRANCH   7   8
BRANCH   7  11
ATOM     11  C   UNL     1      43.116   4.017  11.365  0.00  0.00    +0.000 C 
BRANCH  11  12
ATOM     12  C   UNL     1      44.028   3.901  10.164  0.00  0.00    +0.000 C 
ATOM     13  O   UNL     1      45.002   3.174  10.083  0.00  0.00    +0.000 OA
BRANCH  12  14
ATOM     14  O   UNL     1      43.639   4.693   9.138  0.00  0.00    +0.000 OA
ATOM     15  H   UNL     1      42.690   4.921   9.140  0.00  0.00    +0.000 HD
ENDBRANCH  12  14
ENDBRANCH  11  12
ENDBRANCH   7  11
ENDBRANCH   1   7
BRANCH   4  16
ATOM     16  C   UNL     1      48.621   6.787  13.605  0.00  0.00    +0.000 C 
BRANCH  16  17
ATOM     17  N   UNL     1      48.701   7.550  14.847  0.00  0.00    +0.000 N 
ATOM     18  C   UNL     1      48.569   8.918  14.926  0.00  0.00    +0.000 A 
ATOM     19  C   UNL     1      48.596   9.272  16.257  0.00  0.00    +0.000 A 
ATOM     20  C   UNL     1      48.718   8.083  17.021  0.00  0.00    +0.000 A 
ATOM     21  C   UNL     1      48.765   7.809  18.394  0.00  0.00    +0.000 A 
ATOM     22  N   UNL     1      48.855   6.534  18.844  0.00  0.00    +0.000 NA
ATOM     23  C   UNL     1      48.907   5.531  17.942  0.00  0.00    +0.000 A 
ATOM     24  C   UNL     1      48.885   5.696  16.565  0.00  0.00    +0.000 A 
ATOM     25  C   UNL     1      48.780   7.015  16.118  0.00  0.00    +0.000 A 
ENDBRANCH  16  17
ENDBRANCH   4  16
TORSDOF 7
ENDMDL
