MODEL 1
REMARK VINA RESULT:    -7.737      0.000      0.000
REMARK INTER + INTRA:         -12.132
REMARK INTER:                 -10.903
REMARK INTRA:                  -1.229
REMARK UNBOUND:                -1.229
REMARK  Name = 
REMARK  7 active torsions:
REMARK  status: ('A' for Active; 'I' for Inactive)
REMARK    1  A    between atoms: C_2  and  C_3
REMARK    2  A    between atoms: C_3  and  N_4
REMARK    3  A    between atoms: C_3  and  C_17
REMARK    4  A    between atoms: C_5  and  C_7
REMARK    5  A    between atoms: C_20  and  C_21
REMARK    6  A    between atoms: C_21  and  N_22
REMARK    7  A    between atoms: C_23  and  C_25
REMARK                            x       y       z     vdW  Elec       q    Type
REMARK                         _______ _______ _______ _____ _____    ______ ____
ROOT
ATOM      1  C   UNL     1      47.734   4.785  15.408  0.00  0.00    +0.000 C 
ENDROOT
BRANCH   1   2
ATOM      2  C   UNL     1      46.901   4.787  14.129  0.00  0.00    +0.000 A 
ATOM      3  C   UNL     1      46.404   3.573  13.623  0.00  0.00    +0.000 A 
ATOM      4  C   UNL     1      45.638   3.539  12.451  0.00  0.00    +0.000 A 
ATOM      5  C   UNL     1      45.367   4.716  11.744  0.00  0.00    +0.000 A 
ATOM      6  C   UNL     1      45.872   5.926  12.234  0.00  0.00    +0.000 A 
ATOM      7  C   UNL     1      46.643   5.960  13.401  0.00  0.00    +0.000 A 
BRANCH   5   8
ATOM      8  C   UNL     1      44.549   4.690  10.478  0.00  0.00    +0.000 C 
BRANCH   8   9
ATOM      9  N   UNL     1      45.333   4.362   9.320  0.00  0.00    +0.000 N 
ATOM     10  C   UNL     1      45.381   3.076   8.830  0.00  0.00    +0.000 C 
ATOM     11  O   UNL     1      44.781   2.137   9.346  0.00  0.00    +0.000 OA
ATOM     12  H   UNL     1      45.835   5.071   8.792  0.00  0.00    +0.000 HD
BRANCH  10  13
ATOM     13  C   UNL     1      46.217   2.922   7.629  0.00  0.00    +0.000 A 
ATOM     14  C   UNL     1      46.969   1.775   7.256  0.00  0.00    +0.000 A 
ATOM     15  C   UNL     1      47.587   2.108   6.075  0.00  0.00    +0.000 A 
ATOM     16  N   UNL     1      47.201   3.385   5.802  0.00  0.00    +0.000 N 
ATOM     17  N   UNL     1      46.361   3.907   6.716  0.00  0.00    +0.000 NA
ATOM     18  H   UNL     1      47.471   3.964   5.013  0.00  0.00    +0.000 HD
ENDBRANCH  10  13
ENDBRANCH   8   9
ENDBRANCH   5   8
ENDBRANCH   1   2
BRANCH   1  19
ATOM     19  N   UNL     1      47.905   6.154  15.866  0.00  0.00    +0.000 N 
ATOM     20  C   UNL     1      49.131   6.616  16.270  0.00  0.00    +0.000 C 
ATOM     21  O   UNL     1      50.148   5.938  16.151  0.00  0.00    +0.000 OA
ATOM     22  H   UNL     1      47.067   6.641  16.165  0.00  0.00    +0.000 HD
BRANCH  20  23
ATOM     23  C   UNL     1      49.177   7.986  16.786  0.00  0.00    +0.000 A 
ATOM     24  C   UNL     1      49.925   8.950  16.124  0.00  0.00    +0.000 A 
ATOM     25  S   UNL     1      49.847  10.492  16.850  0.00  0.00    +0.000 S 
ATOM     26  C   UNL     1      48.858   9.911  18.107  0.00  0.00    +0.000 A 
ATOM     27  N   UNL     1      48.451  10.728  19.115  0.00  0.00    +0.000 NA
ATOM     28  C   UNL     1      47.750  10.141  20.027  0.00  0.00    +0.000 A 
ATOM     29  N   UNL     1      47.403   8.814  20.013  0.00  0.00    +0.000 N 
ATOM     30  C   UNL     1      47.729   7.969  18.980  0.00  0.00    +0.000 A 
ATOM     31  O   UNL     1      47.310   6.817  18.930  0.00  0.00    +0.000 OA
ATOM     32  C   UNL     1      48.562   8.568  17.956  0.00  0.00    +0.000 A 
ATOM     33  H   UNL     1      46.827   8.426  20.747  0.00  0.00    +0.000 HD
ENDBRANCH  20  23
ENDBRANCH   1  19
BRANCH   1  35
ATOM     34  N   UNL     1      46.750   3.261  17.340  0.00  0.00    +0.000 NA
ATOM     35  C   UNL     1      47.172   3.925  16.480  0.00  0.00    +0.000 C 
ENDBRANCH   1  35
TORSDOF 7
ENDMDL
MODEL 2
REMARK VINA RESULT:    -7.677      2.743      3.896
REMARK INTER + INTRA:         -12.047
REMARK INTER:                 -11.660
REMARK INTRA:                  -0.387
REMARK UNBOUND:                -1.229
REMARK  Name = 
REMARK  7 active torsions:
REMARK  status: ('A' for Active; 'I' for Inactive)
REMARK    1  A    between atoms: C_2  and  C_3
REMARK    2  A    between atoms: C_3  and  N_4
REMARK    3  A    between atoms: C_3  and  C_17
REMARK    4  A    between atoms: C_5  and  C_7
REMARK    5  A    between atoms: C_20  and  C_21
REMARK    6  A    between atoms: C_21  and  N_22
REMARK    7  A    between atoms: C_23  and  C_25
REMARK                            x       y       z     vdW  Elec       q    Type
REMARK                         _______ _______ _______ _____ _____    ______ ____
ROOT
ATOM      1  C   UNL     1      46.999   8.298  13.277  0.00  0.00    +0.000 C 
ENDROOT
BRANCH   1   2
ATOM      2  C   UNL     1      46.227   7.199  12.551  0.00  0.00    +0.000 A 
ATOM      3  C   UNL     1      45.174   6.540  13.211  0.00  0.00    +0.000 A 
ATOM      4  C   UNL     1      44.447   5.525  12.576  0.00  0.00    +0.000 A 
ATOM      5  C   UNL     1      44.767   5.130  11.272  0.00  0.00    +0.000 A 
ATOM      6  C   UNL     1      45.824   5.771  10.616  0.00  0.00    +0.000 A 
ATOM      7  C   UNL     1      46.556   6.780  11.252  0.00  0.00    +0.000 A 
BRANCH   5   8
ATOM      8  C   UNL     1      43.995   4.036  10.582  0.00  0.00    +0.000 C 
BRANCH   8   9
ATOM      9  N   UNL     1      44.847   3.115   9.882  0.00  0.00    +0.000 N 
ATOM     10  C   UNL     1      45.086   3.248   8.532  0.00  0.00    +0.000 C 
ATOM     11  O   UNL     1      44.587   4.135   7.845  0.00  0.00    +0.000 OA
ATOM     12  H   UNL     1      45.343   2.370  10.362  0.00  0.00    +0.000 HD
BRANCH  10  13
ATOM     13  C   UNL     1      45.996   2.230   7.980  0.00  0.00    +0.000 A 
ATOM     14  C   UNL     1      47.033   2.440   7.032  0.00  0.00    +0.000 A 
ATOM     15  C   UNL     1      47.594   1.204   6.821  0.00  0.00    +0.000 A 
ATOM     16  N   UNL     1      46.898   0.341   7.613  0.00  0.00    +0.000 N 
ATOM     17  N   UNL     1      45.929   0.931   8.339  0.00  0.00    +0.000 NA
ATOM     18  H   UNL     1      47.027  -0.661   7.708  0.00  0.00    +0.000 HD
ENDBRANCH  10  13
ENDBRANCH   8   9
ENDBRANCH   5   8
ENDBRANCH   1   2
BRANCH   1  19
ATOM     19  N   UNL     1      47.497   7.775  14.538  0.00  0.00    +0.000 N 
ATOM     20  C   UNL     1      48.427   6.768  14.568  0.00  0.00    +0.000 C 
ATOM     21  O   UNL     1      48.961   6.353  13.544  0.00  0.00    +0.000 OA
ATOM     22  H   UNL     1      46.927   7.950  15.359  0.00  0.00    +0.000 HD
BRANCH  20  23
ATOM     23  C   UNL     1      48.802   6.262  15.890  0.00  0.00    +0.000 A 
ATOM     24  C   UNL     1      49.747   6.939  16.648  0.00  0.00    +0.000 A 
ATOM     25  S   UNL     1      50.045   6.223  18.167  0.00  0.00    +0.000 S 
ATOM     26  C   UNL     1      48.965   4.949  17.840  0.00  0.00    +0.000 A 
ATOM     27  N   UNL     1      48.777   3.942  18.733  0.00  0.00    +0.000 NA
ATOM     28  C   UNL     1      47.970   3.017  18.331  0.00  0.00    +0.000 A 
ATOM     29  N   UNL     1      47.319   3.017  17.123  0.00  0.00    +0.000 N 
ATOM     30  C   UNL     1      47.422   4.049  16.222  0.00  0.00    +0.000 A 
ATOM     31  O   UNL     1      46.742   4.087  15.201  0.00  0.00    +0.000 OA
ATOM     32  C   UNL     1      48.359   5.088  16.604  0.00  0.00    +0.000 A 
ATOM     33  H   UNL     1      46.678   2.274  16.884  0.00  0.00    +0.000 HD
ENDBRANCH  20  23
ENDBRANCH   1  19
BRANCH   1  35
ATOM     34  N   UNL     1      48.969   9.318  11.828  0.00  0.00    +0.000 NA
ATOM     35  C   UNL     1      48.096   8.884  12.466  0.00  0.00    +0.000 C 
ENDBRANCH   1  35
TORSDOF 7
ENDMDL
MODEL 3
REMARK VINA RESULT:    -7.312      2.866      4.295
REMARK INTER + INTRA:         -11.533
REMARK INTER:                 -10.375
REMARK INTRA:                  -1.158
REMARK UNBOUND:                -1.229
REMARK  Name = 
REMARK  7 active torsions:
REMARK  status: ('A' for Active; 'I' for Inactive)
REMARK    1  A    between atoms: C_2  and  C_3
REMARK    2  A    between atoms: C_3  and  N_4
REMARK    3  A    between atoms: C_3  and  C_17
REMARK    4  A    between atoms: C_5  and  C_7
REMARK    5  A    between atoms: C_20  and  C_21
REMARK    6  A    between atoms: C_21  and  N_22
REMARK    7  A    between atoms: C_23  and  C_25
REMARK                            x       y       z     vdW  Elec       q    Type
REMARK                         _______ _______ _______ _____ _____    ______ ____
ROOT
ATOM      1  C   UNL     1      48.046   7.004  14.556  0.00  0.00    +0.000 C 
ENDROOT
BRANCH   1   2
ATOM      2  C   UNL     1      47.111   6.116  13.736  0.00  0.00    +0.000 A 
ATOM      3  C   UNL     1      47.076   4.733  13.983  0.00  0.00    +0.000 A 
ATOM      4  C   UNL     1      46.233   3.890  13.248  0.00  0.00    +0.000 A 
ATOM      5  C   UNL     1      45.418   4.406  12.234  0.00  0.00    +0.000 A 
ATOM      6  C   UNL     1      45.460   5.781  11.973  0.00  0.00    +0.000 A 
ATOM      7  C   UNL     1      46.308   6.623  12.702  0.00  0.00    +0.000 A 
BRANCH   5   8
ATOM      8  C   UNL     1      44.512   3.508  11.433  0.00  0.00    +0.000 C 
BRANCH   8   9
ATOM      9  N   UNL     1      45.219   2.765  10.426  0.00  0.00    +0.000 N 
ATOM     10  C   UNL     1      45.252   3.192   9.117  0.00  0.00    +0.000 C 
ATOM     11  O   UNL     1      44.681   4.205   8.725  0.00  0.00    +0.000 OA
ATOM     12  H   UNL     1      45.760   1.935  10.651  0.00  0.00    +0.000 HD
BRANCH  10  13
ATOM     13  C   UNL     1      46.035   2.323   8.223  0.00  0.00    +0.000 A 
ATOM     14  C   UNL     1      46.812   2.730   7.105  0.00  0.00    +0.000 A 
ATOM     15  C   UNL     1      47.343   1.575   6.586  0.00  0.00    +0.000 A 
ATOM     16  N   UNL     1      46.880   0.566   7.375  0.00  0.00    +0.000 N 
ATOM     17  N   UNL     1      46.094   0.984   8.385  0.00  0.00    +0.000 NA
ATOM     18  H   UNL     1      47.058  -0.429   7.285  0.00  0.00    +0.000 HD
ENDBRANCH  10  13
ENDBRANCH   8   9
ENDBRANCH   5   8
ENDBRANCH   1   2
BRANCH   1  19
ATOM     19  N   UNL     1      49.034   6.169  15.218  0.00  0.00    +0.000 N 
ATOM     20  C   UNL     1      49.249   6.266  16.568  0.00  0.00    +0.000 C 
ATOM     21  O   UNL     1      48.542   6.967  17.286  0.00  0.00    +0.000 OA
ATOM     22  H   UNL     1      49.750   5.758  14.629  0.00  0.00    +0.000 HD
BRANCH  20  23
ATOM     23  C   UNL     1      50.321   5.436  17.122  0.00  0.00    +0.000 A 
ATOM     24  C   UNL     1      51.464   6.033  17.637  0.00  0.00    +0.000 A 
ATOM     25  S   UNL     1      52.596   4.918  18.259  0.00  0.00    +0.000 S 
ATOM     26  C   UNL     1      51.624   3.596  17.809  0.00  0.00    +0.000 A 
ATOM     27  N   UNL     1      52.035   2.318  18.022  0.00  0.00    +0.000 NA
ATOM     28  C   UNL     1      51.223   1.416  17.583  0.00  0.00    +0.000 A 
ATOM     29  N   UNL     1      50.025   1.676  16.966  0.00  0.00    +0.000 N 
ATOM     30  C   UNL     1      49.536   2.948  16.795  0.00  0.00    +0.000 A 
ATOM     31  O   UNL     1      48.412   3.154  16.348  0.00  0.00    +0.000 OA
ATOM     32  C   UNL     1      50.437   4.000  17.225  0.00  0.00    +0.000 A 
ATOM     33  H   UNL     1      49.423   0.920  16.672  0.00  0.00    +0.000 HD
ENDBRANCH  20  23
ENDBRANCH   1  19
BRANCH   1  35
ATOM     34  N   UNL     1      49.180   8.934  13.139  0.00  0.00    +0.000 NA
ATOM     35  C   UNL     1      48.694   8.076  13.759  0.00  0.00    +0.000 C 
ENDBRANCH   1  35
TORSDOF 7
ENDMDL
MODEL 4
REMARK VINA RESULT:    -7.018      2.779      3.930
REMARK INTER + INTRA:         -11.119
REMARK INTER:                 -10.129
REMARK INTRA:                  -0.990
REMARK UNBOUND:                -1.229
REMARK  Name = 
REMARK  7 active torsions:
REMARK  status: ('A' for Active; 'I' for Inactive)
REMARK    1  A    between atoms: C_2  and  C_3
REMARK    2  A    between atoms: C_3  and  N_4
REMARK    3  A    between atoms: C_3  and  C_17
REMARK    4  A    between atoms: C_5  and  C_7
REMARK    5  A    between atoms: C_20  and  C_21
REMARK    6  A    between atoms: C_21  and  N_22
REMARK    7  A    between atoms: C_23  and  C_25
REMARK                            x       y       z     vdW  Elec       q    Type
REMARK                         _______ _______ _______ _____ _____    ______ ____
ROOT
ATOM      1  C   UNL     1      47.893   7.300  14.021  0.00  0.00    +0.000 C 
ENDROOT
BRANCH   1   2
ATOM      2  C   UNL     1      46.958   6.449  13.163  0.00  0.00    +0.000 A 
ATOM      3  C   UNL     1      46.540   6.928  11.909  0.00  0.00    +0.000 A 
ATOM      4  C   UNL     1      45.681   6.174  11.100  0.00  0.00    +0.000 A 
ATOM      5  C   UNL     1      45.203   4.931  11.531  0.00  0.00    +0.000 A 
ATOM      6  C   UNL     1      45.604   4.456  12.785  0.00  0.00    +0.000 A 
ATOM      7  C   UNL     1      46.456   5.212  13.599  0.00  0.00    +0.000 A 
BRANCH   5   8
ATOM      8  C   UNL     1      44.275   4.115  10.670  0.00  0.00    +0.000 C 
BRANCH   8   9
ATOM      9  N   UNL     1      44.969   3.131   9.887  0.00  0.00    +0.000 N 
ATOM     10  C   UNL     1      45.436   3.422   8.624  0.00  0.00    +0.000 C 
ATOM     11  O   UNL     1      45.281   4.514   8.086  0.00  0.00    +0.000 OA
ATOM     12  H   UNL     1      45.187   2.208  10.254  0.00  0.00    +0.000 HD
BRANCH  10  13
ATOM     13  C   UNL     1      46.138   2.305   7.972  0.00  0.00    +0.000 A 
ATOM     14  C   UNL     1      47.025   2.387   6.865  0.00  0.00    +0.000 A 
ATOM     15  C   UNL     1      47.419   1.096   6.612  0.00  0.00    +0.000 A 
ATOM     16  N   UNL     1      46.776   0.325   7.533  0.00  0.00    +0.000 N 
ATOM     17  N   UNL     1      46.001   1.026   8.382  0.00  0.00    +0.000 NA
ATOM     18  H   UNL     1      46.818  -0.683   7.642  0.00  0.00    +0.000 HD
ENDBRANCH  10  13
ENDBRANCH   8   9
ENDBRANCH   5   8
ENDBRANCH   1   2
BRANCH   1  19
ATOM     19  N   UNL     1      48.323   6.521  15.170  0.00  0.00    +0.000 N 
ATOM     20  C   UNL     1      48.671   7.131  16.347  0.00  0.00    +0.000 C 
ATOM     21  O   UNL     1      48.520   8.337  16.518  0.00  0.00    +0.000 OA
ATOM     22  H   UNL     1      48.650   5.579  14.983  0.00  0.00    +0.000 HD
BRANCH  20  23
ATOM     23  C   UNL     1      49.165   6.260  17.416  0.00  0.00    +0.000 A 
ATOM     24  C   UNL     1      48.290   5.788  18.385  0.00  0.00    +0.000 A 
ATOM     25  S   UNL     1      49.030   4.771  19.536  0.00  0.00    +0.000 S 
ATOM     26  C   UNL     1      50.558   4.973  18.814  0.00  0.00    +0.000 A 
ATOM     27  N   UNL     1      51.666   4.388  19.341  0.00  0.00    +0.000 NA
ATOM     28  C   UNL     1      52.763   4.669  18.721  0.00  0.00    +0.000 A 
ATOM     29  N   UNL     1      52.850   5.468  17.609  0.00  0.00    +0.000 N 
ATOM     30  C   UNL     1      51.749   6.019  16.999  0.00  0.00    +0.000 A 
ATOM     31  O   UNL     1      51.836   6.632  15.940  0.00  0.00    +0.000 OA
ATOM     32  C   UNL     1      50.497   5.776  17.689  0.00  0.00    +0.000 A 
ATOM     33  H   UNL     1      53.740   5.624  17.156  0.00  0.00    +0.000 HD
ENDBRANCH  20  23
ENDBRANCH   1  19
BRANCH   1  35
ATOM     34  N   UNL     1      49.982   8.266  12.708  0.00  0.00    +0.000 NA
ATOM     35  C   UNL     1      49.054   7.841  13.271  0.00  0.00    +0.000 C 
ENDBRANCH   1  35
TORSDOF 7
ENDMDL
MODEL 5
REMARK VINA RESULT:    -6.591      1.900      2.774
REMARK INTER + INTRA:         -10.517
REMARK INTER:                  -9.338
REMARK INTRA:                  -1.180
REMARK UNBOUND:                -1.229
REMARK  Name = 
REMARK  7 active torsions:
REMARK  status: ('A' for Active; 'I' for Inactive)
REMARK    1  A    between atoms: C_2  and  C_3
REMARK    2  A    between atoms: C_3  and  N_4
REMARK    3  A    between atoms: C_3  and  C_17
REMARK    4  A    between atoms: C_5  and  C_7
REMARK    5  A    between atoms: C_20  and  C_21
REMARK    6  A    between atoms: C_21  and  N_22
REMARK    7  A    between atoms: C_23  and  C_25
REMARK                            x       y       z     vdW  Elec       q    Type
REMARK                         _______ _______ _______ _____ _____    ______ ____
ROOT
ATOM      1  C   UNL     1      48.012   5.102  15.592  0.00  0.00    +0.000 C 
ENDROOT
BRANCH   1   2
ATOM      2  C   UNL     1      47.146   4.955  14.343  0.00  0.00    +0.000 A 
ATOM      3  C   UNL     1      46.702   3.680  13.953  0.00  0.00    +0.000 A 
ATOM      4  C   UNL     1      45.908   3.510  12.812  0.00  0.00    +0.000 A 
ATOM      5  C   UNL     1      45.554   4.609  12.021  0.00  0.00    +0.000 A 
ATOM      6  C   UNL     1      46.006   5.880  12.395  0.00  0.00    +0.000 A 
ATOM      7  C   UNL     1      46.806   6.049  13.531  0.00  0.00    +0.000 A 
BRANCH   5   8
ATOM      8  C   UNL     1      44.706   4.437  10.788  0.00  0.00    +0.000 C 
BRANCH   8   9
ATOM      9  N   UNL     1      45.486   4.161   9.613  0.00  0.00    +0.000 N 
ATOM     10  C   UNL     1      45.225   3.064   8.823  0.00  0.00    +0.000 C 
ATOM     11  O   UNL     1      44.336   2.254   9.070  0.00  0.00    +0.000 OA
ATOM     12  H   UNL     1      46.219   4.790   9.295  0.00  0.00    +0.000 HD
BRANCH  10  13
ATOM     13  C   UNL     1      46.108   2.944   7.652  0.00  0.00    +0.000 A 
ATOM     14  C   UNL     1      46.823   1.787   7.240  0.00  0.00    +0.000 A 
ATOM     15  C   UNL     1      47.509   2.161   6.111  0.00  0.00    +0.000 A 
ATOM     16  N   UNL     1      47.197   3.470   5.904  0.00  0.00    +0.000 N 
ATOM     17  N   UNL     1      46.340   3.975   6.812  0.00  0.00    +0.000 NA
ATOM     18  H   UNL     1      47.529   4.083   5.166  0.00  0.00    +0.000 HD
ENDBRANCH  10  13
ENDBRANCH   8   9
ENDBRANCH   5   8
ENDBRANCH   1   2
BRANCH   1  19
ATOM     19  N   UNL     1      48.526   6.460  15.657  0.00  0.00    +0.000 N 
ATOM     20  C   UNL     1      49.808   6.711  16.070  0.00  0.00    +0.000 C 
ATOM     21  O   UNL     1      50.607   5.804  16.284  0.00  0.00    +0.000 OA
ATOM     22  H   UNL     1      47.838   7.204  15.691  0.00  0.00    +0.000 HD
BRANCH  20  23
ATOM     23  C   UNL     1      50.199   8.119  16.173  0.00  0.00    +0.000 A 
ATOM     24  C   UNL     1      50.504   8.664  17.414  0.00  0.00    +0.000 A 
ATOM     25  S   UNL     1      50.960  10.306  17.345  0.00  0.00    +0.000 S 
ATOM     26  C   UNL     1      50.709  10.362  15.663  0.00  0.00    +0.000 A 
ATOM     27  N   UNL     1      50.885  11.516  14.966  0.00  0.00    +0.000 NA
ATOM     28  C   UNL     1      50.608  11.426  13.708  0.00  0.00    +0.000 A 
ATOM     29  N   UNL     1      50.190  10.281  13.079  0.00  0.00    +0.000 N 
ATOM     30  C   UNL     1      50.069   9.076  13.728  0.00  0.00    +0.000 A 
ATOM     31  O   UNL     1      49.808   8.039  13.126  0.00  0.00    +0.000 OA
ATOM     32  C   UNL     1      50.318   9.136  15.156  0.00  0.00    +0.000 A 
ATOM     33  H   UNL     1      50.018  10.274  12.083  0.00  0.00    +0.000 HD
ENDBRANCH  20  23
ENDBRANCH   1  19
BRANCH   1  35
ATOM     34  N   UNL     1      46.775   4.460  17.846  0.00  0.00    +0.000 NA
ATOM     35  C   UNL     1      47.311   4.731  16.846  0.00  0.00    +0.000 C 
ENDBRANCH   1  35
TORSDOF 7
ENDMDL
MODEL 6
REMARK VINA RESULT:    -6.570      2.320      3.744
REMARK INTER + INTRA:         -10.488
REMARK INTER:                  -9.286
REMARK INTRA:                  -1.202
REMARK UNBOUND:                -1.229
REMARK  Name = 
REMARK  7 active torsions:
REMARK  status: ('A' for Active; 'I' for Inactive)
REMARK    1  A    between atoms: C_2  and  C_3
REMARK    2  A    between atoms: C_3  and  N_4
REMARK    3  A    between atoms: C_3  and  C_17
REMARK    4  A    between atoms: C_5  and  C_7
REMARK    5  A    between atoms: C_20  and  C_21
REMARK    6  A    between atoms: C_21  and  N_22
REMARK    7  A    between atoms: C_23  and  C_25
REMARK                            x       y       z     vdW  Elec       q    Type
REMARK                         _______ _______ _______ _____ _____    ______ ____
ROOT
ATOM      1  C   UNL     1      49.094   8.698  14.446  0.00  0.00    +0.000 C 
ENDROOT
BRANCH   1   2
ATOM      2  C   UNL     1      48.029   8.096  13.531  0.00  0.00    +0.000 A 
ATOM      3  C   UNL     1      48.271   6.861  12.906  0.00  0.00    +0.000 A 
ATOM      4  C   UNL     1      47.318   6.283  12.058  0.00  0.00    +0.000 A 
ATOM      5  C   UNL     1      46.106   6.934  11.800  0.00  0.00    +0.000 A 
ATOM      6  C   UNL     1      45.866   8.172  12.408  0.00  0.00    +0.000 A 
ATOM      7  C   UNL     1      46.822   8.754  13.249  0.00  0.00    +0.000 A 
BRANCH   5   8
ATOM      8  C   UNL     1      45.076   6.323  10.886  0.00  0.00    +0.000 C 
BRANCH   8   9
ATOM      9  N   UNL     1      45.665   5.534   9.839  0.00  0.00    +0.000 N 
ATOM     10  C   UNL     1      45.051   4.391   9.375  0.00  0.00    +0.000 C 
ATOM     11  O   UNL     1      43.989   3.969   9.824  0.00  0.00    +0.000 OA
ATOM     12  H   UNL     1      46.521   5.816   9.370  0.00  0.00    +0.000 HD
BRANCH  10  13
ATOM     13  C   UNL     1      45.782   3.716   8.291  0.00  0.00    +0.000 A 
ATOM     14  C   UNL     1      45.968   2.316   8.133  0.00  0.00    +0.000 A 
ATOM     15  C   UNL     1      46.715   2.171   6.989  0.00  0.00    +0.000 A 
ATOM     16  N   UNL     1      46.940   3.434   6.531  0.00  0.00    +0.000 N 
ATOM     17  N   UNL     1      46.379   4.395   7.288  0.00  0.00    +0.000 NA
ATOM     18  H   UNL     1      47.468   3.715   5.711  0.00  0.00    +0.000 HD
ENDBRANCH  10  13
ENDBRANCH   8   9
ENDBRANCH   5   8
ENDBRANCH   1   2
BRANCH   1  19
ATOM     19  N   UNL     1      49.171   7.911  15.666  0.00  0.00    +0.000 N 
ATOM     20  C   UNL     1      48.577   8.343  16.824  0.00  0.00    +0.000 C 
ATOM     21  O   UNL     1      47.862   9.340  16.850  0.00  0.00    +0.000 OA
ATOM     22  H   UNL     1      49.912   7.221  15.715  0.00  0.00    +0.000 HD
BRANCH  20  23
ATOM     23  C   UNL     1      48.782   7.514  18.014  0.00  0.00    +0.000 A 
ATOM     24  C   UNL     1      49.203   8.098  19.201  0.00  0.00    +0.000 A 
ATOM     25  S   UNL     1      49.367   6.989  20.487  0.00  0.00    +0.000 S 
ATOM     26  C   UNL     1      48.938   5.681  19.487  0.00  0.00    +0.000 A 
ATOM     27  N   UNL     1      48.920   4.409  19.965  0.00  0.00    +0.000 NA
ATOM     28  C   UNL     1      48.628   3.512  19.083  0.00  0.00    +0.000 A 
ATOM     29  N   UNL     1      48.333   3.774  17.769  0.00  0.00    +0.000 N 
ATOM     30  C   UNL     1      48.266   5.048  17.260  0.00  0.00    +0.000 A 
ATOM     31  O   UNL     1      47.886   5.269  16.115  0.00  0.00    +0.000 OA
ATOM     32  C   UNL     1      48.638   6.089  18.199  0.00  0.00    +0.000 A 
ATOM     33  H   UNL     1      48.084   3.025  17.138  0.00  0.00    +0.000 HD
ENDBRANCH  20  23
ENDBRANCH   1  19
BRANCH   1  35
ATOM     34  N   UNL     1      51.474   8.950  13.310  0.00  0.00    +0.000 NA
ATOM     35  C   UNL     1      50.425   8.824  13.803  0.00  0.00    +0.000 C 
ENDBRANCH   1  35
TORSDOF 7
ENDMDL
MODEL 7
REMARK VINA RESULT:    -6.325      4.165      5.618
REMARK INTER + INTRA:         -10.142
REMARK INTER:                  -9.240
REMARK INTRA:                  -0.902
REMARK UNBOUND:                -1.229
REMARK  Name = 
REMARK  7 active torsions:
REMARK  status: ('A' for Active; 'I' for Inactive)
REMARK    1  A    between atoms: C_2  and  C_3
REMARK    2  A    between atoms: C_3  and  N_4
REMARK    3  A    between atoms: C_3  and  C_17
REMARK    4  A    between atoms: C_5  and  C_7
REMARK    5  A    between atoms: C_20  and  C_21
REMARK    6  A    between atoms: C_21  and  N_22
REMARK    7  A    between atoms: C_23  and  C_25
REMARK                            x       y       z     vdW  Elec       q    Type
REMARK                         _______ _______ _______ _____ _____    ______ ____
ROOT
ATOM      1  C   UNL     1      48.301   4.210  17.863  0.00  0.00    +0.000 C 
ENDROOT
BRANCH   1   2
ATOM      2  C   UNL     1      48.075   4.912  16.527  0.00  0.00    +0.000 A 
ATOM      3  C   UNL     1      47.175   4.361  15.597  0.00  0.00    +0.000 A 
ATOM      4  C   UNL     1      46.947   4.979  14.361  0.00  0.00    +0.000 A 
ATOM      5  C   UNL     1      47.627   6.152  14.015  0.00  0.00    +0.000 A 
ATOM      6  C   UNL     1      48.535   6.697  14.930  0.00  0.00    +0.000 A 
ATOM      7  C   UNL     1      48.770   6.076  16.162  0.00  0.00    +0.000 A 
BRANCH   5   8
ATOM      8  C   UNL     1      47.393   6.821  12.685  0.00  0.00    +0.000 C 
BRANCH   8   9
ATOM      9  N   UNL     1      46.776   5.946  11.727  0.00  0.00    +0.000 N 
ATOM     10  C   UNL     1      45.533   6.223  11.203  0.00  0.00    +0.000 C 
ATOM     11  O   UNL     1      44.873   7.207  11.523  0.00  0.00    +0.000 OA
ATOM     12  H   UNL     1      47.253   5.126  11.363  0.00  0.00    +0.000 HD
BRANCH  10  13
ATOM     13  C   UNL     1      45.060   5.231  10.223  0.00  0.00    +0.000 A 
ATOM     14  C   UNL     1      45.703   4.859   9.011  0.00  0.00    +0.000 A 
ATOM     15  C   UNL     1      44.887   3.915   8.437  0.00  0.00    +0.000 A 
ATOM     16  N   UNL     1      43.833   3.769   9.288  0.00  0.00    +0.000 N 
ATOM     17  N   UNL     1      43.911   4.542  10.388  0.00  0.00    +0.000 NA
ATOM     18  H   UNL     1      43.026   3.163   9.184  0.00  0.00    +0.000 HD
ENDBRANCH  10  13
ENDBRANCH   8   9
ENDBRANCH   5   8
ENDBRANCH   1   2
BRANCH   1  19
ATOM     19  N   UNL     1      49.689   3.788  17.949  0.00  0.00    +0.000 N 
ATOM     20  C   UNL     1      50.127   2.664  17.297  0.00  0.00    +0.000 C 
ATOM     21  O   UNL     1      49.404   2.042  16.525  0.00  0.00    +0.000 OA
ATOM     22  H   UNL     1      50.227   4.152  18.728  0.00  0.00    +0.000 HD
BRANCH  20  23
ATOM     23  C   UNL     1      51.525   2.285  17.514  0.00  0.00    +0.000 A 
ATOM     24  C   UNL     1      51.867   0.945  17.645  0.00  0.00    +0.000 A 
ATOM     25  S   UNL     1      53.538   0.686  17.868  0.00  0.00    +0.000 S 
ATOM     26  C   UNL     1      53.855   2.357  17.856  0.00  0.00    +0.000 A 
ATOM     27  N   UNL     1      55.115   2.834  18.043  0.00  0.00    +0.000 NA
ATOM     28  C   UNL     1      55.201   4.122  18.062  0.00  0.00    +0.000 A 
ATOM     29  N   UNL     1      54.142   4.978  17.892  0.00  0.00    +0.000 N 
ATOM     30  C   UNL     1      52.866   4.543  17.628  0.00  0.00    +0.000 A 
ATOM     31  O   UNL     1      51.958   5.324  17.362  0.00  0.00    +0.000 OA
ATOM     32  C   UNL     1      52.708   3.102  17.648  0.00  0.00    +0.000 A 
ATOM     33  H   UNL     1      54.285   5.979  17.890  0.00  0.00    +0.000 HD
ENDBRANCH  20  23
ENDBRANCH   1  19
BRANCH   1  35
ATOM     34  N   UNL     1      47.595   5.695  19.941  0.00  0.00    +0.000 NA
ATOM     35  C   UNL     1      47.914   5.032  19.037  0.00  0.00    +0.000 C 
ENDBRANCH   1  35
TORSDOF 7
ENDMDL
MODEL 8
REMARK VINA RESULT:    -6.310      3.059      4.186
REMARK INTER + INTRA:         -10.121
REMARK INTER:                  -9.784
REMARK INTRA:                  -0.337
REMARK UNBOUND:                -1.229
REMARK  Name = 
REMARK  7 active torsions:
REMARK  status: ('A' for Active; 'I' for Inactive)
REMARK    1  A    between atoms: C_2  and  C_3
REMARK    2  A    between atoms: C_3  and  N_4
REMARK    3  A    between atoms: C_3  and  C_17
REMARK    4  A    between atoms: C_5  and  C_7
REMARK    5  A    between atoms: C_20  and  C_21
REMARK    6  A    between atoms: C_21  and  N_22
REMARK    7  A    between atoms: C_23  and  C_25
REMARK                            x       y       z     vdW  Elec       q    Type
REMARK                         _______ _______ _______ _____ _____    ______ ____
ROOT
ATOM      1  C   UNL     1      46.569   8.102  13.395  0.00  0.00    +0.000 C 
ENDROOT
BRANCH   1   2
ATOM      2  C   UNL     1      45.848   7.009  12.608  0.00  0.00    +0.000 A 
ATOM      3  C   UNL     1      44.808   6.287  13.219  0.00  0.00    +0.000 A 
ATOM      4  C   UNL     1      44.129   5.277  12.526  0.00  0.00    +0.000 A 
ATOM      5  C   UNL     1      44.485   4.951  11.212  0.00  0.00    +0.000 A 
ATOM      6  C   UNL     1      45.529   5.657  10.604  0.00  0.00    +0.000 A 
ATOM      7  C   UNL     1      46.214   6.660  11.298  0.00  0.00    +0.000 A 
BRANCH   5   8
ATOM      8  C   UNL     1      43.763   3.862  10.460  0.00  0.00    +0.000 C 
BRANCH   8   9
ATOM      9  N   UNL     1      44.662   2.980   9.769  0.00  0.00    +0.000 N 
ATOM     10  C   UNL     1      45.008   3.200   8.454  0.00  0.00    +0.000 C 
ATOM     11  O   UNL     1      44.571   4.136   7.791  0.00  0.00    +0.000 OA
ATOM     12  H   UNL     1      45.114   2.198  10.236  0.00  0.00    +0.000 HD
BRANCH  10  13
ATOM     13  C   UNL     1      45.951   2.210   7.908  0.00  0.00    +0.000 A 
ATOM     14  C   UNL     1      46.937   2.434   6.910  0.00  0.00    +0.000 A 
ATOM     15  C   UNL     1      47.558   1.222   6.727  0.00  0.00    +0.000 A 
ATOM     16  N   UNL     1      46.943   0.358   7.582  0.00  0.00    +0.000 N 
ATOM     17  N   UNL     1      45.972   0.925   8.323  0.00  0.00    +0.000 NA
ATOM     18  H   UNL     1      47.131  -0.630   7.714  0.00  0.00    +0.000 HD
ENDBRANCH  10  13
ENDBRANCH   8   9
ENDBRANCH   5   8
ENDBRANCH   1   2
BRANCH   1  19
ATOM     19  N   UNL     1      47.582   7.489  14.238  0.00  0.00    +0.000 N 
ATOM     20  C   UNL     1      48.354   8.247  15.079  0.00  0.00    +0.000 C 
ATOM     21  O   UNL     1      48.144   9.445  15.245  0.00  0.00    +0.000 OA
ATOM     22  H   UNL     1      47.905   6.567  13.964  0.00  0.00    +0.000 HD
BRANCH  20  23
ATOM     23  C   UNL     1      49.398   7.541  15.826  0.00  0.00    +0.000 A 
ATOM     24  C   UNL     1      49.083   6.894  17.013  0.00  0.00    +0.000 A 
ATOM     25  S   UNL     1      50.413   6.106  17.735  0.00  0.00    +0.000 S 
ATOM     26  C   UNL     1      51.468   6.652  16.516  0.00  0.00    +0.000 A 
ATOM     27  N   UNL     1      52.795   6.360  16.555  0.00  0.00    +0.000 NA
ATOM     28  C   UNL     1      53.484   6.882  15.596  0.00  0.00    +0.000 A 
ATOM     29  N   UNL     1      52.963   7.655  14.590  0.00  0.00    +0.000 N 
ATOM     30  C   UNL     1      51.619   7.915  14.470  0.00  0.00    +0.000 A 
ATOM     31  O   UNL     1      51.159   8.509  13.500  0.00  0.00    +0.000 OA
ATOM     32  C   UNL     1      50.808   7.394  15.553  0.00  0.00    +0.000 A 
ATOM     33  H   UNL     1      53.557   8.010  13.853  0.00  0.00    +0.000 HD
ENDBRANCH  20  23
ENDBRANCH   1  19
BRANCH   1  35
ATOM     34  N   UNL     1      47.599  10.016  11.881  0.00  0.00    +0.000 NA
ATOM     35  C   UNL     1      47.152   9.163  12.537  0.00  0.00    +0.000 C 
ENDBRANCH   1  35
TORSDOF 7
ENDMDL
MODEL 9
REMARK VINA RESULT:    -6.049      3.339      4.987
REMARK INTER + INTRA:          -9.753
REMARK INTER:                  -8.604
REMARK INTRA:                  -1.149
REMARK UNBOUND:                -1.229
REMARK  Name = 
REMARK  7 active torsions:
REMARK  status: ('A' for Active; 'I' for Inactive)
REMARK    1  A    between atoms: C_2  and  C_3
REMARK    2  A    between atoms: C_3  and  N_4
REMARK    3  A    between atoms: C_3  and  C_17
REMARK    4  A    between atoms: C_5  and  C_7
REMARK    5  A    between atoms: C_20  and  C_21
REMARK    6  A    between atoms: C_21  and  N_22
REMARK    7  A    between atoms: C_23  and  C_25
REMARK                            x       y       z     vdW  Elec       q    Type
REMARK                         _______ _______ _______ _____ _____    ______ ____
ROOT
ATOM      1  C   UNL     1      49.511   8.142  14.986  0.00  0.00    +0.000 C 
ENDROOT
BRANCH   1   2
ATOM      2  C   UNL     1      48.332   7.914  14.043  0.00  0.00    +0.000 A 
ATOM      3  C   UNL     1      47.295   8.861  13.989  0.00  0.00    +0.000 A 
ATOM      4  C   UNL     1      46.198   8.681  13.137  0.00  0.00    +0.000 A 
ATOM      5  C   UNL     1      46.101   7.540  12.332  0.00  0.00    +0.000 A 
ATOM      6  C   UNL     1      47.123   6.586  12.393  0.00  0.00    +0.000 A 
ATOM      7  C   UNL     1      48.216   6.761  13.250  0.00  0.00    +0.000 A 
BRANCH   5   8
ATOM      8  C   UNL     1      44.922   7.334  11.416  0.00  0.00    +0.000 C 
BRANCH   8   9
ATOM      9  N   UNL     1      45.110   6.232  10.513  0.00  0.00    +0.000 N 
ATOM     10  C   UNL     1      44.397   5.062  10.656  0.00  0.00    +0.000 C 
ATOM     11  O   UNL     1      43.581   4.877  11.553  0.00  0.00    +0.000 OA
ATOM     12  H   UNL     1      45.730   6.295   9.710  0.00  0.00    +0.000 HD
BRANCH  10  13
ATOM     13  C   UNL     1      44.701   4.047   9.634  0.00  0.00    +0.000 A 
ATOM     14  C   UNL     1      44.601   2.637   9.780  0.00  0.00    +0.000 A 
ATOM     15  C   UNL     1      44.995   2.113   8.573  0.00  0.00    +0.000 A 
ATOM     16  N   UNL     1      45.306   3.183   7.789  0.00  0.00    +0.000 N 
ATOM     17  N   UNL     1      45.129   4.371   8.396  0.00  0.00    +0.000 NA
ATOM     18  H   UNL     1      45.646   3.178   6.833  0.00  0.00    +0.000 HD
ENDBRANCH  10  13
ENDBRANCH   8   9
ENDBRANCH   5   8
ENDBRANCH   1   2
BRANCH   1  19
ATOM     19  N   UNL     1      49.990   6.857  15.468  0.00  0.00    +0.000 N 
ATOM     20  C   UNL     1      49.562   6.348  16.666  0.00  0.00    +0.000 C 
ATOM     21  O   UNL     1      48.676   6.892  17.320  0.00  0.00    +0.000 OA
ATOM     22  H   UNL     1      50.853   6.512  15.061  0.00  0.00    +0.000 HD
BRANCH  20  23
ATOM     23  C   UNL     1      50.166   5.084  17.094  0.00  0.00    +0.000 A 
ATOM     24  C   UNL     1      49.365   3.969  17.301  0.00  0.00    +0.000 A 
ATOM     25  S   UNL     1      50.235   2.581  17.773  0.00  0.00    +0.000 S 
ATOM     26  C   UNL     1      51.706   3.436  17.774  0.00  0.00    +0.000 A 
ATOM     27  N   UNL     1      52.869   2.831  18.135  0.00  0.00    +0.000 NA
ATOM     28  C   UNL     1      53.897   3.612  18.140  0.00  0.00    +0.000 A 
ATOM     29  N   UNL     1      53.871   4.941  17.799  0.00  0.00    +0.000 N 
ATOM     30  C   UNL     1      52.735   5.575  17.358  0.00  0.00    +0.000 A 
ATOM     31  O   UNL     1      52.757   6.731  16.946  0.00  0.00    +0.000 OA
ATOM     32  C   UNL     1      51.540   4.753  17.385  0.00  0.00    +0.000 A 
ATOM     33  H   UNL     1      54.720   5.489  17.798  0.00  0.00    +0.000 HD
ENDBRANCH  20  23
ENDBRANCH   1  19
BRANCH   1  35
ATOM     34  N   UNL     1      51.457   9.576  13.900  0.00  0.00    +0.000 NA
ATOM     35  C   UNL     1      50.611   8.933  14.379  0.00  0.00    +0.000 C 
ENDBRANCH   1  35
TORSDOF 7
ENDMDL
