MODEL 1
REMARK VINA RESULT:    -7.454      0.000      0.000
REMARK INTER + INTRA:         -11.413
REMARK INTER:                 -10.722
REMARK INTRA:                  -0.691
REMARK UNBOUND:                -0.691
REMARK  Name = 
REMARK  8 active torsions:
REMARK  status: ('A' for Active; 'I' for Inactive)
REMARK    1  A    between atoms: N_1  and  C_2
REMARK    2  A    between atoms: C_2  and  C_3
REMARK    3  A    between atoms: C_3  and  N_4
REMARK    4  A    between atoms: N_4  and  C_5
REMARK    5  A    between atoms: C_5  and  C_6
REMARK    6  A    between atoms: C_9  and  C_10
REMARK    7  A    between atoms: C_10  and  N_11
REMARK    8  A    between atoms: C_12  and  C_14
REMARK                            x       y       z     vdW  Elec       q    Type
REMARK                         _______ _______ _______ _____ _____    ______ ____
ROOT
ATOM      1  C   UNL     1      44.242   4.287  12.746  0.00  0.00    +0.000 C 
ENDROOT
BRANCH   1   5
ATOM      2  C   UNL     1      45.309   3.722   8.664  0.00  0.00    +0.000 A 
ATOM      3  C   UNL     1      44.691   2.674   9.340  0.00  0.00    +0.000 A 
ATOM      4  C   UNL     1      44.332   2.849  10.672  0.00  0.00    +0.000 A 
ATOM      5  C   UNL     1      44.613   4.058  11.312  0.00  0.00    +0.000 A 
ATOM      6  C   UNL     1      45.215   5.056  10.555  0.00  0.00    +0.000 A 
ATOM      7  N   UNL     1      45.565   4.916   9.255  0.00  0.00    +0.000 NA
BRANCH   2   8
ATOM      8  C   UNL     1      45.654   3.574   7.193  0.00  0.00    +0.000 C 
BRANCH   8   9
ATOM      9  N   UNL     1      47.076   3.818   6.871  0.00  0.00    +0.000 NA
ATOM     10  H   UNL     1      47.095   4.150   5.902  0.00  0.00    +0.000 HD
BRANCH   9  11
ATOM     11  C   UNL     1      47.869   2.575   6.880  0.00  0.00    +0.000 C 
BRANCH  11  12
ATOM     12  C   UNL     1      47.036   1.303   6.629  0.00  0.00    +0.000 C 
BRANCH  12  13
ATOM     13  N   UNL     1      47.223   0.325   7.710  0.00  0.00    +0.000 NA
ATOM     14  H   UNL     1      46.467  -0.359   7.666  0.00  0.00    +0.000 HD
ATOM     15  H   UNL     1      47.122   0.801   8.605  0.00  0.00    +0.000 HD
ENDBRANCH  12  13
ENDBRANCH  11  12
ENDBRANCH   9  11
ENDBRANCH   8   9
ENDBRANCH   2   8
ENDBRANCH   1   5
BRANCH   1  16
ATOM     16  N   UNL     1      45.266   5.018  13.448  0.00  0.00    +0.000 N 
ATOM     17  C   UNL     1      46.387   4.381  13.918  0.00  0.00    +0.000 C 
ATOM     18  O   UNL     1      46.598   3.193  13.688  0.00  0.00    +0.000 OA
ATOM     19  H   UNL     1      45.012   5.925  13.830  0.00  0.00    +0.000 HD
BRANCH  17  20
ATOM     20  C   UNL     1      47.351   5.198  14.666  0.00  0.00    +0.000 A 
ATOM     21  C   UNL     1      48.016   6.232  14.020  0.00  0.00    +0.000 A 
ATOM     22  S   UNL     1      49.083   7.098  15.030  0.00  0.00    +0.000 S 
ATOM     23  C   UNL     1      48.727   6.095  16.357  0.00  0.00    +0.000 A 
ATOM     24  N   UNL     1      49.341   6.282  17.557  0.00  0.00    +0.000 NA
ATOM     25  C   UNL     1      49.000   5.432  18.467  0.00  0.00    +0.000 A 
ATOM     26  N   UNL     1      48.093   4.420  18.290  0.00  0.00    +0.000 N 
ATOM     27  C   UNL     1      47.428   4.211  17.106  0.00  0.00    +0.000 A 
ATOM     28  O   UNL     1      46.588   3.324  16.994  0.00  0.00    +0.000 OA
ATOM     29  C   UNL     1      47.789   5.127  16.041  0.00  0.00    +0.000 A 
ATOM     30  H   UNL     1      47.862   3.794  19.049  0.00  0.00    +0.000 HD
ENDBRANCH  17  20
ENDBRANCH   1  16
TORSDOF 8
ENDMDL
MODEL 2
REMARK VINA RESULT:    -7.171      1.691      2.221
REMARK INTER + INTRA:         -11.006
REMARK INTER:                 -10.230
REMARK INTRA:                  -0.776
REMARK UNBOUND:                -0.691
REMARK  Name = 
REMARK  8 active torsions:
REMARK  status: ('A' for Active; 'I' for Inactive)
REMARK    1  A    between atoms: N_1  and  C_2
REMARK    2  A    between atoms: C_2  and  C_3
REMARK    3  A    between atoms: C_3  and  N_4
REMARK    4  A    between atoms: N_4  and  C_5
REMARK    5  A    between atoms: C_5  and  C_6
REMARK    6  A    between atoms: C_9  and  C_10
REMARK    7  A    between atoms: C_10  and  N_11
REMARK    8  A    between atoms: C_12  and  C_14
REMARK                            x       y       z     vdW  Elec       q    Type
REMARK                         _______ _______ _______ _____ _____    ______ ____
ROOT
ATOM      1  C   UNL     1      44.597   6.650  12.073  0.00  0.00    +0.000 C 
ENDROOT
BRANCH   1   5
ATOM      2  C   UNL     1      44.650   3.185   9.600  0.00  0.00    +0.000 A 
ATOM      3  C   UNL     1      45.332   4.318   9.169  0.00  0.00    +0.000 A 
ATOM      4  C   UNL     1      45.327   5.455   9.972  0.00  0.00    +0.000 A 
ATOM      5  C   UNL     1      44.627   5.446  11.179  0.00  0.00    +0.000 A 
ATOM      6  C   UNL     1      43.988   4.265  11.539  0.00  0.00    +0.000 A 
ATOM      7  N   UNL     1      43.986   3.143  10.782  0.00  0.00    +0.000 NA
BRANCH   2   8
ATOM      8  C   UNL     1      44.692   1.915   8.770  0.00  0.00    +0.000 C 
BRANCH   8   9
ATOM      9  N   UNL     1      46.054   1.413   8.489  0.00  0.00    +0.000 NA
ATOM     10  H   UNL     1      46.682   1.924   9.117  0.00  0.00    +0.000 HD
BRANCH   9  11
ATOM     11  C   UNL     1      46.500   1.750   7.123  0.00  0.00    +0.000 C 
BRANCH  11  12
ATOM     12  C   UNL     1      48.031   1.797   6.962  0.00  0.00    +0.000 C 
BRANCH  12  13
ATOM     13  N   UNL     1      48.411   1.915   5.547  0.00  0.00    +0.000 NA
ATOM     14  H   UNL     1      47.675   1.499   4.976  0.00  0.00    +0.000 HD
ATOM     15  H   UNL     1      49.247   1.355   5.384  0.00  0.00    +0.000 HD
ENDBRANCH  12  13
ENDBRANCH  11  12
ENDBRANCH   9  11
ENDBRANCH   8   9
ENDBRANCH   2   8
ENDBRANCH   1   5
BRANCH   1  16
ATOM     16  N   UNL     1      45.519   6.516  13.173  0.00  0.00    +0.000 N 
ATOM     17  C   UNL     1      46.835   6.878  13.033  0.00  0.00    +0.000 C 
ATOM     18  O   UNL     1      47.255   7.401  12.005  0.00  0.00    +0.000 OA
ATOM     19  H   UNL     1      45.250   5.898  13.934  0.00  0.00    +0.000 HD
BRANCH  17  20
ATOM     20  C   UNL     1      47.711   6.658  14.191  0.00  0.00    +0.000 A 
ATOM     21  C   UNL     1      48.634   7.634  14.545  0.00  0.00    +0.000 A 
ATOM     22  S   UNL     1      49.557   7.238  15.922  0.00  0.00    +0.000 S 
ATOM     23  C   UNL     1      48.787   5.728  16.072  0.00  0.00    +0.000 A 
ATOM     24  N   UNL     1      49.141   4.859  17.057  0.00  0.00    +0.000 NA
ATOM     25  C   UNL     1      48.497   3.740  17.036  0.00  0.00    +0.000 A 
ATOM     26  N   UNL     1      47.526   3.415  16.126  0.00  0.00    +0.000 N 
ATOM     27  C   UNL     1      47.116   4.271  15.133  0.00  0.00    +0.000 A 
ATOM     28  O   UNL     1      46.210   3.968  14.363  0.00  0.00    +0.000 OA
ATOM     29  C   UNL     1      47.822   5.538  15.098  0.00  0.00    +0.000 A 
ATOM     30  H   UNL     1      47.051   2.524  16.172  0.00  0.00    +0.000 HD
ENDBRANCH  17  20
ENDBRANCH   1  16
TORSDOF 8
ENDMDL
MODEL 3
REMARK VINA RESULT:    -7.047      1.996      3.193
REMARK INTER + INTRA:         -10.828
REMARK INTER:                  -9.749
REMARK INTRA:                  -1.080
REMARK UNBOUND:                -0.691
REMARK  Name = 
REMARK  8 active torsions:
REMARK  status: ('A' for Active; 'I' for Inactive)
REMARK    1  A    between atoms: N_1  and  C_2
REMARK    2  A    between atoms: C_2  and  C_3
REMARK    3  A    between atoms: C_3  and  N_4
REMARK    4  A    between atoms: N_4  and  C_5
REMARK    5  A    between atoms: C_5  and  C_6
REMARK    6  A    between atoms: C_9  and  C_10
REMARK    7  A    between atoms: C_10  and  N_11
REMARK    8  A    between atoms: C_12  and  C_14
REMARK                            x       y       z     vdW  Elec       q    Type
REMARK                         _______ _______ _______ _____ _____    ______ ____
ROOT
ATOM      1  C   UNL     1      46.985   8.085  13.239  0.00  0.00    +0.000 C 
ENDROOT
BRANCH   1   5
ATOM      2  C   UNL     1      44.681   5.396  10.876  0.00  0.00    +0.000 A 
ATOM      3  C   UNL     1      45.933   5.785  10.408  0.00  0.00    +0.000 A 
ATOM      4  C   UNL     1      46.697   6.659  11.176  0.00  0.00    +0.000 A 
ATOM      5  C   UNL     1      46.192   7.143  12.383  0.00  0.00    +0.000 A 
ATOM      6  C   UNL     1      44.941   6.688  12.781  0.00  0.00    +0.000 A 
ATOM      7  N   UNL     1      44.180   5.831  12.060  0.00  0.00    +0.000 NA
BRANCH   2   8
ATOM      8  C   UNL     1      43.856   4.397  10.085  0.00  0.00    +0.000 C 
BRANCH   8   9
ATOM      9  N   UNL     1      44.240   4.275   8.663  0.00  0.00    +0.000 NA
ATOM     10  H   UNL     1      43.371   4.351   8.126  0.00  0.00    +0.000 HD
BRANCH   9  11
ATOM     11  C   UNL     1      44.786   2.942   8.348  0.00  0.00    +0.000 C 
BRANCH  11  12
ATOM     12  C   UNL     1      46.198   2.977   7.732  0.00  0.00    +0.000 C 
BRANCH  12  13
ATOM     13  N   UNL     1      46.504   4.305   7.183  0.00  0.00    +0.000 NA
ATOM     14  H   UNL     1      46.069   5.012   7.778  0.00  0.00    +0.000 HD
ATOM     15  H   UNL     1      46.061   4.394   6.270  0.00  0.00    +0.000 HD
ENDBRANCH  12  13
ENDBRANCH  11  12
ENDBRANCH   9  11
ENDBRANCH   8   9
ENDBRANCH   2   8
ENDBRANCH   1   5
BRANCH   1  16
ATOM     16  N   UNL     1      47.425   7.453  14.457  0.00  0.00    +0.000 N 
ATOM     17  C   UNL     1      48.663   6.867  14.535  0.00  0.00    +0.000 C 
ATOM     18  O   UNL     1      49.467   6.930  13.608  0.00  0.00    +0.000 OA
ATOM     19  H   UNL     1      46.712   7.203  15.136  0.00  0.00    +0.000 HD
BRANCH  17  20
ATOM     20  C   UNL     1      49.005   6.202  15.798  0.00  0.00    +0.000 A 
ATOM     21  C   UNL     1      50.074   6.671  16.551  0.00  0.00    +0.000 A 
ATOM     22  S   UNL     1      50.327   5.808  17.999  0.00  0.00    +0.000 S 
ATOM     23  C   UNL     1      49.042   4.747  17.654  0.00  0.00    +0.000 A 
ATOM     24  N   UNL     1      48.735   3.726  18.498  0.00  0.00    +0.000 NA
ATOM     25  C   UNL     1      47.758   2.981  18.099  0.00  0.00    +0.000 A 
ATOM     26  N   UNL     1      47.055   3.170  16.939  0.00  0.00    +0.000 N 
ATOM     27  C   UNL     1      47.311   4.204  16.071  0.00  0.00    +0.000 A 
ATOM     28  O   UNL     1      46.632   4.373  15.062  0.00  0.00    +0.000 OA
ATOM     29  C   UNL     1      48.414   5.061  16.460  0.00  0.00    +0.000 A 
ATOM     30  H   UNL     1      46.293   2.556  16.691  0.00  0.00    +0.000 HD
ENDBRANCH  17  20
ENDBRANCH   1  16
TORSDOF 8
ENDMDL
MODEL 4
REMARK VINA RESULT:    -6.988      3.768      8.319
REMARK INTER + INTRA:         -10.743
REMARK INTER:                  -9.774
REMARK INTRA:                  -0.969
REMARK UNBOUND:                -0.691
REMARK  Name = 
REMARK  8 active torsions:
REMARK  status: ('A' for Active; 'I' for Inactive)
REMARK    1  A    between atoms: N_1  and  C_2
REMARK    2  A    between atoms: C_2  and  C_3
REMARK    3  A    between atoms: C_3  and  N_4
REMARK    4  A    between atoms: N_4  and  C_5
REMARK    5  A    between atoms: C_5  and  C_6
REMARK    6  A    between atoms: C_9  and  C_10
REMARK    7  A    between atoms: C_10  and  N_11
REMARK    8  A    between atoms: C_12  and  C_14
REMARK                            x       y       z     vdW  Elec       q    Type
REMARK                         _______ _______ _______ _____ _____    ______ ____
ROOT
ATOM      1  C   UNL     1      47.152   3.480  16.990  0.00  0.00    +0.000 C 
ENDROOT
BRANCH   1   5
ATOM      2  C   UNL     1      51.343   3.466  17.739  0.00  0.00    +0.000 A 
ATOM      3  C   UNL     1      50.618   4.615  18.042  0.00  0.00    +0.000 A 
ATOM      4  C   UNL     1      49.246   4.629  17.807  0.00  0.00    +0.000 A 
ATOM      5  C   UNL     1      48.627   3.506  17.257  0.00  0.00    +0.000 A 
ATOM      6  C   UNL     1      49.425   2.396  17.002  0.00  0.00    +0.000 A 
ATOM      7  N   UNL     1      50.759   2.352  17.231  0.00  0.00    +0.000 NA
BRANCH   2   8
ATOM      8  C   UNL     1      52.828   3.407  18.043  0.00  0.00    +0.000 C 
BRANCH   8   9
ATOM      9  N   UNL     1      53.212   2.364  19.018  0.00  0.00    +0.000 NA
ATOM     10  H   UNL     1      53.649   2.855  19.803  0.00  0.00    +0.000 HD
BRANCH   9  11
ATOM     11  C   UNL     1      54.252   1.463  18.485  0.00  0.00    +0.000 C 
BRANCH  11  12
ATOM     12  C   UNL     1      53.702   0.130  17.943  0.00  0.00    +0.000 C 
BRANCH  12  13
ATOM     13  N   UNL     1      52.309  -0.078  18.361  0.00  0.00    +0.000 NA
ATOM     14  H   UNL     1      51.695   0.402  17.702  0.00  0.00    +0.000 HD
ATOM     15  H   UNL     1      52.165   0.375  19.262  0.00  0.00    +0.000 HD
ENDBRANCH  12  13
ENDBRANCH  11  12
ENDBRANCH   9  11
ENDBRANCH   8   9
ENDBRANCH   2   8
ENDBRANCH   1   5
BRANCH   1  16
ATOM     16  N   UNL     1      46.783   4.426  15.966  0.00  0.00    +0.000 N 
ATOM     17  C   UNL     1      46.928   4.114  14.638  0.00  0.00    +0.000 C 
ATOM     18  O   UNL     1      47.296   3.001  14.272  0.00  0.00    +0.000 OA
ATOM     19  H   UNL     1      46.691   5.399  16.242  0.00  0.00    +0.000 HD
BRANCH  17  20
ATOM     20  C   UNL     1      46.574   5.159  13.668  0.00  0.00    +0.000 A 
ATOM     21  C   UNL     1      47.500   6.149  13.362  0.00  0.00    +0.000 A 
ATOM     22  S   UNL     1      46.946   7.271  12.204  0.00  0.00    +0.000 S 
ATOM     23  C   UNL     1      45.433   6.500  12.100  0.00  0.00    +0.000 A 
ATOM     24  N   UNL     1      44.457   6.987  11.288  0.00  0.00    +0.000 NA
ATOM     25  C   UNL     1      43.350   6.322  11.328  0.00  0.00    +0.000 A 
ATOM     26  N   UNL     1      43.135   5.210  12.099  0.00  0.00    +0.000 N 
ATOM     27  C   UNL     1      44.100   4.667  12.912  0.00  0.00    +0.000 A 
ATOM     28  O   UNL     1      43.890   3.643  13.555  0.00  0.00    +0.000 OA
ATOM     29  C   UNL     1      45.359   5.387  12.921  0.00  0.00    +0.000 A 
ATOM     30  H   UNL     1      42.247   4.729  12.076  0.00  0.00    +0.000 HD
ENDBRANCH  17  20
ENDBRANCH   1  16
TORSDOF 8
ENDMDL
MODEL 5
REMARK VINA RESULT:    -6.851      1.897      2.783
REMARK INTER + INTRA:         -10.546
REMARK INTER:                  -9.726
REMARK INTRA:                  -0.820
REMARK UNBOUND:                -0.691
REMARK  Name = 
REMARK  8 active torsions:
REMARK  status: ('A' for Active; 'I' for Inactive)
REMARK    1  A    between atoms: N_1  and  C_2
REMARK    2  A    between atoms: C_2  and  C_3
REMARK    3  A    between atoms: C_3  and  N_4
REMARK    4  A    between atoms: N_4  and  C_5
REMARK    5  A    between atoms: C_5  and  C_6
REMARK    6  A    between atoms: C_9  and  C_10
REMARK    7  A    between atoms: C_10  and  N_11
REMARK    8  A    between atoms: C_12  and  C_14
REMARK                            x       y       z     vdW  Elec       q    Type
REMARK                         _______ _______ _______ _____ _____    ______ ____
ROOT
ATOM      1  C   UNL     1      44.585   4.859  13.176  0.00  0.00    +0.000 C 
ENDROOT
BRANCH   1   5
ATOM      2  C   UNL     1      45.058   3.900   9.056  0.00  0.00    +0.000 A 
ATOM      3  C   UNL     1      44.420   2.980   9.882  0.00  0.00    +0.000 A 
ATOM      4  C   UNL     1      44.254   3.286  11.230  0.00  0.00    +0.000 A 
ATOM      5  C   UNL     1      44.744   4.493  11.732  0.00  0.00    +0.000 A 
ATOM      6  C   UNL     1      45.352   5.359  10.831  0.00  0.00    +0.000 A 
ATOM      7  N   UNL     1      45.517   5.092   9.514  0.00  0.00    +0.000 NA
BRANCH   2   8
ATOM      8  C   UNL     1      45.196   3.615   7.572  0.00  0.00    +0.000 C 
BRANCH   8   9
ATOM      9  N   UNL     1      46.520   3.949   7.005  0.00  0.00    +0.000 NA
ATOM     10  H   UNL     1      46.364   4.727   6.357  0.00  0.00    +0.000 HD
BRANCH   9  11
ATOM     11  C   UNL     1      47.065   2.851   6.183  0.00  0.00    +0.000 C 
BRANCH  11  12
ATOM     12  C   UNL     1      47.812   1.776   6.997  0.00  0.00    +0.000 C 
BRANCH  12  13
ATOM     13  N   UNL     1      47.096   0.494   6.962  0.00  0.00    +0.000 NA
ATOM     14  H   UNL     1      47.731  -0.243   7.271  0.00  0.00    +0.000 HD
ATOM     15  H   UNL     1      46.860   0.275   5.995  0.00  0.00    +0.000 HD
ENDBRANCH  12  13
ENDBRANCH  11  12
ENDBRANCH   9  11
ENDBRANCH   8   9
ENDBRANCH   2   8
ENDBRANCH   1   5
BRANCH   1  16
ATOM     16  N   UNL     1      45.746   5.550  13.679  0.00  0.00    +0.000 N 
ATOM     17  C   UNL     1      46.772   4.858  14.272  0.00  0.00    +0.000 C 
ATOM     18  O   UNL     1      46.779   3.631  14.322  0.00  0.00    +0.000 OA
ATOM     19  H   UNL     1      45.660   6.549  13.842  0.00  0.00    +0.000 HD
BRANCH  17  20
ATOM     20  C   UNL     1      47.890   5.651  14.800  0.00  0.00    +0.000 A 
ATOM     21  C   UNL     1      48.282   5.484  16.122  0.00  0.00    +0.000 A 
ATOM     22  S   UNL     1      49.606   6.458  16.574  0.00  0.00    +0.000 S 
ATOM     23  C   UNL     1      49.677   7.171  15.031  0.00  0.00    +0.000 A 
ATOM     24  N   UNL     1      50.594   8.136  14.751  0.00  0.00    +0.000 NA
ATOM     25  C   UNL     1      50.517   8.612  13.553  0.00  0.00    +0.000 A 
ATOM     26  N   UNL     1      49.615   8.202  12.607  0.00  0.00    +0.000 N 
ATOM     27  C   UNL     1      48.690   7.212  12.836  0.00  0.00    +0.000 A 
ATOM     28  O   UNL     1      47.926   6.836  11.952  0.00  0.00    +0.000 OA
ATOM     29  C   UNL     1      48.719   6.656  14.175  0.00  0.00    +0.000 A 
ATOM     30  H   UNL     1      49.616   8.608  11.682  0.00  0.00    +0.000 HD
ENDBRANCH  17  20
ENDBRANCH   1  16
TORSDOF 8
ENDMDL
MODEL 6
REMARK VINA RESULT:    -6.785      3.854      8.109
REMARK INTER + INTRA:         -10.451
REMARK INTER:                  -9.596
REMARK INTRA:                  -0.855
REMARK UNBOUND:                -0.691
REMARK  Name = 
REMARK  8 active torsions:
REMARK  status: ('A' for Active; 'I' for Inactive)
REMARK    1  A    between atoms: N_1  and  C_2
REMARK    2  A    between atoms: C_2  and  C_3
REMARK    3  A    between atoms: C_3  and  N_4
REMARK    4  A    between atoms: N_4  and  C_5
REMARK    5  A    between atoms: C_5  and  C_6
REMARK    6  A    between atoms: C_9  and  C_10
REMARK    7  A    between atoms: C_10  and  N_11
REMARK    8  A    between atoms: C_12  and  C_14
REMARK                            x       y       z     vdW  Elec       q    Type
REMARK                         _______ _______ _______ _____ _____    ______ ____
ROOT
ATOM      1  C   UNL     1      48.790   5.882  17.148  0.00  0.00    +0.000 C 
ENDROOT
BRANCH   1   5
ATOM      2  C   UNL     1      51.034   2.285  17.542  0.00  0.00    +0.000 A 
ATOM      3  C   UNL     1      51.696   3.500  17.687  0.00  0.00    +0.000 A 
ATOM      4  C   UNL     1      50.972   4.682  17.567  0.00  0.00    +0.000 A 
ATOM      5  C   UNL     1      49.606   4.632  17.285  0.00  0.00    +0.000 A 
ATOM      6  C   UNL     1      49.023   3.374  17.174  0.00  0.00    +0.000 A 
ATOM      7  N   UNL     1      49.701   2.209  17.297  0.00  0.00    +0.000 NA
BRANCH   2   8
ATOM      8  C   UNL     1      51.791   0.984  17.730  0.00  0.00    +0.000 C 
BRANCH   8   9
ATOM      9  N   UNL     1      53.139   1.139  18.317  0.00  0.00    +0.000 NA
ATOM     10  H   UNL     1      53.233   2.131  18.556  0.00  0.00    +0.000 HD
BRANCH   9  11
ATOM     11  C   UNL     1      54.207   0.865  17.336  0.00  0.00    +0.000 C 
BRANCH  11  12
ATOM     12  C   UNL     1      54.493  -0.635  17.130  0.00  0.00    +0.000 C 
BRANCH  12  13
ATOM     13  N   UNL     1      54.310  -1.021  15.725  0.00  0.00    +0.000 NA
ATOM     14  H   UNL     1      53.455  -0.588  15.375  0.00  0.00    +0.000 HD
ATOM     15  H   UNL     1      54.157  -2.027  15.677  0.00  0.00    +0.000 HD
ENDBRANCH  12  13
ENDBRANCH  11  12
ENDBRANCH   9  11
ENDBRANCH   8   9
ENDBRANCH   2   8
ENDBRANCH   1   5
BRANCH   1  16
ATOM     16  N   UNL     1      47.895   5.810  16.020  0.00  0.00    +0.000 N 
ATOM     17  C   UNL     1      48.293   6.240  14.780  0.00  0.00    +0.000 C 
ATOM     18  O   UNL     1      49.440   6.621  14.566  0.00  0.00    +0.000 OA
ATOM     19  H   UNL     1      46.903   5.710  16.218  0.00  0.00    +0.000 HD
BRANCH  17  20
ATOM     20  C   UNL     1      47.296   6.176  13.703  0.00  0.00    +0.000 A 
ATOM     21  C   UNL     1      46.903   7.346  13.066  0.00  0.00    +0.000 A 
ATOM     22  S   UNL     1      45.759   7.101  11.826  0.00  0.00    +0.000 S 
ATOM     23  C   UNL     1      45.715   5.426  12.123  0.00  0.00    +0.000 A 
ATOM     24  N   UNL     1      44.893   4.612  11.408  0.00  0.00    +0.000 NA
ATOM     25  C   UNL     1      44.938   3.369  11.757  0.00  0.00    +0.000 A 
ATOM     26  N   UNL     1      45.738   2.866  12.748  0.00  0.00    +0.000 N 
ATOM     27  C   UNL     1      46.604   3.645  13.477  0.00  0.00    +0.000 A 
ATOM     28  O   UNL     1      47.341   3.155  14.328  0.00  0.00    +0.000 OA
ATOM     29  C   UNL     1      46.579   5.055  13.139  0.00  0.00    +0.000 A 
ATOM     30  H   UNL     1      45.734   1.880  12.965  0.00  0.00    +0.000 HD
ENDBRANCH  17  20
ENDBRANCH   1  16
TORSDOF 8
ENDMDL
MODEL 7
REMARK VINA RESULT:    -6.614      2.300      3.513
REMARK INTER + INTRA:         -10.205
REMARK INTER:                  -9.272
REMARK INTRA:                  -0.933
REMARK UNBOUND:                -0.691
REMARK  Name = 
REMARK  8 active torsions:
REMARK  status: ('A' for Active; 'I' for Inactive)
REMARK    1  A    between atoms: N_1  and  C_2
REMARK    2  A    between atoms: C_2  and  C_3
REMARK    3  A    between atoms: C_3  and  N_4
REMARK    4  A    between atoms: N_4  and  C_5
REMARK    5  A    between atoms: C_5  and  C_6
REMARK    6  A    between atoms: C_9  and  C_10
REMARK    7  A    between atoms: C_10  and  N_11
REMARK    8  A    between atoms: C_12  and  C_14
REMARK                            x       y       z     vdW  Elec       q    Type
REMARK                         _______ _______ _______ _____ _____    ______ ____
ROOT
ATOM      1  C   UNL     1      48.057   6.742  13.350  0.00  0.00    +0.000 C 
ENDROOT
BRANCH   1   5
ATOM      2  C   UNL     1      44.876   4.575  11.529  0.00  0.00    +0.000 A 
ATOM      3  C   UNL     1      45.334   4.161  12.777  0.00  0.00    +0.000 A 
ATOM      4  C   UNL     1      46.368   4.865  13.384  0.00  0.00    +0.000 A 
ATOM      5  C   UNL     1      46.941   5.957  12.729  0.00  0.00    +0.000 A 
ATOM      6  C   UNL     1      46.409   6.312  11.495  0.00  0.00    +0.000 A 
ATOM      7  N   UNL     1      45.397   5.651  10.886  0.00  0.00    +0.000 NA
BRANCH   2   8
ATOM      8  C   UNL     1      43.709   3.860  10.876  0.00  0.00    +0.000 C 
BRANCH   8   9
ATOM      9  N   UNL     1      44.008   2.482  10.429  0.00  0.00    +0.000 NA
ATOM     10  H   UNL     1      44.448   2.013  11.226  0.00  0.00    +0.000 HD
BRANCH   9  11
ATOM     11  C   UNL     1      45.012   2.455   9.349  0.00  0.00    +0.000 C 
BRANCH  11  12
ATOM     12  C   UNL     1      44.691   3.400   8.175  0.00  0.00    +0.000 C 
BRANCH  12  13
ATOM     13  N   UNL     1      45.775   4.369   7.963  0.00  0.00    +0.000 NA
ATOM     14  H   UNL     1      46.326   4.435   8.820  0.00  0.00    +0.000 HD
ATOM     15  H   UNL     1      45.368   5.291   7.816  0.00  0.00    +0.000 HD
ENDBRANCH  12  13
ENDBRANCH  11  12
ENDBRANCH   9  11
ENDBRANCH   8   9
ENDBRANCH   2   8
ENDBRANCH   1   5
BRANCH   1  16
ATOM     16  N   UNL     1      47.918   6.820  14.783  0.00  0.00    +0.000 N 
ATOM     17  C   UNL     1      49.021   6.784  15.598  0.00  0.00    +0.000 C 
ATOM     18  O   UNL     1      50.160   6.769  15.141  0.00  0.00    +0.000 OA
ATOM     19  H   UNL     1      47.002   6.613  15.174  0.00  0.00    +0.000 HD
BRANCH  17  20
ATOM     20  C   UNL     1      48.778   6.816  17.046  0.00  0.00    +0.000 A 
ATOM     21  C   UNL     1      48.493   8.027  17.664  0.00  0.00    +0.000 A 
ATOM     22  S   UNL     1      48.215   7.893  19.341  0.00  0.00    +0.000 S 
ATOM     23  C   UNL     1      48.506   6.217  19.310  0.00  0.00    +0.000 A 
ATOM     24  N   UNL     1      48.456   5.480  20.452  0.00  0.00    +0.000 NA
ATOM     25  C   UNL     1      48.727   4.227  20.289  0.00  0.00    +0.000 A 
ATOM     26  N   UNL     1      49.032   3.644  19.087  0.00  0.00    +0.000 N 
ATOM     27  C   UNL     1      49.066   4.344  17.905  0.00  0.00    +0.000 A 
ATOM     28  O   UNL     1      49.298   3.782  16.838  0.00  0.00    +0.000 OA
ATOM     29  C   UNL     1      48.790   5.762  18.033  0.00  0.00    +0.000 A 
ATOM     30  H   UNL     1      49.223   2.654  19.027  0.00  0.00    +0.000 HD
ENDBRANCH  17  20
ENDBRANCH   1  16
TORSDOF 8
ENDMDL
MODEL 8
REMARK VINA RESULT:    -6.603      1.768      2.298
REMARK INTER + INTRA:         -10.189
REMARK INTER:                  -9.566
REMARK INTRA:                  -0.623
REMARK UNBOUND:                -0.691
REMARK  Name = 
REMARK  8 active torsions:
REMARK  status: ('A' for Active; 'I' for Inactive)
REMARK    1  A    between atoms: N_1  and  C_2
REMARK    2  A    between atoms: C_2  and  C_3
REMARK    3  A    between atoms: C_3  and  N_4
REMARK    4  A    between atoms: N_4  and  C_5
REMARK    5  A    between atoms: C_5  and  C_6
REMARK    6  A    between atoms: C_9  and  C_10
REMARK    7  A    between atoms: C_10  and  N_11
REMARK    8  A    between atoms: C_12  and  C_14
REMARK                            x       y       z     vdW  Elec       q    Type
REMARK                         _______ _______ _______ _____ _____    ______ ____
ROOT
ATOM      1  C   UNL     1      45.077   5.664  13.156  0.00  0.00    +0.000 C 
ENDROOT
BRANCH   1   5
ATOM      2  C   UNL     1      45.206   3.614   9.427  0.00  0.00    +0.000 A 
ATOM      3  C   UNL     1      45.560   4.960   9.458  0.00  0.00    +0.000 A 
ATOM      4  C   UNL     1      45.527   5.638  10.672  0.00  0.00    +0.000 A 
ATOM      5  C   UNL     1      45.125   4.969  11.829  0.00  0.00    +0.000 A 
ATOM      6  C   UNL     1      44.807   3.621  11.709  0.00  0.00    +0.000 A 
ATOM      7  N   UNL     1      44.840   2.934  10.542  0.00  0.00    +0.000 NA
BRANCH   2   8
ATOM      8  C   UNL     1      45.293   2.839   8.125  0.00  0.00    +0.000 C 
BRANCH   8   9
ATOM      9  N   UNL     1      45.796   1.456   8.269  0.00  0.00    +0.000 NA
ATOM     10  H   UNL     1      46.023   1.337   9.260  0.00  0.00    +0.000 HD
BRANCH   9  11
ATOM     11  C   UNL     1      47.064   1.249   7.543  0.00  0.00    +0.000 C 
BRANCH  11  12
ATOM     12  C   UNL     1      47.282   2.231   6.377  0.00  0.00    +0.000 C 
BRANCH  12  13
ATOM     13  N   UNL     1      48.471   1.869   5.594  0.00  0.00    +0.000 NA
ATOM     14  H   UNL     1      49.008   1.176   6.118  0.00  0.00    +0.000 HD
ATOM     15  H   UNL     1      49.072   2.688   5.511  0.00  0.00    +0.000 HD
ENDBRANCH  12  13
ENDBRANCH  11  12
ENDBRANCH   9  11
ENDBRANCH   8   9
ENDBRANCH   2   8
ENDBRANCH   1   5
BRANCH   1  16
ATOM     16  N   UNL     1      46.282   6.414  13.406  0.00  0.00    +0.000 N 
ATOM     17  C   UNL     1      47.409   5.794  13.883  0.00  0.00    +0.000 C 
ATOM     18  O   UNL     1      47.460   4.577  14.036  0.00  0.00    +0.000 OA
ATOM     19  H   UNL     1      46.193   7.423  13.495  0.00  0.00    +0.000 HD
BRANCH  17  20
ATOM     20  C   UNL     1      48.572   6.648  14.156  0.00  0.00    +0.000 A 
ATOM     21  C   UNL     1      49.153   7.364  13.116  0.00  0.00    +0.000 A 
ATOM     22  S   UNL     1      50.477   8.323  13.600  0.00  0.00    +0.000 S 
ATOM     23  C   UNL     1      50.349   7.785  15.209  0.00  0.00    +0.000 A 
ATOM     24  N   UNL     1      51.224   8.212  16.158  0.00  0.00    +0.000 NA
ATOM     25  C   UNL     1      51.031   7.701  17.329  0.00  0.00    +0.000 A 
ATOM     26  N   UNL     1      50.035   6.812  17.638  0.00  0.00    +0.000 N 
ATOM     27  C   UNL     1      49.112   6.376  16.719  0.00  0.00    +0.000 A 
ATOM     28  O   UNL     1      48.204   5.614  17.039  0.00  0.00    +0.000 OA
ATOM     29  C   UNL     1      49.296   6.903  15.380  0.00  0.00    +0.000 A 
ATOM     30  H   UNL     1      49.931   6.459  18.578  0.00  0.00    +0.000 HD
ENDBRANCH  17  20
ENDBRANCH   1  16
TORSDOF 8
ENDMDL
MODEL 9
REMARK VINA RESULT:    -6.493      4.212      8.120
REMARK INTER + INTRA:         -10.030
REMARK INTER:                  -8.828
REMARK INTRA:                  -1.203
REMARK UNBOUND:                -0.691
REMARK  Name = 
REMARK  8 active torsions:
REMARK  status: ('A' for Active; 'I' for Inactive)
REMARK    1  A    between atoms: N_1  and  C_2
REMARK    2  A    between atoms: C_2  and  C_3
REMARK    3  A    between atoms: C_3  and  N_4
REMARK    4  A    between atoms: N_4  and  C_5
REMARK    5  A    between atoms: C_5  and  C_6
REMARK    6  A    between atoms: C_9  and  C_10
REMARK    7  A    between atoms: C_10  and  N_11
REMARK    8  A    between atoms: C_12  and  C_14
REMARK                            x       y       z     vdW  Elec       q    Type
REMARK                         _______ _______ _______ _____ _____    ______ ____
ROOT
ATOM      1  C   UNL     1      47.209   3.382  16.836  0.00  0.00    +0.000 C 
ENDROOT
BRANCH   1   5
ATOM      2  C   UNL     1      51.383   3.403  17.676  0.00  0.00    +0.000 A 
ATOM      3  C   UNL     1      50.645   4.552  17.945  0.00  0.00    +0.000 A 
ATOM      4  C   UNL     1      49.279   4.554  17.680  0.00  0.00    +0.000 A 
ATOM      5  C   UNL     1      48.677   3.419  17.135  0.00  0.00    +0.000 A 
ATOM      6  C   UNL     1      49.487   2.311  16.916  0.00  0.00    +0.000 A 
ATOM      7  N   UNL     1      50.815   2.277  17.173  0.00  0.00    +0.000 NA
BRANCH   2   8
ATOM      8  C   UNL     1      52.861   3.357  18.013  0.00  0.00    +0.000 C 
BRANCH   8   9
ATOM      9  N   UNL     1      53.203   2.474  19.149  0.00  0.00    +0.000 NA
ATOM     10  H   UNL     1      53.661   3.070  19.845  0.00  0.00    +0.000 HD
BRANCH   9  11
ATOM     11  C   UNL     1      54.204   1.455  18.779  0.00  0.00    +0.000 C 
BRANCH  11  12
ATOM     12  C   UNL     1      53.680   0.401  17.784  0.00  0.00    +0.000 C 
BRANCH  12  13
ATOM     13  N   UNL     1      52.439  -0.215  18.270  0.00  0.00    +0.000 NA
ATOM     14  H   UNL     1      51.745   0.519  18.416  0.00  0.00    +0.000 HD
ATOM     15  H   UNL     1      52.612  -0.626  19.187  0.00  0.00    +0.000 HD
ENDBRANCH  12  13
ENDBRANCH  11  12
ENDBRANCH   9  11
ENDBRANCH   8   9
ENDBRANCH   2   8
ENDBRANCH   1   5
BRANCH   1  16
ATOM     16  N   UNL     1      46.831   4.413  15.903  0.00  0.00    +0.000 N 
ATOM     17  C   UNL     1      46.916   4.200  14.550  0.00  0.00    +0.000 C 
ATOM     18  O   UNL     1      47.234   3.108  14.087  0.00  0.00    +0.000 OA
ATOM     19  H   UNL     1      46.782   5.365  16.255  0.00  0.00    +0.000 HD
BRANCH  17  20
ATOM     20  C   UNL     1      46.559   5.326  13.677  0.00  0.00    +0.000 A 
ATOM     21  C   UNL     1      45.382   5.273  12.941  0.00  0.00    +0.000 A 
ATOM     22  S   UNL     1      45.101   6.664  11.996  0.00  0.00    +0.000 S 
ATOM     23  C   UNL     1      46.563   7.370  12.503  0.00  0.00    +0.000 A 
ATOM     24  N   UNL     1      46.952   8.585  12.030  0.00  0.00    +0.000 NA
ATOM     25  C   UNL     1      48.095   8.989  12.475  0.00  0.00    +0.000 A 
ATOM     26  N   UNL     1      48.880   8.293  13.356  0.00  0.00    +0.000 N 
ATOM     27  C   UNL     1      48.515   7.077  13.881  0.00  0.00    +0.000 A 
ATOM     28  O   UNL     1      49.220   6.501  14.705  0.00  0.00    +0.000 OA
ATOM     29  C   UNL     1      47.246   6.566  13.399  0.00  0.00    +0.000 A 
ATOM     30  H   UNL     1      49.761   8.671  13.674  0.00  0.00    +0.000 HD
ENDBRANCH  17  20
ENDBRANCH   1  16
TORSDOF 8
ENDMDL
