MODEL 1
REMARK VINA RESULT:    -7.397      0.000      0.000
REMARK INTER + INTRA:         -11.075
REMARK INTER:                  -9.991
REMARK INTRA:                  -1.084
REMARK UNBOUND:                -1.084
REMARK  Name = 
REMARK  6 active torsions:
REMARK  status: ('A' for Active; 'I' for Inactive)
REMARK    1  A    between atoms: C_2  and  C_19
REMARK    2  A    between atoms: N_3  and  C_4
REMARK    3  A    between atoms: C_4  and  C_5
REMARK    4  A    between atoms: C_8  and  C_9
REMARK    5  A    between atoms: C_10  and  C_11
REMARK    6  A    between atoms: C_11  and  C_12
REMARK                            x       y       z     vdW  Elec       q    Type
REMARK                         _______ _______ _______ _____ _____    ______ ____
ROOT
ATOM      1  C   UNL     1      47.631   8.858  14.165  0.00  0.00    +0.000 C 
ENDROOT
BRANCH   1   2
ATOM      2  C   UNL     1      46.933   8.008  13.136  0.00  0.00    +0.000 A 
ATOM      3  C   UNL     1      47.661   7.065  12.405  0.00  0.00    +0.000 A 
ATOM      4  C   UNL     1      47.026   6.244  11.472  0.00  0.00    +0.000 A 
ATOM      5  C   UNL     1      45.647   6.334  11.249  0.00  0.00    +0.000 A 
ATOM      6  C   UNL     1      44.925   7.314  11.944  0.00  0.00    +0.000 A 
ATOM      7  C   UNL     1      45.562   8.146  12.879  0.00  0.00    +0.000 A 
BRANCH   5   8
ATOM      8  C   UNL     1      44.959   5.459  10.283  0.00  0.00    +0.000 C 
ATOM      9  C   UNL     1      45.598   4.821   9.289  0.00  0.00    +0.000 C 
BRANCH   9  10
ATOM     10  C   UNL     1      44.965   3.909   8.275  0.00  0.00    +0.000 C 
BRANCH  10  11
ATOM     11  C   UNL     1      45.947   3.031   7.566  0.00  0.00    +0.000 A 
ATOM     12  C   UNL     1      46.639   3.211   6.384  0.00  0.00    +0.000 A 
ATOM     13  C   UNL     1      47.451   2.069   6.184  0.00  0.00    +0.000 A 
ATOM     14  C   UNL     1      47.236   1.222   7.247  0.00  0.00    +0.000 A 
ATOM     15  N   UNL     1      46.323   1.812   8.080  0.00  0.00    +0.000 N 
ATOM     16  H   UNL     1      45.993   1.425   8.955  0.00  0.00    +0.000 HD
ENDBRANCH  10  11
ENDBRANCH   9  10
ENDBRANCH   5   8
ENDBRANCH   1   2
BRANCH   1  19
ATOM     17  O   UNL     1      50.231   8.140  14.977  0.00  0.00    +0.000 OA
ATOM     18  C   UNL     1      49.278   7.825  15.683  0.00  0.00    +0.000 C 
ATOM     19  N   UNL     1      47.979   8.099  15.339  0.00  0.00    +0.000 N 
ATOM     20  H   UNL     1      47.248   7.988  16.032  0.00  0.00    +0.000 HD
BRANCH  18  21
ATOM     21  C   UNL     1      49.470   7.076  16.930  0.00  0.00    +0.000 A 
ATOM     22  C   UNL     1      50.178   7.645  17.980  0.00  0.00    +0.000 A 
ATOM     23  S   UNL     1      50.297   6.633  19.348  0.00  0.00    +0.000 S 
ATOM     24  C   UNL     1      49.379   5.416  18.597  0.00  0.00    +0.000 A 
ATOM     25  N   UNL     1      49.075   4.261  19.252  0.00  0.00    +0.000 NA
ATOM     26  C   UNL     1      48.338   3.443  18.578  0.00  0.00    +0.000 A 
ATOM     27  N   UNL     1      47.888   3.668  17.302  0.00  0.00    +0.000 N 
ATOM     28  C   UNL     1      48.235   4.779  16.574  0.00  0.00    +0.000 A 
ATOM     29  O   UNL     1      47.939   4.878  15.388  0.00  0.00    +0.000 OA
ATOM     30  C   UNL     1      49.014   5.758  17.309  0.00  0.00    +0.000 A 
ATOM     31  H   UNL     1      47.345   2.970  16.812  0.00  0.00    +0.000 HD
ENDBRANCH  18  21
ENDBRANCH   1  19
TORSDOF 6
ENDMDL
MODEL 2
REMARK VINA RESULT:    -7.350      2.889      3.608
REMARK INTER + INTRA:         -11.012
REMARK INTER:                  -9.943
REMARK INTRA:                  -1.068
REMARK UNBOUND:                -1.084
REMARK  Name = 
REMARK  6 active torsions:
REMARK  status: ('A' for Active; 'I' for Inactive)
REMARK    1  A    between atoms: C_2  and  C_19
REMARK    2  A    between atoms: N_3  and  C_4
REMARK    3  A    between atoms: C_4  and  C_5
REMARK    4  A    between atoms: C_8  and  C_9
REMARK    5  A    between atoms: C_10  and  C_11
REMARK    6  A    between atoms: C_11  and  C_12
REMARK                            x       y       z     vdW  Elec       q    Type
REMARK                         _______ _______ _______ _____ _____    ______ ____
ROOT
ATOM      1  C   UNL     1      49.206   6.806  16.406  0.00  0.00    +0.000 C 
ENDROOT
BRANCH   1   2
ATOM      2  C   UNL     1      48.331   6.129  15.384  0.00  0.00    +0.000 A 
ATOM      3  C   UNL     1      47.662   4.948  15.716  0.00  0.00    +0.000 A 
ATOM      4  C   UNL     1      46.819   4.324  14.794  0.00  0.00    +0.000 A 
ATOM      5  C   UNL     1      46.614   4.866  13.520  0.00  0.00    +0.000 A 
ATOM      6  C   UNL     1      47.324   6.022  13.168  0.00  0.00    +0.000 A 
ATOM      7  C   UNL     1      48.177   6.648  14.091  0.00  0.00    +0.000 A 
BRANCH   5   8
ATOM      8  C   UNL     1      45.710   4.231  12.544  0.00  0.00    +0.000 C 
ATOM      9  C   UNL     1      44.687   4.880  11.964  0.00  0.00    +0.000 C 
BRANCH   9  10
ATOM     10  C   UNL     1      43.732   4.300  10.957  0.00  0.00    +0.000 C 
BRANCH  10  11
ATOM     11  C   UNL     1      44.413   3.581   9.835  0.00  0.00    +0.000 A 
ATOM     12  C   UNL     1      44.939   4.045   8.645  0.00  0.00    +0.000 A 
ATOM     13  C   UNL     1      45.481   2.935   7.954  0.00  0.00    +0.000 A 
ATOM     14  C   UNL     1      45.274   1.823   8.738  0.00  0.00    +0.000 A 
ATOM     15  N   UNL     1      44.627   2.223   9.877  0.00  0.00    +0.000 N 
ATOM     16  H   UNL     1      44.366   1.618  10.646  0.00  0.00    +0.000 HD
ENDBRANCH  10  11
ENDBRANCH   9  10
ENDBRANCH   5   8
ENDBRANCH   1   2
BRANCH   1  19
ATOM     17  O   UNL     1      49.634   5.886  19.034  0.00  0.00    +0.000 OA
ATOM     18  C   UNL     1      50.389   5.513  18.141  0.00  0.00    +0.000 C 
ATOM     19  N   UNL     1      50.276   5.947  16.845  0.00  0.00    +0.000 N 
ATOM     20  H   UNL     1      50.797   5.474  16.116  0.00  0.00    +0.000 HD
BRANCH  18  21
ATOM     21  C   UNL     1      51.512   4.609  18.422  0.00  0.00    +0.000 A 
ATOM     22  C   UNL     1      52.594   5.059  19.166  0.00  0.00    +0.000 A 
ATOM     23  S   UNL     1      53.801   3.875  19.395  0.00  0.00    +0.000 S 
ATOM     24  C   UNL     1      52.903   2.714  18.537  0.00  0.00    +0.000 A 
ATOM     25  N   UNL     1      53.363   1.441  18.387  0.00  0.00    +0.000 NA
ATOM     26  C   UNL     1      52.561   0.655  17.749  0.00  0.00    +0.000 A 
ATOM     27  N   UNL     1      51.346   1.029  17.237  0.00  0.00    +0.000 N 
ATOM     28  C   UNL     1      50.877   2.318  17.294  0.00  0.00    +0.000 A 
ATOM     29  O   UNL     1      49.858   2.650  16.696  0.00  0.00    +0.000 OA
ATOM     30  C   UNL     1      51.715   3.227  18.053  0.00  0.00    +0.000 A 
ATOM     31  H   UNL     1      50.780   0.376  16.713  0.00  0.00    +0.000 HD
ENDBRANCH  18  21
ENDBRANCH   1  19
TORSDOF 6
ENDMDL
MODEL 3
REMARK VINA RESULT:    -6.955      4.869      9.718
REMARK INTER + INTRA:         -10.478
REMARK INTER:                  -9.674
REMARK INTRA:                  -0.804
REMARK UNBOUND:                -1.084
REMARK  Name = 
REMARK  6 active torsions:
REMARK  status: ('A' for Active; 'I' for Inactive)
REMARK    1  A    between atoms: C_2  and  C_19
REMARK    2  A    between atoms: N_3  and  C_4
REMARK    3  A    between atoms: C_4  and  C_5
REMARK    4  A    between atoms: C_8  and  C_9
REMARK    5  A    between atoms: C_10  and  C_11
REMARK    6  A    between atoms: C_11  and  C_12
REMARK                            x       y       z     vdW  Elec       q    Type
REMARK                         _______ _______ _______ _____ _____    ______ ____
ROOT
ATOM      1  C   UNL     1      47.131   3.463  16.946  0.00  0.00    +0.000 C 
ENDROOT
BRANCH   1   2
ATOM      2  C   UNL     1      48.609   3.321  17.196  0.00  0.00    +0.000 A 
ATOM      3  C   UNL     1      49.322   4.380  17.765  0.00  0.00    +0.000 A 
ATOM      4  C   UNL     1      50.686   4.256  18.036  0.00  0.00    +0.000 A 
ATOM      5  C   UNL     1      51.373   3.069  17.756  0.00  0.00    +0.000 A 
ATOM      6  C   UNL     1      50.671   2.025  17.138  0.00  0.00    +0.000 A 
ATOM      7  C   UNL     1      49.301   2.150  16.858  0.00  0.00    +0.000 A 
BRANCH   5   8
ATOM      8  C   UNL     1      52.808   2.914  18.057  0.00  0.00    +0.000 C 
ATOM      9  C   UNL     1      53.450   1.737  17.977  0.00  0.00    +0.000 C 
BRANCH   9  10
ATOM     10  C   UNL     1      54.909   1.507  18.260  0.00  0.00    +0.000 C 
BRANCH  10  11
ATOM     11  C   UNL     1      55.201   0.153  18.825  0.00  0.00    +0.000 A 
ATOM     12  C   UNL     1      55.659  -1.003  18.223  0.00  0.00    +0.000 A 
ATOM     13  C   UNL     1      55.774  -1.993  19.228  0.00  0.00    +0.000 A 
ATOM     14  C   UNL     1      55.385  -1.419  20.416  0.00  0.00    +0.000 A 
ATOM     15  N   UNL     1      55.039  -0.118  20.164  0.00  0.00    +0.000 N 
ATOM     16  H   UNL     1      54.736   0.553  20.858  0.00  0.00    +0.000 HD
ENDBRANCH  10  11
ENDBRANCH   9  10
ENDBRANCH   5   8
ENDBRANCH   1   2
BRANCH   1  19
ATOM     17  O   UNL     1      47.265   3.079  14.158  0.00  0.00    +0.000 OA
ATOM     18  C   UNL     1      46.903   4.168  14.593  0.00  0.00    +0.000 C 
ATOM     19  N   UNL     1      46.853   4.451  15.935  0.00  0.00    +0.000 N 
ATOM     20  H   UNL     1      46.375   5.288  16.247  0.00  0.00    +0.000 HD
BRANCH  18  21
ATOM     21  C   UNL     1      46.552   5.271  13.690  0.00  0.00    +0.000 A 
ATOM     22  C   UNL     1      47.466   6.288  13.449  0.00  0.00    +0.000 A 
ATOM     23  S   UNL     1      46.890   7.479  12.373  0.00  0.00    +0.000 S 
ATOM     24  C   UNL     1      45.415   6.660  12.167  0.00  0.00    +0.000 A 
ATOM     25  N   UNL     1      44.457   7.138  11.326  0.00  0.00    +0.000 NA
ATOM     26  C   UNL     1      43.406   6.395  11.235  0.00  0.00    +0.000 A 
ATOM     27  N   UNL     1      43.218   5.222  11.919  0.00  0.00    +0.000 N 
ATOM     28  C   UNL     1      44.119   4.742  12.837  0.00  0.00    +0.000 A 
ATOM     29  O   UNL     1      43.853   3.772  13.540  0.00  0.00    +0.000 OA
ATOM     30  C   UNL     1      45.346   5.511  12.932  0.00  0.00    +0.000 A 
ATOM     31  H   UNL     1      42.355   4.704  11.835  0.00  0.00    +0.000 HD
ENDBRANCH  18  21
ENDBRANCH   1  19
TORSDOF 6
ENDMDL
MODEL 4
REMARK VINA RESULT:    -6.734      1.882      2.132
REMARK INTER + INTRA:         -10.180
REMARK INTER:                  -9.268
REMARK INTRA:                  -0.913
REMARK UNBOUND:                -1.084
REMARK  Name = 
REMARK  6 active torsions:
REMARK  status: ('A' for Active; 'I' for Inactive)
REMARK    1  A    between atoms: C_2  and  C_19
REMARK    2  A    between atoms: N_3  and  C_4
REMARK    3  A    between atoms: C_4  and  C_5
REMARK    4  A    between atoms: C_8  and  C_9
REMARK    5  A    between atoms: C_10  and  C_11
REMARK    6  A    between atoms: C_11  and  C_12
REMARK                            x       y       z     vdW  Elec       q    Type
REMARK                         _______ _______ _______ _____ _____    ______ ____
ROOT
ATOM      1  C   UNL     1      48.286   7.951  14.982  0.00  0.00    +0.000 C 
ENDROOT
BRANCH   1   2
ATOM      2  C   UNL     1      47.475   7.293  13.898  0.00  0.00    +0.000 A 
ATOM      3  C   UNL     1      46.733   8.079  13.011  0.00  0.00    +0.000 A 
ATOM      4  C   UNL     1      46.003   7.489  11.978  0.00  0.00    +0.000 A 
ATOM      5  C   UNL     1      46.000   6.101  11.795  0.00  0.00    +0.000 A 
ATOM      6  C   UNL     1      46.702   5.309  12.714  0.00  0.00    +0.000 A 
ATOM      7  C   UNL     1      47.432   5.899  13.758  0.00  0.00    +0.000 A 
BRANCH   5   8
ATOM      8  C   UNL     1      45.251   5.466  10.696  0.00  0.00    +0.000 C 
ATOM      9  C   UNL     1      45.844   4.969   9.598  0.00  0.00    +0.000 C 
BRANCH   9  10
ATOM     10  C   UNL     1      45.147   4.302   8.444  0.00  0.00    +0.000 C 
BRANCH  10  11
ATOM     11  C   UNL     1      46.003   3.308   7.725  0.00  0.00    +0.000 A 
ATOM     12  C   UNL     1      46.259   1.975   7.981  0.00  0.00    +0.000 A 
ATOM     13  C   UNL     1      47.133   1.504   6.972  0.00  0.00    +0.000 A 
ATOM     14  C   UNL     1      47.387   2.558   6.125  0.00  0.00    +0.000 A 
ATOM     15  N   UNL     1      46.699   3.648   6.588  0.00  0.00    +0.000 N 
ATOM     16  H   UNL     1      46.681   4.559   6.148  0.00  0.00    +0.000 HD
ENDBRANCH  10  11
ENDBRANCH   9  10
ENDBRANCH   5   8
ENDBRANCH   1   2
BRANCH   1  19
ATOM     17  O   UNL     1      48.403   6.921  17.602  0.00  0.00    +0.000 OA
ATOM     18  C   UNL     1      49.256   6.578  16.788  0.00  0.00    +0.000 C 
ATOM     19  N   UNL     1      49.295   7.067  15.507  0.00  0.00    +0.000 N 
ATOM     20  H   UNL     1      49.896   6.620  14.824  0.00  0.00    +0.000 HD
BRANCH  18  21
ATOM     21  C   UNL     1      50.335   5.655  17.159  0.00  0.00    +0.000 A 
ATOM     22  C   UNL     1      51.540   6.153  17.635  0.00  0.00    +0.000 A 
ATOM     23  S   UNL     1      52.674   4.938  18.019  0.00  0.00    +0.000 S 
ATOM     24  C   UNL     1      51.583   3.707  17.593  0.00  0.00    +0.000 A 
ATOM     25  N   UNL     1      51.920   2.393  17.719  0.00  0.00    +0.000 NA
ATOM     26  C   UNL     1      50.982   1.567  17.399  0.00  0.00    +0.000 A 
ATOM     27  N   UNL     1      49.740   1.933  16.950  0.00  0.00    +0.000 N 
ATOM     28  C   UNL     1      49.381   3.240  16.731  0.00  0.00    +0.000 A 
ATOM     29  O   UNL     1      48.318   3.524  16.189  0.00  0.00    +0.000 OA
ATOM     30  C   UNL     1      50.381   4.211  17.133  0.00  0.00    +0.000 A 
ATOM     31  H   UNL     1      49.059   1.237  16.678  0.00  0.00    +0.000 HD
ENDBRANCH  18  21
ENDBRANCH   1  19
TORSDOF 6
ENDMDL
MODEL 5
REMARK VINA RESULT:    -6.547      3.852      5.988
REMARK INTER + INTRA:          -9.927
REMARK INTER:                  -9.148
REMARK INTRA:                  -0.779
REMARK UNBOUND:                -1.084
REMARK  Name = 
REMARK  6 active torsions:
REMARK  status: ('A' for Active; 'I' for Inactive)
REMARK    1  A    between atoms: C_2  and  C_19
REMARK    2  A    between atoms: N_3  and  C_4
REMARK    3  A    between atoms: C_4  and  C_5
REMARK    4  A    between atoms: C_8  and  C_9
REMARK    5  A    between atoms: C_10  and  C_11
REMARK    6  A    between atoms: C_11  and  C_12
REMARK                            x       y       z     vdW  Elec       q    Type
REMARK                         _______ _______ _______ _____ _____    ______ ____
ROOT
ATOM      1  C   UNL     1      46.464   4.114  14.048  0.00  0.00    +0.000 C 
ENDROOT
BRANCH   1   2
ATOM      2  C   UNL     1      46.000   5.316  13.268  0.00  0.00    +0.000 A 
ATOM      3  C   UNL     1      44.664   5.411  12.869  0.00  0.00    +0.000 A 
ATOM      4  C   UNL     1      44.206   6.533  12.176  0.00  0.00    +0.000 A 
ATOM      5  C   UNL     1      45.066   7.594  11.870  0.00  0.00    +0.000 A 
ATOM      6  C   UNL     1      46.417   7.477  12.224  0.00  0.00    +0.000 A 
ATOM      7  C   UNL     1      46.881   6.347  12.915  0.00  0.00    +0.000 A 
BRANCH   5   8
ATOM      8  C   UNL     1      44.592   8.795  11.158  0.00  0.00    +0.000 C 
ATOM      9  C   UNL     1      43.291   9.078  10.985  0.00  0.00    +0.000 C 
BRANCH   9  10
ATOM     10  C   UNL     1      42.737  10.284  10.279  0.00  0.00    +0.000 C 
BRANCH  10  11
ATOM     11  C   UNL     1      41.425  10.747  10.829  0.00  0.00    +0.000 A 
ATOM     12  C   UNL     1      40.193  10.911  10.224  0.00  0.00    +0.000 A 
ATOM     13  C   UNL     1      39.286  11.362  11.213  0.00  0.00    +0.000 A 
ATOM     14  C   UNL     1      39.985  11.461  12.395  0.00  0.00    +0.000 A 
ATOM     15  N   UNL     1      41.280  11.086  12.154  0.00  0.00    +0.000 N 
ATOM     16  H   UNL     1      42.015  11.040  12.847  0.00  0.00    +0.000 HD
ENDBRANCH  10  11
ENDBRANCH   9  10
ENDBRANCH   5   8
ENDBRANCH   1   2
BRANCH   1  19
ATOM     17  O   UNL     1      46.542   3.407  16.773  0.00  0.00    +0.000 OA
ATOM     18  C   UNL     1      47.481   4.035  16.294  0.00  0.00    +0.000 C 
ATOM     19  N   UNL     1      47.501   4.455  14.988  0.00  0.00    +0.000 N 
ATOM     20  H   UNL     1      48.367   4.802  14.592  0.00  0.00    +0.000 HD
BRANCH  18  21
ATOM     21  C   UNL     1      48.631   4.431  17.115  0.00  0.00    +0.000 A 
ATOM     22  C   UNL     1      48.631   5.660  17.761  0.00  0.00    +0.000 A 
ATOM     23  S   UNL     1      50.044   5.950  18.672  0.00  0.00    +0.000 S 
ATOM     24  C   UNL     1      50.688   4.432  18.260  0.00  0.00    +0.000 A 
ATOM     25  N   UNL     1      51.892   4.023  18.748  0.00  0.00    +0.000 NA
ATOM     26  C   UNL     1      52.240   2.833  18.387  0.00  0.00    +0.000 A 
ATOM     27  N   UNL     1      51.499   2.018  17.571  0.00  0.00    +0.000 N 
ATOM     28  C   UNL     1      50.319   2.416  16.991  0.00  0.00    +0.000 A 
ATOM     29  O   UNL     1      49.759   1.720  16.151  0.00  0.00    +0.000 OA
ATOM     30  C   UNL     1      49.855   3.724  17.414  0.00  0.00    +0.000 A 
ATOM     31  H   UNL     1      51.843   1.110  17.292  0.00  0.00    +0.000 HD
ENDBRANCH  18  21
ENDBRANCH   1  19
TORSDOF 6
ENDMDL
MODEL 6
REMARK VINA RESULT:    -6.462      4.964      7.510
REMARK INTER + INTRA:          -9.812
REMARK INTER:                  -8.883
REMARK INTRA:                  -0.929
REMARK UNBOUND:                -1.084
REMARK  Name = 
REMARK  6 active torsions:
REMARK  status: ('A' for Active; 'I' for Inactive)
REMARK    1  A    between atoms: C_2  and  C_19
REMARK    2  A    between atoms: N_3  and  C_4
REMARK    3  A    between atoms: C_4  and  C_5
REMARK    4  A    between atoms: C_8  and  C_9
REMARK    5  A    between atoms: C_10  and  C_11
REMARK    6  A    between atoms: C_11  and  C_12
REMARK                            x       y       z     vdW  Elec       q    Type
REMARK                         _______ _______ _______ _____ _____    ______ ____
ROOT
ATOM      1  C   UNL     1      46.328   8.122  13.143  0.00  0.00    +0.000 C 
ENDROOT
BRANCH   1   2
ATOM      2  C   UNL     1      47.699   8.322  12.553  0.00  0.00    +0.000 A 
ATOM      3  C   UNL     1      48.583   7.242  12.467  0.00  0.00    +0.000 A 
ATOM      4  C   UNL     1      49.845   7.398  11.892  0.00  0.00    +0.000 A 
ATOM      5  C   UNL     1      50.257   8.634  11.378  0.00  0.00    +0.000 A 
ATOM      6  C   UNL     1      49.392   9.729  11.509  0.00  0.00    +0.000 A 
ATOM      7  C   UNL     1      48.125   9.576  12.093  0.00  0.00    +0.000 A 
BRANCH   5   8
ATOM      8  C   UNL     1      51.578   8.809  10.747  0.00  0.00    +0.000 C 
ATOM      9  C   UNL     1      52.298   7.786  10.261  0.00  0.00    +0.000 C 
BRANCH   9  10
ATOM     10  C   UNL     1      53.645   7.891   9.600  0.00  0.00    +0.000 C 
BRANCH  10  11
ATOM     11  C   UNL     1      53.929   6.775   8.645  0.00  0.00    +0.000 A 
ATOM     12  C   UNL     1      53.241   6.337   7.529  0.00  0.00    +0.000 A 
ATOM     13  C   UNL     1      53.962   5.249   6.981  0.00  0.00    +0.000 A 
ATOM     14  C   UNL     1      55.069   5.050   7.774  0.00  0.00    +0.000 A 
ATOM     15  N   UNL     1      55.042   5.979   8.779  0.00  0.00    +0.000 N 
ATOM     16  H   UNL     1      55.746   6.084   9.499  0.00  0.00    +0.000 HD
ENDBRANCH  10  11
ENDBRANCH   9  10
ENDBRANCH   5   8
ENDBRANCH   1   2
BRANCH   1  19
ATOM     17  O   UNL     1      44.553   7.505  11.045  0.00  0.00    +0.000 OA
ATOM     18  C   UNL     1      44.965   6.599  11.762  0.00  0.00    +0.000 C 
ATOM     19  N   UNL     1      45.797   6.820  12.831  0.00  0.00    +0.000 N 
ATOM     20  H   UNL     1      46.255   6.033  13.274  0.00  0.00    +0.000 HD
BRANCH  18  21
ATOM     21  C   UNL     1      44.542   5.209  11.553  0.00  0.00    +0.000 A 
ATOM     22  C   UNL     1      43.824   4.547  12.540  0.00  0.00    +0.000 A 
ATOM     23  S   UNL     1      43.415   2.944  12.124  0.00  0.00    +0.000 S 
ATOM     24  C   UNL     1      44.153   3.092  10.600  0.00  0.00    +0.000 A 
ATOM     25  N   UNL     1      44.133   2.064   9.707  0.00  0.00    +0.000 NA
ATOM     26  C   UNL     1      44.695   2.328   8.575  0.00  0.00    +0.000 A 
ATOM     27  N   UNL     1      45.287   3.523   8.258  0.00  0.00    +0.000 N 
ATOM     28  C   UNL     1      45.402   4.559   9.153  0.00  0.00    +0.000 A 
ATOM     29  O   UNL     1      46.067   5.555   8.888  0.00  0.00    +0.000 OA
ATOM     30  C   UNL     1      44.733   4.334  10.420  0.00  0.00    +0.000 A 
ATOM     31  H   UNL     1      45.745   3.656   7.368  0.00  0.00    +0.000 HD
ENDBRANCH  18  21
ENDBRANCH   1  19
TORSDOF 6
ENDMDL
MODEL 7
REMARK VINA RESULT:    -6.305      4.701      9.430
REMARK INTER + INTRA:          -9.601
REMARK INTER:                  -8.549
REMARK INTRA:                  -1.052
REMARK UNBOUND:                -1.084
REMARK  Name = 
REMARK  6 active torsions:
REMARK  status: ('A' for Active; 'I' for Inactive)
REMARK    1  A    between atoms: C_2  and  C_19
REMARK    2  A    between atoms: N_3  and  C_4
REMARK    3  A    between atoms: C_4  and  C_5
REMARK    4  A    between atoms: C_8  and  C_9
REMARK    5  A    between atoms: C_10  and  C_11
REMARK    6  A    between atoms: C_11  and  C_12
REMARK                            x       y       z     vdW  Elec       q    Type
REMARK                         _______ _______ _______ _____ _____    ______ ____
ROOT
ATOM      1  C   UNL     1      47.554   4.240  17.094  0.00  0.00    +0.000 C 
ENDROOT
BRANCH   1   2
ATOM      2  C   UNL     1      48.931   3.658  17.275  0.00  0.00    +0.000 A 
ATOM      3  C   UNL     1      49.982   4.479  17.692  0.00  0.00    +0.000 A 
ATOM      4  C   UNL     1      51.258   3.952  17.899  0.00  0.00    +0.000 A 
ATOM      5  C   UNL     1      51.517   2.590  17.706  0.00  0.00    +0.000 A 
ATOM      6  C   UNL     1      50.476   1.775  17.239  0.00  0.00    +0.000 A 
ATOM      7  C   UNL     1      49.194   2.305  17.024  0.00  0.00    +0.000 A 
BRANCH   5   8
ATOM      8  C   UNL     1      52.854   2.014  17.942  0.00  0.00    +0.000 C 
ATOM      9  C   UNL     1      53.379   1.045  17.175  0.00  0.00    +0.000 C 
BRANCH   9  10
ATOM     10  C   UNL     1      54.735   0.418  17.351  0.00  0.00    +0.000 C 
BRANCH  10  11
ATOM     11  C   UNL     1      54.755  -0.686  18.361  0.00  0.00    +0.000 A 
ATOM     12  C   UNL     1      55.226  -0.721  19.659  0.00  0.00    +0.000 A 
ATOM     13  C   UNL     1      54.981  -2.019  20.169  0.00  0.00    +0.000 A 
ATOM     14  C   UNL     1      54.367  -2.742  19.172  0.00  0.00    +0.000 A 
ATOM     15  N   UNL     1      54.233  -1.927  18.080  0.00  0.00    +0.000 N 
ATOM     16  H   UNL     1      53.793  -2.186  17.206  0.00  0.00    +0.000 HD
ENDBRANCH  10  11
ENDBRANCH   9  10
ENDBRANCH   5   8
ENDBRANCH   1   2
BRANCH   1  19
ATOM     17  O   UNL     1      47.162   3.319  14.461  0.00  0.00    +0.000 OA
ATOM     18  C   UNL     1      47.237   4.527  14.664  0.00  0.00    +0.000 C 
ATOM     19  N   UNL     1      47.470   5.055  15.909  0.00  0.00    +0.000 N 
ATOM     20  H   UNL     1      47.339   6.049  16.058  0.00  0.00    +0.000 HD
BRANCH  18  21
ATOM     21  C   UNL     1      47.138   5.493  13.564  0.00  0.00    +0.000 A 
ATOM     22  C   UNL     1      46.114   5.381  12.633  0.00  0.00    +0.000 A 
ATOM     23  S   UNL     1      46.153   6.589  11.430  0.00  0.00    +0.000 S 
ATOM     24  C   UNL     1      47.518   7.321  12.130  0.00  0.00    +0.000 A 
ATOM     25  N   UNL     1      48.059   8.452  11.599  0.00  0.00    +0.000 NA
ATOM     26  C   UNL     1      49.066   8.922  12.255  0.00  0.00    +0.000 A 
ATOM     27  N   UNL     1      49.592   8.357  13.388  0.00  0.00    +0.000 N 
ATOM     28  C   UNL     1      49.131   7.175  13.914  0.00  0.00    +0.000 A 
ATOM     29  O   UNL     1      49.718   6.621  14.838  0.00  0.00    +0.000 OA
ATOM     30  C   UNL     1      47.961   6.637  13.247  0.00  0.00    +0.000 A 
ATOM     31  H   UNL     1      50.407   8.751  13.836  0.00  0.00    +0.000 HD
ENDBRANCH  18  21
ENDBRANCH   1  19
TORSDOF 6
ENDMDL
MODEL 8
REMARK VINA RESULT:    -6.251      3.950      5.649
REMARK INTER + INTRA:          -9.527
REMARK INTER:                  -8.594
REMARK INTRA:                  -0.933
REMARK UNBOUND:                -1.084
REMARK  Name = 
REMARK  6 active torsions:
REMARK  status: ('A' for Active; 'I' for Inactive)
REMARK    1  A    between atoms: C_2  and  C_19
REMARK    2  A    between atoms: N_3  and  C_4
REMARK    3  A    between atoms: C_4  and  C_5
REMARK    4  A    between atoms: C_8  and  C_9
REMARK    5  A    between atoms: C_10  and  C_11
REMARK    6  A    between atoms: C_11  and  C_12
REMARK                            x       y       z     vdW  Elec       q    Type
REMARK                         _______ _______ _______ _____ _____    ______ ____
ROOT
ATOM      1  C   UNL     1      47.056   3.642  14.521  0.00  0.00    +0.000 C 
ENDROOT
BRANCH   1   2
ATOM      2  C   UNL     1      46.468   4.823  13.796  0.00  0.00    +0.000 A 
ATOM      3  C   UNL     1      47.237   5.976  13.608  0.00  0.00    +0.000 A 
ATOM      4  C   UNL     1      46.723   7.068  12.909  0.00  0.00    +0.000 A 
ATOM      5  C   UNL     1      45.431   7.039  12.370  0.00  0.00    +0.000 A 
ATOM      6  C   UNL     1      44.641   5.904  12.602  0.00  0.00    +0.000 A 
ATOM      7  C   UNL     1      45.154   4.806  13.310  0.00  0.00    +0.000 A 
BRANCH   5   8
ATOM      8  C   UNL     1      44.882   8.176  11.610  0.00  0.00    +0.000 C 
ATOM      9  C   UNL     1      45.003   9.452  12.012  0.00  0.00    +0.000 C 
BRANCH   9  10
ATOM     10  C   UNL     1      44.477  10.659  11.286  0.00  0.00    +0.000 C 
BRANCH  10  11
ATOM     11  C   UNL     1      42.984  10.696  11.193  0.00  0.00    +0.000 A 
ATOM     12  C   UNL     1      42.130  10.370  10.157  0.00  0.00    +0.000 A 
ATOM     13  C   UNL     1      40.806  10.576  10.611  0.00  0.00    +0.000 A 
ATOM     14  C   UNL     1      40.883  11.020  11.912  0.00  0.00    +0.000 A 
ATOM     15  N   UNL     1      42.207  11.090  12.257  0.00  0.00    +0.000 N 
ATOM     16  H   UNL     1      42.562  11.364  13.164  0.00  0.00    +0.000 HD
ENDBRANCH  10  11
ENDBRANCH   9  10
ENDBRANCH   5   8
ENDBRANCH   1   2
BRANCH   1  19
ATOM     17  O   UNL     1      48.972   2.109  15.907  0.00  0.00    +0.000 OA
ATOM     18  C   UNL     1      48.728   3.249  16.292  0.00  0.00    +0.000 C 
ATOM     19  N   UNL     1      47.780   4.044  15.700  0.00  0.00    +0.000 N 
ATOM     20  H   UNL     1      47.747   5.030  15.929  0.00  0.00    +0.000 HD
BRANCH  18  21
ATOM     21  C   UNL     1      49.407   3.819  17.462  0.00  0.00    +0.000 A 
ATOM     22  C   UNL     1      50.773   3.635  17.629  0.00  0.00    +0.000 A 
ATOM     23  S   UNL     1      51.390   4.369  19.040  0.00  0.00    +0.000 S 
ATOM     24  C   UNL     1      49.862   4.984  19.457  0.00  0.00    +0.000 A 
ATOM     25  N   UNL     1      49.693   5.753  20.567  0.00  0.00    +0.000 NA
ATOM     26  C   UNL     1      48.489   6.186  20.740  0.00  0.00    +0.000 A 
ATOM     27  N   UNL     1      47.434   5.908  19.910  0.00  0.00    +0.000 N 
ATOM     28  C   UNL     1      47.538   5.074  18.825  0.00  0.00    +0.000 A 
ATOM     29  O   UNL     1      46.545   4.729  18.192  0.00  0.00    +0.000 OA
ATOM     30  C   UNL     1      48.885   4.609  18.553  0.00  0.00    +0.000 A 
ATOM     31  H   UNL     1      46.504   6.245  20.121  0.00  0.00    +0.000 HD
ENDBRANCH  18  21
ENDBRANCH   1  19
TORSDOF 6
ENDMDL
MODEL 9
REMARK VINA RESULT:    -6.232      3.322      4.770
REMARK INTER + INTRA:          -9.501
REMARK INTER:                  -8.367
REMARK INTRA:                  -1.134
REMARK UNBOUND:                -1.084
REMARK  Name = 
REMARK  6 active torsions:
REMARK  status: ('A' for Active; 'I' for Inactive)
REMARK    1  A    between atoms: C_2  and  C_19
REMARK    2  A    between atoms: N_3  and  C_4
REMARK    3  A    between atoms: C_4  and  C_5
REMARK    4  A    between atoms: C_8  and  C_9
REMARK    5  A    between atoms: C_10  and  C_11
REMARK    6  A    between atoms: C_11  and  C_12
REMARK                            x       y       z     vdW  Elec       q    Type
REMARK                         _______ _______ _______ _____ _____    ______ ____
ROOT
ATOM      1  C   UNL     1      47.901   8.631  14.514  0.00  0.00    +0.000 C 
ENDROOT
BRANCH   1   2
ATOM      2  C   UNL     1      47.144   7.807  13.506  0.00  0.00    +0.000 A 
ATOM      3  C   UNL     1      46.120   8.395  12.758  0.00  0.00    +0.000 A 
ATOM      4  C   UNL     1      45.430   7.659  11.794  0.00  0.00    +0.000 A 
ATOM      5  C   UNL     1      45.748   6.319  11.543  0.00  0.00    +0.000 A 
ATOM      6  C   UNL     1      46.739   5.714  12.328  0.00  0.00    +0.000 A 
ATOM      7  C   UNL     1      47.431   6.451  13.303  0.00  0.00    +0.000 A 
BRANCH   5   8
ATOM      8  C   UNL     1      45.043   5.534  10.513  0.00  0.00    +0.000 C 
ATOM      9  C   UNL     1      45.679   4.886   9.523  0.00  0.00    +0.000 C 
BRANCH   9  10
ATOM     10  C   UNL     1      45.028   4.063   8.447  0.00  0.00    +0.000 C 
BRANCH  10  11
ATOM     11  C   UNL     1      45.965   3.106   7.779  0.00  0.00    +0.000 A 
ATOM     12  C   UNL     1      46.253   1.782   8.047  0.00  0.00    +0.000 A 
ATOM     13  C   UNL     1      47.207   1.349   7.094  0.00  0.00    +0.000 A 
ATOM     14  C   UNL     1      47.476   2.418   6.270  0.00  0.00    +0.000 A 
ATOM     15  N   UNL     1      46.719   3.479   6.691  0.00  0.00    +0.000 N 
ATOM     16  H   UNL     1      46.696   4.392   6.256  0.00  0.00    +0.000 HD
ENDBRANCH  10  11
ENDBRANCH   9  10
ENDBRANCH   5   8
ENDBRANCH   1   2
BRANCH   1  19
ATOM     17  O   UNL     1      50.231   7.286  15.349  0.00  0.00    +0.000 OA
ATOM     18  C   UNL     1      50.325   8.173  14.507  0.00  0.00    +0.000 C 
ATOM     19  N   UNL     1      49.246   8.905  14.079  0.00  0.00    +0.000 N 
ATOM     20  H   UNL     1      49.339   9.490  13.257  0.00  0.00    +0.000 HD
BRANCH  18  21
ATOM     21  C   UNL     1      51.625   8.550  13.939  0.00  0.00    +0.000 A 
ATOM     22  C   UNL     1      52.642   8.996  14.771  0.00  0.00    +0.000 A 
ATOM     23  S   UNL     1      54.080   9.385  13.940  0.00  0.00    +0.000 S 
ATOM     24  C   UNL     1      53.403   8.940  12.446  0.00  0.00    +0.000 A 
ATOM     25  N   UNL     1      54.132   9.002  11.298  0.00  0.00    +0.000 NA
ATOM     26  C   UNL     1      53.507   8.596  10.244  0.00  0.00    +0.000 A 
ATOM     27  N   UNL     1      52.212   8.146  10.231  0.00  0.00    +0.000 N 
ATOM     28  C   UNL     1      51.413   8.141  11.348  0.00  0.00    +0.000 A 
ATOM     29  O   UNL     1      50.218   7.874  11.271  0.00  0.00    +0.000 OA
ATOM     30  C   UNL     1      52.088   8.532  12.571  0.00  0.00    +0.000 A 
ATOM     31  H   UNL     1      51.764   7.877   9.366  0.00  0.00    +0.000 HD
ENDBRANCH  18  21
ENDBRANCH   1  19
TORSDOF 6
ENDMDL
