MODEL 1
REMARK VINA RESULT:    -8.490      0.000      0.000
REMARK INTER + INTRA:         -13.676
REMARK INTER:                 -12.461
REMARK INTRA:                  -1.215
REMARK UNBOUND:                -1.215
REMARK  Name = 
REMARK  10 active torsions:
REMARK  status: ('A' for Active; 'I' for Inactive)
REMARK    1  A    between atoms: C_1  and  O_2
REMARK    2  A    between atoms: O_2  and  C_3
REMARK    3  A    between atoms: C_10  and  C_11
REMARK    4  A    between atoms: N_13  and  C_14
REMARK    5  A    between atoms: C_14  and  C_15
REMARK    6  A    between atoms: C_18  and  C_19
REMARK    7  A    between atoms: C_19  and  N_20
REMARK    8  A    between atoms: N_20  and  C_21
REMARK    9  A    between atoms: C_21  and  C_22
REMARK   10  A    between atoms: C_25  and  C_26
REMARK                            x       y       z     vdW  Elec       q    Type
REMARK                         _______ _______ _______ _____ _____    ______ ____
ROOT
ATOM      1  C   UNL     1      46.992   6.228  12.994  0.00  0.00    +0.000 A 
ATOM      2  C   UNL     1      46.010   5.452  13.625  0.00  0.00    +0.000 A 
ATOM      3  C   UNL     1      44.809   5.148  12.971  0.00  0.00    +0.000 A 
ATOM      4  C   UNL     1      44.561   5.610  11.670  0.00  0.00    +0.000 A 
ATOM      5  C   UNL     1      45.563   6.350  11.027  0.00  0.00    +0.000 A 
ATOM      6  C   UNL     1      46.766   6.647  11.677  0.00  0.00    +0.000 A 
ENDROOT
BRANCH   1   7
ATOM      7  C   UNL     1      48.271   6.590  13.708  0.00  0.00    +0.000 C 
BRANCH   7  10
ATOM      8  C   UNL     1      49.021   6.669  16.050  0.00  0.00    +0.000 C 
ATOM      9  O   UNL     1      50.146   6.283  15.740  0.00  0.00    +0.000 OA
ATOM     10  N   UNL     1      48.042   6.834  15.109  0.00  0.00    +0.000 N 
ATOM     11  H   UNL     1      47.101   7.068  15.392  0.00  0.00    +0.000 HD
BRANCH   8  19
ATOM     12  C   UNL     1      48.906   4.801  18.942  0.00  0.00    +0.000 A 
ATOM     13  N   UNL     1      48.689   4.301  20.176  0.00  0.00    +0.000 NA
ATOM     14  C   UNL     1      48.226   5.124  21.118  0.00  0.00    +0.000 A 
ATOM     15  N   UNL     1      47.951   6.416  20.984  0.00  0.00    +0.000 NA
ATOM     16  C   UNL     1      48.162   6.873  19.738  0.00  0.00    +0.000 A 
ATOM     17  S   UNL     1      47.878   8.511  19.390  0.00  0.00    +0.000 S 
ATOM     18  C   UNL     1      48.317   8.291  17.763  0.00  0.00    +0.000 A 
ATOM     19  C   UNL     1      48.678   6.985  17.448  0.00  0.00    +0.000 A 
ATOM     20  C   UNL     1      48.619   6.145  18.643  0.00  0.00    +0.000 A 
BRANCH  12  22
ATOM     21  C   UNL     1      48.478   3.232  17.251  0.00  0.00    +0.000 C 
ATOM     22  O   UNL     1      49.453   3.967  17.988  0.00  0.00    +0.000 OA
ENDBRANCH  12  22
ENDBRANCH   8  19
ENDBRANCH   7  10
ENDBRANCH   1   7
BRANCH   4  23
ATOM     23  C   UNL     1      43.245   5.322  10.973  0.00  0.00    +0.000 C 
BRANCH  23  24
ATOM     24  N   UNL     1      43.457   4.560   9.744  0.00  0.00    +0.000 NA
ATOM     25  H   UNL     1      44.026   5.112   9.102  0.00  0.00    +0.000 HD
BRANCH  24  26
ATOM     26  C   UNL     1      44.132   3.284   9.987  0.00  0.00    +0.000 C 
BRANCH  26  27
ATOM     27  C   UNL     1      45.146   2.996   8.897  0.00  0.00    +0.000 A 
ATOM     28  C   UNL     1      45.627   1.695   8.675  0.00  0.00    +0.000 A 
ATOM     29  C   UNL     1      46.555   1.444   7.657  0.00  0.00    +0.000 A 
ATOM     30  C   UNL     1      47.024   2.484   6.847  0.00  0.00    +0.000 A 
ATOM     31  C   UNL     1      48.024   2.228   5.759  0.00  0.00    +0.000 C 
ATOM     32  C   UNL     1      46.546   3.780   7.066  0.00  0.00    +0.000 A 
ATOM     33  C   UNL     1      45.616   4.030   8.079  0.00  0.00    +0.000 A 
ENDBRANCH  26  27
ENDBRANCH  24  26
ENDBRANCH  23  24
ENDBRANCH   4  23
TORSDOF 8
ENDMDL
MODEL 2
REMARK VINA RESULT:    -8.253      1.614      2.004
REMARK INTER + INTRA:         -13.327
REMARK INTER:                 -11.967
REMARK INTRA:                  -1.360
REMARK UNBOUND:                -1.215
REMARK  Name = 
REMARK  10 active torsions:
REMARK  status: ('A' for Active; 'I' for Inactive)
REMARK    1  A    between atoms: C_1  and  O_2
REMARK    2  A    between atoms: O_2  and  C_3
REMARK    3  A    between atoms: C_10  and  C_11
REMARK    4  A    between atoms: N_13  and  C_14
REMARK    5  A    between atoms: C_14  and  C_15
REMARK    6  A    between atoms: C_18  and  C_19
REMARK    7  A    between atoms: C_19  and  N_20
REMARK    8  A    between atoms: N_20  and  C_21
REMARK    9  A    between atoms: C_21  and  C_22
REMARK   10  A    between atoms: C_25  and  C_26
REMARK                            x       y       z     vdW  Elec       q    Type
REMARK                         _______ _______ _______ _____ _____    ______ ____
ROOT
ATOM      1  C   UNL     1      46.416   6.429  13.170  0.00  0.00    +0.000 A 
ATOM      2  C   UNL     1      45.062   6.683  12.914  0.00  0.00    +0.000 A 
ATOM      3  C   UNL     1      44.169   5.630  12.673  0.00  0.00    +0.000 A 
ATOM      4  C   UNL     1      44.609   4.297  12.685  0.00  0.00    +0.000 A 
ATOM      5  C   UNL     1      45.955   4.045  12.982  0.00  0.00    +0.000 A 
ATOM      6  C   UNL     1      46.846   5.097  13.231  0.00  0.00    +0.000 A 
ENDROOT
BRANCH   1   7
ATOM      7  C   UNL     1      47.389   7.560  13.392  0.00  0.00    +0.000 C 
BRANCH   7  10
ATOM      8  C   UNL     1      49.383   7.484  14.832  0.00  0.00    +0.000 C 
ATOM      9  O   UNL     1      50.131   7.568  13.860  0.00  0.00    +0.000 OA
ATOM     10  N   UNL     1      48.023   7.465  14.682  0.00  0.00    +0.000 N 
ATOM     11  H   UNL     1      47.427   7.309  15.483  0.00  0.00    +0.000 HD
BRANCH   8  19
ATOM     12  C   UNL     1      49.154   5.144  17.349  0.00  0.00    +0.000 A 
ATOM     13  N   UNL     1      49.151   4.462  18.512  0.00  0.00    +0.000 NA
ATOM     14  C   UNL     1      49.774   4.999  19.562  0.00  0.00    +0.000 A 
ATOM     15  N   UNL     1      50.423   6.157  19.597  0.00  0.00    +0.000 NA
ATOM     16  C   UNL     1      50.388   6.816  18.426  0.00  0.00    +0.000 A 
ATOM     17  S   UNL     1      51.182   8.311  18.287  0.00  0.00    +0.000 S 
ATOM     18  C   UNL     1      50.689   8.476  16.669  0.00  0.00    +0.000 A 
ATOM     19  C   UNL     1      49.915   7.418  16.204  0.00  0.00    +0.000 A 
ATOM     20  C   UNL     1      49.766   6.407  17.250  0.00  0.00    +0.000 A 
BRANCH  12  22
ATOM     21  C   UNL     1      47.512   3.658  16.575  0.00  0.00    +0.000 C 
ATOM     22  O   UNL     1      48.571   4.555  16.246  0.00  0.00    +0.000 OA
ENDBRANCH  12  22
ENDBRANCH   8  19
ENDBRANCH   7  10
ENDBRANCH   1   7
BRANCH   4  23
ATOM     23  C   UNL     1      43.658   3.155  12.382  0.00  0.00    +0.000 C 
BRANCH  23  24
ATOM     24  N   UNL     1      44.021   2.484  11.135  0.00  0.00    +0.000 NA
ATOM     25  H   UNL     1      43.409   1.679  11.000  0.00  0.00    +0.000 HD
BRANCH  24  26
ATOM     26  C   UNL     1      43.899   3.363   9.971  0.00  0.00    +0.000 C 
BRANCH  26  27
ATOM     27  C   UNL     1      44.979   3.058   8.952  0.00  0.00    +0.000 A 
ATOM     28  C   UNL     1      45.508   4.066   8.129  0.00  0.00    +0.000 A 
ATOM     29  C   UNL     1      46.514   3.772   7.201  0.00  0.00    +0.000 A 
ATOM     30  C   UNL     1      47.005   2.467   7.072  0.00  0.00    +0.000 A 
ATOM     31  C   UNL     1      48.076   2.137   6.075  0.00  0.00    +0.000 C 
ATOM     32  C   UNL     1      46.479   1.462   7.890  0.00  0.00    +0.000 A 
ATOM     33  C   UNL     1      45.479   1.758   8.820  0.00  0.00    +0.000 A 
ENDBRANCH  26  27
ENDBRANCH  24  26
ENDBRANCH  23  24
ENDBRANCH   4  23
TORSDOF 8
ENDMDL
MODEL 3
REMARK VINA RESULT:    -7.914      1.483      2.669
REMARK INTER + INTRA:         -12.830
REMARK INTER:                 -11.641
REMARK INTRA:                  -1.189
REMARK UNBOUND:                -1.215
REMARK  Name = 
REMARK  10 active torsions:
REMARK  status: ('A' for Active; 'I' for Inactive)
REMARK    1  A    between atoms: C_1  and  O_2
REMARK    2  A    between atoms: O_2  and  C_3
REMARK    3  A    between atoms: C_10  and  C_11
REMARK    4  A    between atoms: N_13  and  C_14
REMARK    5  A    between atoms: C_14  and  C_15
REMARK    6  A    between atoms: C_18  and  C_19
REMARK    7  A    between atoms: C_19  and  N_20
REMARK    8  A    between atoms: N_20  and  C_21
REMARK    9  A    between atoms: C_21  and  C_22
REMARK   10  A    between atoms: C_25  and  C_26
REMARK                            x       y       z     vdW  Elec       q    Type
REMARK                         _______ _______ _______ _____ _____    ______ ____
ROOT
ATOM      1  C   UNL     1      47.018   6.305  13.407  0.00  0.00    +0.000 A 
ATOM      2  C   UNL     1      46.450   7.314  12.617  0.00  0.00    +0.000 A 
ATOM      3  C   UNL     1      45.232   7.106  11.958  0.00  0.00    +0.000 A 
ATOM      4  C   UNL     1      44.550   5.885  12.074  0.00  0.00    +0.000 A 
ATOM      5  C   UNL     1      45.100   4.894  12.898  0.00  0.00    +0.000 A 
ATOM      6  C   UNL     1      46.314   5.104  13.563  0.00  0.00    +0.000 A 
ENDROOT
BRANCH   1   7
ATOM      7  C   UNL     1      48.348   6.510  14.088  0.00  0.00    +0.000 C 
BRANCH   7  10
ATOM      8  C   UNL     1      48.536   5.890  16.463  0.00  0.00    +0.000 C 
ATOM      9  O   UNL     1      48.996   4.787  16.175  0.00  0.00    +0.000 OA
ATOM     10  N   UNL     1      48.185   6.788  15.492  0.00  0.00    +0.000 N 
ATOM     11  H   UNL     1      47.728   7.654  15.744  0.00  0.00    +0.000 HD
BRANCH   8  19
ATOM     12  C   UNL     1      49.379   8.728  18.224  0.00  0.00    +0.000 A 
ATOM     13  N   UNL     1      49.668   9.658  19.156  0.00  0.00    +0.000 NA
ATOM     14  C   UNL     1      49.319   9.416  20.420  0.00  0.00    +0.000 A 
ATOM     15  N   UNL     1      48.696   8.338  20.883  0.00  0.00    +0.000 NA
ATOM     16  C   UNL     1      48.442   7.426  19.928  0.00  0.00    +0.000 A 
ATOM     17  S   UNL     1      47.634   5.991  20.340  0.00  0.00    +0.000 S 
ATOM     18  C   UNL     1      47.716   5.429  18.738  0.00  0.00    +0.000 A 
ATOM     19  C   UNL     1      48.356   6.303  17.866  0.00  0.00    +0.000 A 
ATOM     20  C   UNL     1      48.758   7.516  18.576  0.00  0.00    +0.000 A 
BRANCH  12  22
ATOM     21  C   UNL     1      49.185  10.280  16.474  0.00  0.00    +0.000 C 
ATOM     22  O   UNL     1      49.676   9.012  16.906  0.00  0.00    +0.000 OA
ENDBRANCH  12  22
ENDBRANCH   8  19
ENDBRANCH   7  10
ENDBRANCH   1   7
BRANCH   4  23
ATOM     23  C   UNL     1      43.253   5.638  11.328  0.00  0.00    +0.000 C 
BRANCH  23  24
ATOM     24  N   UNL     1      43.502   5.007  10.033  0.00  0.00    +0.000 NA
ATOM     25  H   UNL     1      44.257   5.503   9.560  0.00  0.00    +0.000 HD
BRANCH  24  26
ATOM     26  C   UNL     1      43.878   3.598  10.161  0.00  0.00    +0.000 C 
BRANCH  26  27
ATOM     27  C   UNL     1      44.924   3.225   9.129  0.00  0.00    +0.000 A 
ATOM     28  C   UNL     1      45.497   4.196   8.290  0.00  0.00    +0.000 A 
ATOM     29  C   UNL     1      46.471   3.838   7.350  0.00  0.00    +0.000 A 
ATOM     30  C   UNL     1      46.885   2.506   7.225  0.00  0.00    +0.000 A 
ATOM     31  C   UNL     1      47.922   2.110   6.216  0.00  0.00    +0.000 C 
ATOM     32  C   UNL     1      46.316   1.539   8.059  0.00  0.00    +0.000 A 
ATOM     33  C   UNL     1      45.348   1.898   9.001  0.00  0.00    +0.000 A 
ENDBRANCH  26  27
ENDBRANCH  24  26
ENDBRANCH  23  24
ENDBRANCH   4  23
TORSDOF 8
ENDMDL
MODEL 4
REMARK VINA RESULT:    -7.559      1.542      2.040
REMARK INTER + INTRA:         -12.309
REMARK INTER:                 -11.180
REMARK INTRA:                  -1.128
REMARK UNBOUND:                -1.215
REMARK  Name = 
REMARK  10 active torsions:
REMARK  status: ('A' for Active; 'I' for Inactive)
REMARK    1  A    between atoms: C_1  and  O_2
REMARK    2  A    between atoms: O_2  and  C_3
REMARK    3  A    between atoms: C_10  and  C_11
REMARK    4  A    between atoms: N_13  and  C_14
REMARK    5  A    between atoms: C_14  and  C_15
REMARK    6  A    between atoms: C_18  and  C_19
REMARK    7  A    between atoms: C_19  and  N_20
REMARK    8  A    between atoms: N_20  and  C_21
REMARK    9  A    between atoms: C_21  and  C_22
REMARK   10  A    between atoms: C_25  and  C_26
REMARK                            x       y       z     vdW  Elec       q    Type
REMARK                         _______ _______ _______ _____ _____    ______ ____
ROOT
ATOM      1  C   UNL     1      47.446   6.649  13.567  0.00  0.00    +0.000 A 
ATOM      2  C   UNL     1      46.747   6.769  12.359  0.00  0.00    +0.000 A 
ATOM      3  C   UNL     1      45.974   5.707  11.870  0.00  0.00    +0.000 A 
ATOM      4  C   UNL     1      45.882   4.500  12.579  0.00  0.00    +0.000 A 
ATOM      5  C   UNL     1      46.549   4.399  13.808  0.00  0.00    +0.000 A 
ATOM      6  C   UNL     1      47.314   5.463  14.300  0.00  0.00    +0.000 A 
ENDROOT
BRANCH   1   7
ATOM      7  C   UNL     1      48.309   7.776  14.078  0.00  0.00    +0.000 C 
BRANCH   7  10
ATOM      8  C   UNL     1      48.373   9.225  16.066  0.00  0.00    +0.000 C 
ATOM      9  O   UNL     1      48.873  10.146  15.423  0.00  0.00    +0.000 OA
ATOM     10  N   UNL     1      48.076   8.026  15.477  0.00  0.00    +0.000 N 
ATOM     11  H   UNL     1      47.747   7.254  16.039  0.00  0.00    +0.000 HD
BRANCH   8  19
ATOM     12  C   UNL     1      48.165   7.005  18.692  0.00  0.00    +0.000 A 
ATOM     13  N   UNL     1      47.925   6.361  19.852  0.00  0.00    +0.000 NA
ATOM     14  C   UNL     1      47.513   7.077  20.899  0.00  0.00    +0.000 A 
ATOM     15  N   UNL     1      47.313   8.390  20.938  0.00  0.00    +0.000 NA
ATOM     16  C   UNL     1      47.544   8.993  19.759  0.00  0.00    +0.000 A 
ATOM     17  S   UNL     1      47.353  10.675  19.631  0.00  0.00    +0.000 S 
ATOM     18  C   UNL     1      47.771  10.646  17.984  0.00  0.00    +0.000 A 
ATOM     19  C   UNL     1      48.055   9.375  17.497  0.00  0.00    +0.000 A 
ATOM     20  C   UNL     1      47.953   8.390  18.573  0.00  0.00    +0.000 A 
BRANCH  12  22
ATOM     21  C   UNL     1      49.026   4.940  17.982  0.00  0.00    +0.000 C 
ATOM     22  O   UNL     1      48.658   6.273  17.630  0.00  0.00    +0.000 OA
ENDBRANCH  12  22
ENDBRANCH   8  19
ENDBRANCH   7  10
ENDBRANCH   1   7
BRANCH   4  23
ATOM     23  C   UNL     1      45.083   3.331  12.035  0.00  0.00    +0.000 C 
BRANCH  23  24
ATOM     24  N   UNL     1      44.500   3.651  10.734  0.00  0.00    +0.000 NA
ATOM     25  H   UNL     1      45.126   4.283  10.234  0.00  0.00    +0.000 HD
BRANCH  24  26
ATOM     26  C   UNL     1      44.282   2.461   9.911  0.00  0.00    +0.000 C 
BRANCH  26  27
ATOM     27  C   UNL     1      45.251   2.430   8.744  0.00  0.00    +0.000 A 
ATOM     28  C   UNL     1      45.964   1.264   8.422  0.00  0.00    +0.000 A 
ATOM     29  C   UNL     1      46.846   1.247   7.334  0.00  0.00    +0.000 A 
ATOM     30  C   UNL     1      47.037   2.394   6.554  0.00  0.00    +0.000 A 
ATOM     31  C   UNL     1      47.985   2.390   5.391  0.00  0.00    +0.000 C 
ATOM     32  C   UNL     1      46.327   3.555   6.873  0.00  0.00    +0.000 A 
ATOM     33  C   UNL     1      45.444   3.570   7.955  0.00  0.00    +0.000 A 
ENDBRANCH  26  27
ENDBRANCH  24  26
ENDBRANCH  23  24
ENDBRANCH   4  23
TORSDOF 8
ENDMDL
MODEL 5
REMARK VINA RESULT:    -7.519      2.438      3.239
REMARK INTER + INTRA:         -12.250
REMARK INTER:                 -11.579
REMARK INTRA:                  -0.670
REMARK UNBOUND:                -1.215
REMARK  Name = 
REMARK  10 active torsions:
REMARK  status: ('A' for Active; 'I' for Inactive)
REMARK    1  A    between atoms: C_1  and  O_2
REMARK    2  A    between atoms: O_2  and  C_3
REMARK    3  A    between atoms: C_10  and  C_11
REMARK    4  A    between atoms: N_13  and  C_14
REMARK    5  A    between atoms: C_14  and  C_15
REMARK    6  A    between atoms: C_18  and  C_19
REMARK    7  A    between atoms: C_19  and  N_20
REMARK    8  A    between atoms: N_20  and  C_21
REMARK    9  A    between atoms: C_21  and  C_22
REMARK   10  A    between atoms: C_25  and  C_26
REMARK                            x       y       z     vdW  Elec       q    Type
REMARK                         _______ _______ _______ _____ _____    ______ ____
ROOT
ATOM      1  C   UNL     1      48.015   7.229  14.442  0.00  0.00    +0.000 A 
ATOM      2  C   UNL     1      47.455   8.123  13.520  0.00  0.00    +0.000 A 
ATOM      3  C   UNL     1      46.723   7.653  12.421  0.00  0.00    +0.000 A 
ATOM      4  C   UNL     1      46.534   6.278  12.218  0.00  0.00    +0.000 A 
ATOM      5  C   UNL     1      47.061   5.389  13.165  0.00  0.00    +0.000 A 
ATOM      6  C   UNL     1      47.784   5.858  14.268  0.00  0.00    +0.000 A 
ENDROOT
BRANCH   1   7
ATOM      7  C   UNL     1      48.835   7.728  15.606  0.00  0.00    +0.000 C 
BRANCH   7  10
ATOM      8  C   UNL     1      49.885   6.197  17.221  0.00  0.00    +0.000 C 
ATOM      9  O   UNL     1      49.053   6.477  18.082  0.00  0.00    +0.000 OA
ATOM     10  N   UNL     1      49.850   6.777  15.983  0.00  0.00    +0.000 N 
ATOM     11  H   UNL     1      50.591   6.601  15.319  0.00  0.00    +0.000 HD
BRANCH   8  19
ATOM     12  C   UNL     1      50.029   2.761  17.027  0.00  0.00    +0.000 A 
ATOM     13  N   UNL     1      50.332   1.451  17.127  0.00  0.00    +0.000 NA
ATOM     14  C   UNL     1      51.546   1.115  17.564  0.00  0.00    +0.000 A 
ATOM     15  N   UNL     1      52.524   1.942  17.916  0.00  0.00    +0.000 NA
ATOM     16  C   UNL     1      52.178   3.237  17.820  0.00  0.00    +0.000 A 
ATOM     17  S   UNL     1      53.315   4.435  18.216  0.00  0.00    +0.000 S 
ATOM     18  C   UNL     1      52.198   5.672  17.885  0.00  0.00    +0.000 A 
ATOM     19  C   UNL     1      50.950   5.211  17.478  0.00  0.00    +0.000 A 
ATOM     20  C   UNL     1      50.953   3.751  17.406  0.00  0.00    +0.000 A 
BRANCH  12  22
ATOM     21  C   UNL     1      47.720   2.912  17.421  0.00  0.00    +0.000 C 
ATOM     22  O   UNL     1      48.798   3.107  16.507  0.00  0.00    +0.000 OA
ENDBRANCH  12  22
ENDBRANCH   8  19
ENDBRANCH   7  10
ENDBRANCH   1   7
BRANCH   4  23
ATOM     23  C   UNL     1      45.781   5.760  11.008  0.00  0.00    +0.000 C 
BRANCH  23  24
ATOM     24  N   UNL     1      44.778   4.770  11.395  0.00  0.00    +0.000 NA
ATOM     25  H   UNL     1      44.119   5.199  12.044  0.00  0.00    +0.000 HD
BRANCH  24  26
ATOM     26  C   UNL     1      44.033   4.251  10.247  0.00  0.00    +0.000 C 
BRANCH  26  27
ATOM     27  C   UNL     1      44.968   3.593   9.251  0.00  0.00    +0.000 A 
ATOM     28  C   UNL     1      45.173   2.204   9.254  0.00  0.00    +0.000 A 
ATOM     29  C   UNL     1      46.031   1.610   8.320  0.00  0.00    +0.000 A 
ATOM     30  C   UNL     1      46.703   2.390   7.372  0.00  0.00    +0.000 A 
ATOM     31  C   UNL     1      47.630   1.765   6.371  0.00  0.00    +0.000 C 
ATOM     32  C   UNL     1      46.499   3.773   7.367  0.00  0.00    +0.000 A 
ATOM     33  C   UNL     1      45.639   4.365   8.296  0.00  0.00    +0.000 A 
ENDBRANCH  26  27
ENDBRANCH  24  26
ENDBRANCH  23  24
ENDBRANCH   4  23
TORSDOF 8
ENDMDL
MODEL 6
REMARK VINA RESULT:    -6.938      4.683      9.659
REMARK INTER + INTRA:         -11.397
REMARK INTER:                 -10.288
REMARK INTRA:                  -1.109
REMARK UNBOUND:                -1.215
REMARK  Name = 
REMARK  10 active torsions:
REMARK  status: ('A' for Active; 'I' for Inactive)
REMARK    1  A    between atoms: C_1  and  O_2
REMARK    2  A    between atoms: O_2  and  C_3
REMARK    3  A    between atoms: C_10  and  C_11
REMARK    4  A    between atoms: N_13  and  C_14
REMARK    5  A    between atoms: C_14  and  C_15
REMARK    6  A    between atoms: C_18  and  C_19
REMARK    7  A    between atoms: C_19  and  N_20
REMARK    8  A    between atoms: N_20  and  C_21
REMARK    9  A    between atoms: C_21  and  C_22
REMARK   10  A    between atoms: C_25  and  C_26
REMARK                            x       y       z     vdW  Elec       q    Type
REMARK                         _______ _______ _______ _____ _____    ______ ____
ROOT
ATOM      1  C   UNL     1      48.778   3.290  17.204  0.00  0.00    +0.000 A 
ATOM      2  C   UNL     1      49.661   2.221  17.003  0.00  0.00    +0.000 A 
ATOM      3  C   UNL     1      51.001   2.314  17.403  0.00  0.00    +0.000 A 
ATOM      4  C   UNL     1      51.489   3.479  18.016  0.00  0.00    +0.000 A 
ATOM      5  C   UNL     1      50.592   4.529  18.254  0.00  0.00    +0.000 A 
ATOM      6  C   UNL     1      49.252   4.433  17.862  0.00  0.00    +0.000 A 
ENDROOT
BRANCH   1   7
ATOM      7  C   UNL     1      47.344   3.209  16.741  0.00  0.00    +0.000 C 
BRANCH   7  10
ATOM      8  C   UNL     1      47.002   4.197  14.514  0.00  0.00    +0.000 C 
ATOM      9  O   UNL     1      47.307   3.143  13.960  0.00  0.00    +0.000 OA
ATOM     10  N   UNL     1      47.006   4.310  15.877  0.00  0.00    +0.000 N 
ATOM     11  H   UNL     1      46.837   5.207  16.312  0.00  0.00    +0.000 HD
BRANCH   8  19
ATOM     12  C   UNL     1      44.224   4.967  12.627  0.00  0.00    +0.000 A 
ATOM     13  N   UNL     1      43.320   5.483  11.771  0.00  0.00    +0.000 NA
ATOM     14  C   UNL     1      43.566   6.680  11.237  0.00  0.00    +0.000 A 
ATOM     15  N   UNL     1      44.625   7.450  11.461  0.00  0.00    +0.000 NA
ATOM     16  C   UNL     1      45.512   6.894  12.304  0.00  0.00    +0.000 A 
ATOM     17  S   UNL     1      46.921   7.749  12.715  0.00  0.00    +0.000 S 
ATOM     18  C   UNL     1      47.463   6.475  13.701  0.00  0.00    +0.000 A 
ATOM     19  C   UNL     1      46.602   5.383  13.736  0.00  0.00    +0.000 A 
ATOM     20  C   UNL     1      45.416   5.652  12.925  0.00  0.00    +0.000 A 
BRANCH  12  22
ATOM     21  C   UNL     1      43.543   2.743  12.314  0.00  0.00    +0.000 C 
ATOM     22  O   UNL     1      43.934   3.761  13.234  0.00  0.00    +0.000 OA
ENDBRANCH  12  22
ENDBRANCH   8  19
ENDBRANCH   7  10
ENDBRANCH   1   7
BRANCH   4  23
ATOM     23  C   UNL     1      52.948   3.603  18.412  0.00  0.00    +0.000 C 
BRANCH  23  24
ATOM     24  N   UNL     1      53.345   2.518  19.306  0.00  0.00    +0.000 NA
ATOM     25  H   UNL     1      52.741   1.712  19.142  0.00  0.00    +0.000 HD
BRANCH  24  26
ATOM     26  C   UNL     1      54.736   2.108  19.104  0.00  0.00    +0.000 C 
BRANCH  26  27
ATOM     27  C   UNL     1      54.814   0.905  18.185  0.00  0.00    +0.000 A 
ATOM     28  C   UNL     1      55.131   1.049  16.824  0.00  0.00    +0.000 A 
ATOM     29  C   UNL     1      55.211  -0.072  15.990  0.00  0.00    +0.000 A 
ATOM     30  C   UNL     1      54.971  -1.356  16.495  0.00  0.00    +0.000 A 
ATOM     31  C   UNL     1      55.047  -2.564  15.610  0.00  0.00    +0.000 C 
ATOM     32  C   UNL     1      54.656  -1.501  17.850  0.00  0.00    +0.000 A 
ATOM     33  C   UNL     1      54.581  -0.381  18.683  0.00  0.00    +0.000 A 
ENDBRANCH  26  27
ENDBRANCH  24  26
ENDBRANCH  23  24
ENDBRANCH   4  23
TORSDOF 8
ENDMDL
MODEL 7
REMARK VINA RESULT:    -6.772      3.711      9.133
REMARK INTER + INTRA:         -11.153
REMARK INTER:                  -9.073
REMARK INTRA:                  -2.080
REMARK UNBOUND:                -1.215
REMARK  Name = 
REMARK  10 active torsions:
REMARK  status: ('A' for Active; 'I' for Inactive)
REMARK    1  A    between atoms: C_1  and  O_2
REMARK    2  A    between atoms: O_2  and  C_3
REMARK    3  A    between atoms: C_10  and  C_11
REMARK    4  A    between atoms: N_13  and  C_14
REMARK    5  A    between atoms: C_14  and  C_15
REMARK    6  A    between atoms: C_18  and  C_19
REMARK    7  A    between atoms: C_19  and  N_20
REMARK    8  A    between atoms: N_20  and  C_21
REMARK    9  A    between atoms: C_21  and  C_22
REMARK   10  A    between atoms: C_25  and  C_26
REMARK                            x       y       z     vdW  Elec       q    Type
REMARK                         _______ _______ _______ _____ _____    ______ ____
ROOT
ATOM      1  C   UNL     1      48.537   3.508  17.424  0.00  0.00    +0.000 A 
ATOM      2  C   UNL     1      49.658   2.780  17.003  0.00  0.00    +0.000 A 
ATOM      3  C   UNL     1      50.919   3.021  17.563  0.00  0.00    +0.000 A 
ATOM      4  C   UNL     1      51.090   3.996  18.558  0.00  0.00    +0.000 A 
ATOM      5  C   UNL     1      49.959   4.693  19.005  0.00  0.00    +0.000 A 
ATOM      6  C   UNL     1      48.697   4.445  18.452  0.00  0.00    +0.000 A 
ENDROOT
BRANCH   1   7
ATOM      7  C   UNL     1      47.184   3.278  16.797  0.00  0.00    +0.000 C 
BRANCH   7  10
ATOM      8  C   UNL     1      46.883   4.226  14.546  0.00  0.00    +0.000 C 
ATOM      9  O   UNL     1      47.265   3.184  14.018  0.00  0.00    +0.000 OA
ATOM     10  N   UNL     1      46.825   4.352  15.907  0.00  0.00    +0.000 N 
ATOM     11  H   UNL     1      46.592   5.243  16.324  0.00  0.00    +0.000 HD
BRANCH   8  19
ATOM     12  C   UNL     1      44.110   4.863  12.606  0.00  0.00    +0.000 A 
ATOM     13  N   UNL     1      43.201   5.331  11.727  0.00  0.00    +0.000 NA
ATOM     14  C   UNL     1      43.415   6.525  11.172  0.00  0.00    +0.000 A 
ATOM     15  N   UNL     1      44.444   7.335  11.394  0.00  0.00    +0.000 NA
ATOM     16  C   UNL     1      45.337   6.826  12.261  0.00  0.00    +0.000 A 
ATOM     17  S   UNL     1      46.709   7.736  12.674  0.00  0.00    +0.000 S 
ATOM     18  C   UNL     1      47.280   6.502  13.694  0.00  0.00    +0.000 A 
ATOM     19  C   UNL     1      46.456   5.382  13.739  0.00  0.00    +0.000 A 
ATOM     20  C   UNL     1      45.273   5.594  12.906  0.00  0.00    +0.000 A 
BRANCH  12  22
ATOM     21  C   UNL     1      43.501   2.614  12.329  0.00  0.00    +0.000 C 
ATOM     22  O   UNL     1      43.851   3.661  13.232  0.00  0.00    +0.000 OA
ENDBRANCH  12  22
ENDBRANCH   8  19
ENDBRANCH   7  10
ENDBRANCH   1   7
BRANCH   4  23
ATOM     23  C   UNL     1      52.460   4.294  19.137  0.00  0.00    +0.000 C 
BRANCH  23  24
ATOM     24  N   UNL     1      53.385   4.739  18.098  0.00  0.00    +0.000 NA
ATOM     25  H   UNL     1      53.028   4.451  17.187  0.00  0.00    +0.000 HD
BRANCH  24  26
ATOM     26  C   UNL     1      53.561   6.193  18.092  0.00  0.00    +0.000 C 
BRANCH  26  27
ATOM     27  C   UNL     1      52.308   6.883  17.588  0.00  0.00    +0.000 A 
ATOM     28  C   UNL     1      51.639   7.837  18.372  0.00  0.00    +0.000 A 
ATOM     29  C   UNL     1      50.490   8.476  17.888  0.00  0.00    +0.000 A 
ATOM     30  C   UNL     1      49.986   8.170  16.618  0.00  0.00    +0.000 A 
ATOM     31  C   UNL     1      48.752   8.841  16.092  0.00  0.00    +0.000 C 
ATOM     32  C   UNL     1      50.652   7.221  15.837  0.00  0.00    +0.000 A 
ATOM     33  C   UNL     1      51.801   6.588  16.318  0.00  0.00    +0.000 A 
ENDBRANCH  26  27
ENDBRANCH  24  26
ENDBRANCH  23  24
ENDBRANCH   4  23
TORSDOF 8
ENDMDL
MODEL 8
REMARK VINA RESULT:    -6.701      5.272      6.871
REMARK INTER + INTRA:         -11.050
REMARK INTER:                  -9.820
REMARK INTRA:                  -1.230
REMARK UNBOUND:                -1.215
REMARK  Name = 
REMARK  10 active torsions:
REMARK  status: ('A' for Active; 'I' for Inactive)
REMARK    1  A    between atoms: C_1  and  O_2
REMARK    2  A    between atoms: O_2  and  C_3
REMARK    3  A    between atoms: C_10  and  C_11
REMARK    4  A    between atoms: N_13  and  C_14
REMARK    5  A    between atoms: C_14  and  C_15
REMARK    6  A    between atoms: C_18  and  C_19
REMARK    7  A    between atoms: C_19  and  N_20
REMARK    8  A    between atoms: N_20  and  C_21
REMARK    9  A    between atoms: C_21  and  C_22
REMARK   10  A    between atoms: C_25  and  C_26
REMARK                            x       y       z     vdW  Elec       q    Type
REMARK                         _______ _______ _______ _____ _____    ______ ____
ROOT
ATOM      1  C   UNL     1      48.218   8.827  11.949  0.00  0.00    +0.000 A 
ATOM      2  C   UNL     1      48.288   7.460  11.648  0.00  0.00    +0.000 A 
ATOM      3  C   UNL     1      47.154   6.645  11.754  0.00  0.00    +0.000 A 
ATOM      4  C   UNL     1      45.921   7.177  12.161  0.00  0.00    +0.000 A 
ATOM      5  C   UNL     1      45.845   8.553  12.420  0.00  0.00    +0.000 A 
ATOM      6  C   UNL     1      46.977   9.369  12.307  0.00  0.00    +0.000 A 
ENDROOT
BRANCH   1   7
ATOM      7  C   UNL     1      49.445   9.701  11.874  0.00  0.00    +0.000 C 
BRANCH   7  10
ATOM      8  C   UNL     1      51.700   9.062  11.123  0.00  0.00    +0.000 C 
ATOM      9  O   UNL     1      51.648   9.849  10.180  0.00  0.00    +0.000 OA
ATOM     10  N   UNL     1      50.654   8.926  11.993  0.00  0.00    +0.000 N 
ATOM     11  H   UNL     1      50.680   8.213  12.709  0.00  0.00    +0.000 HD
BRANCH   8  19
ATOM     12  C   UNL     1      53.215   6.503   9.384  0.00  0.00    +0.000 A 
ATOM     13  N   UNL     1      53.943   5.446   8.972  0.00  0.00    +0.000 NA
ATOM     14  C   UNL     1      54.956   5.038   9.739  0.00  0.00    +0.000 A 
ATOM     15  N   UNL     1      55.349   5.570  10.891  0.00  0.00    +0.000 NA
ATOM     16  C   UNL     1      54.588   6.609  11.277  0.00  0.00    +0.000 A 
ATOM     17  S   UNL     1      54.957   7.421  12.722  0.00  0.00    +0.000 S 
ATOM     18  C   UNL     1      53.643   8.480  12.519  0.00  0.00    +0.000 A 
ATOM     19  C   UNL     1      52.898   8.240  11.369  0.00  0.00    +0.000 A 
ATOM     20  C   UNL     1      53.489   7.140  10.608  0.00  0.00    +0.000 A 
BRANCH  12  22
ATOM     21  C   UNL     1      52.679   7.351   7.263  0.00  0.00    +0.000 C 
ATOM     22  O   UNL     1      52.214   6.967   8.555  0.00  0.00    +0.000 OA
ENDBRANCH  12  22
ENDBRANCH   8  19
ENDBRANCH   7  10
ENDBRANCH   1   7
BRANCH   4  23
ATOM     23  C   UNL     1      44.699   6.293  12.319  0.00  0.00    +0.000 C 
BRANCH  23  24
ATOM     24  N   UNL     1      44.966   4.936  11.846  0.00  0.00    +0.000 NA
ATOM     25  H   UNL     1      44.820   4.280  12.614  0.00  0.00    +0.000 HD
BRANCH  24  26
ATOM     26  C   UNL     1      44.098   4.551  10.732  0.00  0.00    +0.000 C 
BRANCH  26  27
ATOM     27  C   UNL     1      44.896   3.869   9.639  0.00  0.00    +0.000 A 
ATOM     28  C   UNL     1      45.599   4.615   8.678  0.00  0.00    +0.000 A 
ATOM     29  C   UNL     1      46.342   3.971   7.682  0.00  0.00    +0.000 A 
ATOM     30  C   UNL     1      46.392   2.573   7.621  0.00  0.00    +0.000 A 
ATOM     31  C   UNL     1      47.178   1.872   6.553  0.00  0.00    +0.000 C 
ATOM     32  C   UNL     1      45.694   1.829   8.577  0.00  0.00    +0.000 A 
ATOM     33  C   UNL     1      44.957   2.473   9.574  0.00  0.00    +0.000 A 
ENDBRANCH  26  27
ENDBRANCH  24  26
ENDBRANCH  23  24
ENDBRANCH   4  23
TORSDOF 8
ENDMDL
MODEL 9
REMARK VINA RESULT:    -6.689      5.618      8.125
REMARK INTER + INTRA:         -11.033
REMARK INTER:                  -9.752
REMARK INTRA:                  -1.280
REMARK UNBOUND:                -1.215
REMARK  Name = 
REMARK  10 active torsions:
REMARK  status: ('A' for Active; 'I' for Inactive)
REMARK    1  A    between atoms: C_1  and  O_2
REMARK    2  A    between atoms: O_2  and  C_3
REMARK    3  A    between atoms: C_10  and  C_11
REMARK    4  A    between atoms: N_13  and  C_14
REMARK    5  A    between atoms: C_14  and  C_15
REMARK    6  A    between atoms: C_18  and  C_19
REMARK    7  A    between atoms: C_19  and  N_20
REMARK    8  A    between atoms: N_20  and  C_21
REMARK    9  A    between atoms: C_21  and  C_22
REMARK   10  A    between atoms: C_25  and  C_26
REMARK                            x       y       z     vdW  Elec       q    Type
REMARK                         _______ _______ _______ _____ _____    ______ ____
ROOT
ATOM      1  C   UNL     1      49.252   8.473  11.683  0.00  0.00    +0.000 A 
ATOM      2  C   UNL     1      49.048   7.106  11.912  0.00  0.00    +0.000 A 
ATOM      3  C   UNL     1      47.789   6.625  12.297  0.00  0.00    +0.000 A 
ATOM      4  C   UNL     1      46.704   7.500  12.461  0.00  0.00    +0.000 A 
ATOM      5  C   UNL     1      46.903   8.861  12.190  0.00  0.00    +0.000 A 
ATOM      6  C   UNL     1      48.158   9.340  11.797  0.00  0.00    +0.000 A 
ENDROOT
BRANCH   1   7
ATOM      7  C   UNL     1      50.614   9.001  11.305  0.00  0.00    +0.000 C 
BRANCH   7  10
ATOM      8  C   UNL     1      52.531   8.137  10.026  0.00  0.00    +0.000 C 
ATOM      9  O   UNL     1      52.743   9.241   9.529  0.00  0.00    +0.000 OA
ATOM     10  N   UNL     1      51.498   7.938  10.900  0.00  0.00    +0.000 N 
ATOM     11  H   UNL     1      51.287   7.006  11.231  0.00  0.00    +0.000 HD
BRANCH   8  19
ATOM     12  C   UNL     1      52.983   6.210   7.207  0.00  0.00    +0.000 A 
ATOM     13  N   UNL     1      53.283   5.258   6.301  0.00  0.00    +0.000 NA
ATOM     14  C   UNL     1      54.138   4.297   6.653  0.00  0.00    +0.000 A 
ATOM     15  N   UNL     1      54.754   4.167   7.823  0.00  0.00    +0.000 NA
ATOM     16  C   UNL     1      54.415   5.123   8.705  0.00  0.00    +0.000 A 
ATOM     17  S   UNL     1      55.121   5.121  10.250  0.00  0.00    +0.000 S 
ATOM     18  C   UNL     1      54.236   6.497  10.709  0.00  0.00    +0.000 A 
ATOM     19  C   UNL     1      53.390   6.981   9.716  0.00  0.00    +0.000 A 
ATOM     20  C   UNL     1      53.527   6.175   8.504  0.00  0.00    +0.000 A 
BRANCH  12  22
ATOM     21  C   UNL     1      52.844   8.316   6.181  0.00  0.00    +0.000 C 
ATOM     22  O   UNL     1      52.154   7.242   6.817  0.00  0.00    +0.000 OA
ENDBRANCH  12  22
ENDBRANCH   8  19
ENDBRANCH   7  10
ENDBRANCH   1   7
BRANCH   4  23
ATOM     23  C   UNL     1      45.351   6.993  12.919  0.00  0.00    +0.000 C 
BRANCH  23  24
ATOM     24  N   UNL     1      45.256   5.542  12.775  0.00  0.00    +0.000 NA
ATOM     25  H   UNL     1      45.119   5.123  13.695  0.00  0.00    +0.000 HD
BRANCH  24  26
ATOM     26  C   UNL     1      44.147   5.138  11.909  0.00  0.00    +0.000 C 
BRANCH  26  27
ATOM     27  C   UNL     1      44.664   4.599  10.589  0.00  0.00    +0.000 A 
ATOM     28  C   UNL     1      44.283   3.331  10.121  0.00  0.00    +0.000 A 
ATOM     29  C   UNL     1      44.759   2.852   8.895  0.00  0.00    +0.000 A 
ATOM     30  C   UNL     1      45.629   3.626   8.116  0.00  0.00    +0.000 A 
ATOM     31  C   UNL     1      46.152   3.121   6.805  0.00  0.00    +0.000 C 
ATOM     32  C   UNL     1      46.008   4.889   8.580  0.00  0.00    +0.000 A 
ATOM     33  C   UNL     1      45.529   5.368   9.802  0.00  0.00    +0.000 A 
ENDBRANCH  26  27
ENDBRANCH  24  26
ENDBRANCH  23  24
ENDBRANCH   4  23
TORSDOF 8
ENDMDL
