MODEL 1
REMARK VINA RESULT:    -7.945      0.000      0.000
REMARK INTER + INTRA:         -11.705
REMARK INTER:                 -11.196
REMARK INTRA:                  -0.509
REMARK UNBOUND:                -0.509
REMARK  Name = 
REMARK  8 active torsions:
REMARK  status: ('A' for Active; 'I' for Inactive)
REMARK    1  A    between atoms: C_1  and  N_2
REMARK    2  A    between atoms: N_2  and  C_3
REMARK    3  A    between atoms: N_2  and  C_24
REMARK    4  A    between atoms: C_3  and  C_4
REMARK    5  A    between atoms: C_7  and  C_8
REMARK    6  A    between atoms: C_8  and  N_9
REMARK    7  A    between atoms: C_10  and  C_12
REMARK    8  A    between atoms: C_24  and  C_25
REMARK                            x       y       z     vdW  Elec       q    Type
REMARK                         _______ _______ _______ _____ _____    ______ ____
ROOT
ATOM      1  C   UNL     1      44.639   5.381  10.844  0.00  0.00    +0.000 A 
ATOM      2  C   UNL     1      45.883   5.840  10.394  0.00  0.00    +0.000 A 
ATOM      3  C   UNL     1      46.667   6.678  11.197  0.00  0.00    +0.000 A 
ATOM      4  C   UNL     1      46.235   7.050  12.478  0.00  0.00    +0.000 A 
ATOM      5  C   UNL     1      44.996   6.581  12.930  0.00  0.00    +0.000 A 
ATOM      6  C   UNL     1      44.207   5.755  12.125  0.00  0.00    +0.000 A 
ENDROOT
BRANCH   1   7
ATOM      7  C   UNL     1      43.736   4.556   9.949  0.00  0.00    +0.000 C 
BRANCH   7   9
ATOM      8  C   UNL     1      43.298   2.682  11.354  0.00  0.00    +0.000 C 
ATOM      9  N   UNL     1      43.878   3.088  10.062  0.00  0.00    +0.000 NA
BRANCH   9  10
ATOM     10  C   UNL     1      45.308   2.689  10.000  0.00  0.00    +0.000 C 
BRANCH  10  11
ATOM     11  C   UNL     1      45.883   2.551   8.604  0.00  0.00    +0.000 A 
ATOM     12  C   UNL     1      45.858   3.617   7.710  0.00  0.00    +0.000 A 
ATOM     13  N   UNL     1      46.357   3.537   6.450  0.00  0.00    +0.000 NA
ATOM     14  C   UNL     1      46.888   2.339   6.115  0.00  0.00    +0.000 A 
ATOM     15  C   UNL     1      46.925   1.274   6.998  0.00  0.00    +0.000 A 
ATOM     16  N   UNL     1      46.424   1.351   8.253  0.00  0.00    +0.000 NA
ENDBRANCH  10  11
ENDBRANCH   9  10
ENDBRANCH   7   9
ENDBRANCH   1   7
BRANCH   4  17
ATOM     17  C   UNL     1      47.049   7.981  13.337  0.00  0.00    +0.000 C 
BRANCH  17  18
ATOM     18  N   UNL     1      47.494   7.324  14.541  0.00  0.00    +0.000 N 
ATOM     19  C   UNL     1      48.746   6.774  14.630  0.00  0.00    +0.000 C 
ATOM     20  O   UNL     1      49.553   6.843  13.706  0.00  0.00    +0.000 OA
ATOM     21  H   UNL     1      46.781   7.059  15.215  0.00  0.00    +0.000 HD
BRANCH  19  22
ATOM     22  C   UNL     1      49.103   6.149  15.911  0.00  0.00    +0.000 A 
ATOM     23  C   UNL     1      50.185   6.637  16.633  0.00  0.00    +0.000 A 
ATOM     24  S   UNL     1      50.428   5.845  18.123  0.00  0.00    +0.000 S 
ATOM     25  C   UNL     1      49.129   4.784  17.834  0.00  0.00    +0.000 A 
ATOM     26  N   UNL     1      48.804   3.818  18.733  0.00  0.00    +0.000 NA
ATOM     27  C   UNL     1      47.818   3.065  18.372  0.00  0.00    +0.000 A 
ATOM     28  N   UNL     1      47.126   3.194  17.197  0.00  0.00    +0.000 N 
ATOM     29  C   UNL     1      47.402   4.173  16.271  0.00  0.00    +0.000 A 
ATOM     30  O   UNL     1      46.739   4.284  15.245  0.00  0.00    +0.000 OA
ATOM     31  C   UNL     1      48.508   5.042  16.624  0.00  0.00    +0.000 A 
ATOM     32  H   UNL     1      46.361   2.575  16.975  0.00  0.00    +0.000 HD
ENDBRANCH  19  22
ENDBRANCH  17  18
ENDBRANCH   4  17
TORSDOF 7
ENDMDL
MODEL 2
REMARK VINA RESULT:    -7.867      2.719      3.487
REMARK INTER + INTRA:         -11.596
REMARK INTER:                 -10.659
REMARK INTRA:                  -0.936
REMARK UNBOUND:                -0.509
REMARK  Name = 
REMARK  8 active torsions:
REMARK  status: ('A' for Active; 'I' for Inactive)
REMARK    1  A    between atoms: C_1  and  N_2
REMARK    2  A    between atoms: N_2  and  C_3
REMARK    3  A    between atoms: N_2  and  C_24
REMARK    4  A    between atoms: C_3  and  C_4
REMARK    5  A    between atoms: C_7  and  C_8
REMARK    6  A    between atoms: C_8  and  N_9
REMARK    7  A    between atoms: C_10  and  C_12
REMARK    8  A    between atoms: C_24  and  C_25
REMARK                            x       y       z     vdW  Elec       q    Type
REMARK                         _______ _______ _______ _____ _____    ______ ____
ROOT
ATOM      1  C   UNL     1      46.506   4.754  13.393  0.00  0.00    +0.000 A 
ATOM      2  C   UNL     1      46.706   4.368  14.725  0.00  0.00    +0.000 A 
ATOM      3  C   UNL     1      47.588   5.078  15.549  0.00  0.00    +0.000 A 
ATOM      4  C   UNL     1      48.266   6.206  15.066  0.00  0.00    +0.000 A 
ATOM      5  C   UNL     1      48.057   6.597  13.738  0.00  0.00    +0.000 A 
ATOM      6  C   UNL     1      47.187   5.881  12.911  0.00  0.00    +0.000 A 
ENDROOT
BRANCH   1   7
ATOM      7  C   UNL     1      45.633   3.937  12.462  0.00  0.00    +0.000 C 
BRANCH   7   9
ATOM      8  C   UNL     1      43.535   4.998  12.859  0.00  0.00    +0.000 C 
ATOM      9  N   UNL     1      44.520   4.665  11.814  0.00  0.00    +0.000 NA
BRANCH   9  10
ATOM     10  C   UNL     1      43.883   3.830  10.764  0.00  0.00    +0.000 C 
BRANCH  10  11
ATOM     11  C   UNL     1      44.778   3.458   9.598  0.00  0.00    +0.000 A 
ATOM     12  C   UNL     1      45.297   4.434   8.753  0.00  0.00    +0.000 A 
ATOM     13  N   UNL     1      46.098   4.147   7.696  0.00  0.00    +0.000 NA
ATOM     14  C   UNL     1      46.365   2.834   7.514  0.00  0.00    +0.000 A 
ATOM     15  C   UNL     1      45.861   1.855   8.351  0.00  0.00    +0.000 A 
ATOM     16  N   UNL     1      45.059   2.139   9.404  0.00  0.00    +0.000 NA
ENDBRANCH  10  11
ENDBRANCH   9  10
ENDBRANCH   7   9
ENDBRANCH   1   7
BRANCH   4  17
ATOM     17  C   UNL     1      49.247   6.957  15.928  0.00  0.00    +0.000 C 
BRANCH  17  18
ATOM     18  N   UNL     1      50.300   6.090  16.396  0.00  0.00    +0.000 N 
ATOM     19  C   UNL     1      50.300   5.598  17.675  0.00  0.00    +0.000 C 
ATOM     20  O   UNL     1      49.395   5.847  18.468  0.00  0.00    +0.000 OA
ATOM     21  H   UNL     1      51.154   6.061  15.846  0.00  0.00    +0.000 HD
BRANCH  19  22
ATOM     22  C   UNL     1      51.410   4.705  18.039  0.00  0.00    +0.000 A 
ATOM     23  C   UNL     1      52.531   5.229  18.669  0.00  0.00    +0.000 A 
ATOM     24  S   UNL     1      53.697   4.055  19.080  0.00  0.00    +0.000 S 
ATOM     25  C   UNL     1      52.770   2.811  18.381  0.00  0.00    +0.000 A 
ATOM     26  N   UNL     1      53.218   1.527  18.373  0.00  0.00    +0.000 NA
ATOM     27  C   UNL     1      52.429   0.691  17.784  0.00  0.00    +0.000 A 
ATOM     28  N   UNL     1      51.232   1.022  17.206  0.00  0.00    +0.000 N 
ATOM     29  C   UNL     1      50.727   2.301  17.214  0.00  0.00    +0.000 A 
ATOM     30  O   UNL     1      49.634   2.557  16.719  0.00  0.00    +0.000 OA
ATOM     31  C   UNL     1      51.580   3.283  17.857  0.00  0.00    +0.000 A 
ATOM     32  H   UNL     1      50.659   0.320  16.764  0.00  0.00    +0.000 HD
ENDBRANCH  19  22
ENDBRANCH  17  18
ENDBRANCH   4  17
TORSDOF 7
ENDMDL
MODEL 3
REMARK VINA RESULT:    -7.672      1.781      2.141
REMARK INTER + INTRA:         -11.321
REMARK INTER:                 -10.461
REMARK INTRA:                  -0.860
REMARK UNBOUND:                -0.509
REMARK  Name = 
REMARK  8 active torsions:
REMARK  status: ('A' for Active; 'I' for Inactive)
REMARK    1  A    between atoms: C_1  and  N_2
REMARK    2  A    between atoms: N_2  and  C_3
REMARK    3  A    between atoms: N_2  and  C_24
REMARK    4  A    between atoms: C_3  and  C_4
REMARK    5  A    between atoms: C_7  and  C_8
REMARK    6  A    between atoms: C_8  and  N_9
REMARK    7  A    between atoms: C_10  and  C_12
REMARK    8  A    between atoms: C_24  and  C_25
REMARK                            x       y       z     vdW  Elec       q    Type
REMARK                         _______ _______ _______ _____ _____    ______ ____
ROOT
ATOM      1  C   UNL     1      45.998   4.702  12.562  0.00  0.00    +0.000 A 
ATOM      2  C   UNL     1      46.262   5.879  11.849  0.00  0.00    +0.000 A 
ATOM      3  C   UNL     1      47.082   6.875  12.394  0.00  0.00    +0.000 A 
ATOM      4  C   UNL     1      47.677   6.701  13.651  0.00  0.00    +0.000 A 
ATOM      5  C   UNL     1      47.422   5.521  14.358  0.00  0.00    +0.000 A 
ATOM      6  C   UNL     1      46.594   4.531  13.820  0.00  0.00    +0.000 A 
ENDROOT
BRANCH   1   7
ATOM      7  C   UNL     1      45.035   3.661  12.029  0.00  0.00    +0.000 C 
BRANCH   7   9
ATOM      8  C   UNL     1      43.003   4.526  11.132  0.00  0.00    +0.000 C 
ATOM      9  N   UNL     1      44.336   4.010  10.773  0.00  0.00    +0.000 NA
BRANCH   9  10
ATOM     10  C   UNL     1      44.199   2.819   9.896  0.00  0.00    +0.000 C 
BRANCH  10  11
ATOM     11  C   UNL     1      45.227   2.707   8.787  0.00  0.00    +0.000 A 
ATOM     12  C   UNL     1      45.510   3.790   7.961  0.00  0.00    +0.000 A 
ATOM     13  N   UNL     1      46.418   3.735   6.954  0.00  0.00    +0.000 NA
ATOM     14  C   UNL     1      47.040   2.543   6.803  0.00  0.00    +0.000 A 
ATOM     15  C   UNL     1      46.772   1.461   7.623  0.00  0.00    +0.000 A 
ATOM     16  N   UNL     1      45.864   1.514   8.624  0.00  0.00    +0.000 NA
ENDBRANCH  10  11
ENDBRANCH   9  10
ENDBRANCH   7   9
ENDBRANCH   1   7
BRANCH   4  17
ATOM     17  C   UNL     1      48.530   7.780  14.267  0.00  0.00    +0.000 C 
BRANCH  17  18
ATOM     18  N   UNL     1      48.552   7.669  15.705  0.00  0.00    +0.000 N 
ATOM     19  C   UNL     1      49.611   7.092  16.357  0.00  0.00    +0.000 C 
ATOM     20  O   UNL     1      50.595   6.673  15.754  0.00  0.00    +0.000 OA
ATOM     21  H   UNL     1      47.670   7.795  16.192  0.00  0.00    +0.000 HD
BRANCH  19  22
ATOM     22  C   UNL     1      49.540   7.053  17.825  0.00  0.00    +0.000 A 
ATOM     23  C   UNL     1      49.850   8.192  18.555  0.00  0.00    +0.000 A 
ATOM     24  S   UNL     1      49.658   8.000  20.239  0.00  0.00    +0.000 S 
ATOM     25  C   UNL     1      49.205   6.370  20.056  0.00  0.00    +0.000 A 
ATOM     26  N   UNL     1      48.917   5.600  21.139  0.00  0.00    +0.000 NA
ATOM     27  C   UNL     1      48.619   4.375  20.858  0.00  0.00    +0.000 A 
ATOM     28  N   UNL     1      48.579   3.852  19.592  0.00  0.00    +0.000 N 
ATOM     29  C   UNL     1      48.835   4.599  18.466  0.00  0.00    +0.000 A 
ATOM     30  O   UNL     1      48.755   4.109  17.345  0.00  0.00    +0.000 OA
ATOM     31  C   UNL     1      49.185   5.983  18.728  0.00  0.00    +0.000 A 
ATOM     32  H   UNL     1      48.333   2.886  19.439  0.00  0.00    +0.000 HD
ENDBRANCH  19  22
ENDBRANCH  17  18
ENDBRANCH   4  17
TORSDOF 7
ENDMDL
MODEL 4
REMARK VINA RESULT:    -7.534      2.860      8.314
REMARK INTER + INTRA:         -11.126
REMARK INTER:                  -9.790
REMARK INTRA:                  -1.336
REMARK UNBOUND:                -0.509
REMARK  Name = 
REMARK  8 active torsions:
REMARK  status: ('A' for Active; 'I' for Inactive)
REMARK    1  A    between atoms: C_1  and  N_2
REMARK    2  A    between atoms: N_2  and  C_3
REMARK    3  A    between atoms: N_2  and  C_24
REMARK    4  A    between atoms: C_3  and  C_4
REMARK    5  A    between atoms: C_7  and  C_8
REMARK    6  A    between atoms: C_8  and  N_9
REMARK    7  A    between atoms: C_10  and  C_12
REMARK    8  A    between atoms: C_24  and  C_25
REMARK                            x       y       z     vdW  Elec       q    Type
REMARK                         _______ _______ _______ _____ _____    ______ ____
ROOT
ATOM      1  C   UNL     1      48.808   8.025  16.130  0.00  0.00    +0.000 A 
ATOM      2  C   UNL     1      48.970   6.846  15.391  0.00  0.00    +0.000 A 
ATOM      3  C   UNL     1      48.534   6.770  14.063  0.00  0.00    +0.000 A 
ATOM      4  C   UNL     1      47.952   7.882  13.438  0.00  0.00    +0.000 A 
ATOM      5  C   UNL     1      47.800   9.063  14.173  0.00  0.00    +0.000 A 
ATOM      6  C   UNL     1      48.224   9.135  15.503  0.00  0.00    +0.000 A 
ENDROOT
BRANCH   1   7
ATOM      7  C   UNL     1      49.184   8.089  17.596  0.00  0.00    +0.000 C 
BRANCH   7   9
ATOM      8  C   UNL     1      47.970   8.333  19.633  0.00  0.00    +0.000 C 
ATOM      9  N   UNL     1      48.266   7.401  18.531  0.00  0.00    +0.000 NA
BRANCH   9  10
ATOM     10  C   UNL     1      48.889   6.163  19.067  0.00  0.00    +0.000 C 
BRANCH  10  11
ATOM     11  C   UNL     1      48.531   4.886  18.331  0.00  0.00    +0.000 A 
ATOM     12  C   UNL     1      47.225   4.637  17.920  0.00  0.00    +0.000 A 
ATOM     13  N   UNL     1      46.860   3.507  17.264  0.00  0.00    +0.000 NA
ATOM     14  C   UNL     1      47.859   2.626  17.030  0.00  0.00    +0.000 A 
ATOM     15  C   UNL     1      49.163   2.866  17.427  0.00  0.00    +0.000 A 
ATOM     16  N   UNL     1      49.528   3.991  18.086  0.00  0.00    +0.000 NA
ENDBRANCH  10  11
ENDBRANCH   9  10
ENDBRANCH   7   9
ENDBRANCH   1   7
BRANCH   4  17
ATOM     17  C   UNL     1      47.443   7.805  12.022  0.00  0.00    +0.000 C 
BRANCH  17  18
ATOM     18  N   UNL     1      46.787   6.545  11.772  0.00  0.00    +0.000 N 
ATOM     19  C   UNL     1      45.420   6.449  11.746  0.00  0.00    +0.000 C 
ATOM     20  O   UNL     1      44.696   7.429  11.903  0.00  0.00    +0.000 OA
ATOM     21  H   UNL     1      47.348   5.704  11.868  0.00  0.00    +0.000 HD
BRANCH  19  22
ATOM     22  C   UNL     1      44.857   5.122  11.460  0.00  0.00    +0.000 A 
ATOM     23  C   UNL     1      44.130   4.461  12.442  0.00  0.00    +0.000 A 
ATOM     24  S   UNL     1      43.494   2.963  11.932  0.00  0.00    +0.000 S 
ATOM     25  C   UNL     1      44.213   3.118  10.397  0.00  0.00    +0.000 A 
ATOM     26  N   UNL     1      44.073   2.144   9.459  0.00  0.00    +0.000 NA
ATOM     27  C   UNL     1      44.695   2.378   8.352  0.00  0.00    +0.000 A 
ATOM     28  N   UNL     1      45.441   3.498   8.096  0.00  0.00    +0.000 N 
ATOM     29  C   UNL     1      45.588   4.521   9.004  0.00  0.00    +0.000 A 
ATOM     30  O   UNL     1      46.233   5.528   8.729  0.00  0.00    +0.000 OA
ATOM     31  C   UNL     1      44.914   4.304  10.270  0.00  0.00    +0.000 A 
ATOM     32  H   UNL     1      45.900   3.623   7.207  0.00  0.00    +0.000 HD
ENDBRANCH  19  22
ENDBRANCH  17  18
ENDBRANCH   4  17
TORSDOF 7
ENDMDL
MODEL 5
REMARK VINA RESULT:    -7.452      2.347      2.954
REMARK INTER + INTRA:         -11.011
REMARK INTER:                  -9.880
REMARK INTRA:                  -1.132
REMARK UNBOUND:                -0.509
REMARK  Name = 
REMARK  8 active torsions:
REMARK  status: ('A' for Active; 'I' for Inactive)
REMARK    1  A    between atoms: C_1  and  N_2
REMARK    2  A    between atoms: N_2  and  C_3
REMARK    3  A    between atoms: N_2  and  C_24
REMARK    4  A    between atoms: C_3  and  C_4
REMARK    5  A    between atoms: C_7  and  C_8
REMARK    6  A    between atoms: C_8  and  N_9
REMARK    7  A    between atoms: C_10  and  C_12
REMARK    8  A    between atoms: C_24  and  C_25
REMARK                            x       y       z     vdW  Elec       q    Type
REMARK                         _______ _______ _______ _____ _____    ______ ____
ROOT
ATOM      1  C   UNL     1      46.052   5.092  12.504  0.00  0.00    +0.000 A 
ATOM      2  C   UNL     1      46.715   5.061  13.738  0.00  0.00    +0.000 A 
ATOM      3  C   UNL     1      47.723   5.989  14.029  0.00  0.00    +0.000 A 
ATOM      4  C   UNL     1      48.066   6.985  13.103  0.00  0.00    +0.000 A 
ATOM      5  C   UNL     1      47.394   7.021  11.876  0.00  0.00    +0.000 A 
ATOM      6  C   UNL     1      46.397   6.087  11.580  0.00  0.00    +0.000 A 
ENDROOT
BRANCH   1   7
ATOM      7  C   UNL     1      45.031   4.034  12.137  0.00  0.00    +0.000 C 
BRANCH   7   9
ATOM      8  C   UNL     1      42.893   4.709  11.327  0.00  0.00    +0.000 C 
ATOM      9  N   UNL     1      44.244   4.292  10.911  0.00  0.00    +0.000 NA
BRANCH   9  10
ATOM     10  C   UNL     1      44.161   3.070  10.070  0.00  0.00    +0.000 C 
BRANCH  10  11
ATOM     11  C   UNL     1      45.193   2.974   8.963  0.00  0.00    +0.000 A 
ATOM     12  C   UNL     1      45.588   4.102   8.250  0.00  0.00    +0.000 A 
ATOM     13  N   UNL     1      46.503   4.061   7.249  0.00  0.00    +0.000 NA
ATOM     14  C   UNL     1      47.016   2.837   6.986  0.00  0.00    +0.000 A 
ATOM     15  C   UNL     1      46.637   1.709   7.692  0.00  0.00    +0.000 A 
ATOM     16  N   UNL     1      45.721   1.748   8.687  0.00  0.00    +0.000 NA
ENDBRANCH  10  11
ENDBRANCH   9  10
ENDBRANCH   7   9
ENDBRANCH   1   7
BRANCH   4  17
ATOM     17  C   UNL     1      49.173   7.966  13.387  0.00  0.00    +0.000 C 
BRANCH  17  18
ATOM     18  N   UNL     1      50.258   7.337  14.099  0.00  0.00    +0.000 N 
ATOM     19  C   UNL     1      51.049   8.050  14.962  0.00  0.00    +0.000 C 
ATOM     20  O   UNL     1      50.855   9.241  15.189  0.00  0.00    +0.000 OA
ATOM     21  H   UNL     1      50.573   6.433  13.759  0.00  0.00    +0.000 HD
BRANCH  19  22
ATOM     22  C   UNL     1      52.111   7.303  15.652  0.00  0.00    +0.000 A 
ATOM     23  C   UNL     1      53.436   7.684  15.483  0.00  0.00    +0.000 A 
ATOM     24  S   UNL     1      54.537   6.759  16.399  0.00  0.00    +0.000 S 
ATOM     25  C   UNL     1      53.288   5.781  17.014  0.00  0.00    +0.000 A 
ATOM     26  N   UNL     1      53.559   4.755  17.865  0.00  0.00    +0.000 NA
ATOM     27  C   UNL     1      52.522   4.077  18.229  0.00  0.00    +0.000 A 
ATOM     28  N   UNL     1      51.239   4.333  17.823  0.00  0.00    +0.000 N 
ATOM     29  C   UNL     1      50.914   5.375  16.986  0.00  0.00    +0.000 A 
ATOM     30  O   UNL     1      49.750   5.600  16.671  0.00  0.00    +0.000 OA
ATOM     31  C   UNL     1      52.046   6.166  16.540  0.00  0.00    +0.000 A 
ATOM     32  H   UNL     1      50.470   3.767  18.148  0.00  0.00    +0.000 HD
ENDBRANCH  19  22
ENDBRANCH  17  18
ENDBRANCH   4  17
TORSDOF 7
ENDMDL
MODEL 6
REMARK VINA RESULT:    -7.322      3.074      7.864
REMARK INTER + INTRA:         -10.827
REMARK INTER:                  -9.487
REMARK INTRA:                  -1.340
REMARK UNBOUND:                -0.509
REMARK  Name = 
REMARK  8 active torsions:
REMARK  status: ('A' for Active; 'I' for Inactive)
REMARK    1  A    between atoms: C_1  and  N_2
REMARK    2  A    between atoms: N_2  and  C_3
REMARK    3  A    between atoms: N_2  and  C_24
REMARK    4  A    between atoms: C_3  and  C_4
REMARK    5  A    between atoms: C_7  and  C_8
REMARK    6  A    between atoms: C_8  and  N_9
REMARK    7  A    between atoms: C_10  and  C_12
REMARK    8  A    between atoms: C_24  and  C_25
REMARK                            x       y       z     vdW  Elec       q    Type
REMARK                         _______ _______ _______ _____ _____    ______ ____
ROOT
ATOM      1  C   UNL     1      48.891   7.742  16.402  0.00  0.00    +0.000 A 
ATOM      2  C   UNL     1      49.019   6.667  15.512  0.00  0.00    +0.000 A 
ATOM      3  C   UNL     1      48.769   6.839  14.145  0.00  0.00    +0.000 A 
ATOM      4  C   UNL     1      48.415   8.096  13.636  0.00  0.00    +0.000 A 
ATOM      5  C   UNL     1      48.299   9.172  14.524  0.00  0.00    +0.000 A 
ATOM      6  C   UNL     1      48.535   8.998  15.891  0.00  0.00    +0.000 A 
ENDROOT
BRANCH   1   7
ATOM      7  C   UNL     1      49.060   7.548  17.895  0.00  0.00    +0.000 C 
BRANCH   7   9
ATOM      8  C   UNL     1      47.572   8.114  19.668  0.00  0.00    +0.000 C 
ATOM      9  N   UNL     1      47.856   7.106  18.631  0.00  0.00    +0.000 NA
BRANCH   9  10
ATOM     10  C   UNL     1      48.078   5.779  19.261  0.00  0.00    +0.000 C 
BRANCH  10  11
ATOM     11  C   UNL     1      48.181   4.613  18.297  0.00  0.00    +0.000 A 
ATOM     12  C   UNL     1      47.133   4.300  17.436  0.00  0.00    +0.000 A 
ATOM     13  N   UNL     1      47.180   3.263  16.562  0.00  0.00    +0.000 NA
ATOM     14  C   UNL     1      48.325   2.544  16.580  0.00  0.00    +0.000 A 
ATOM     15  C   UNL     1      49.376   2.849  17.426  0.00  0.00    +0.000 A 
ATOM     16  N   UNL     1      49.329   3.880  18.302  0.00  0.00    +0.000 NA
ENDBRANCH  10  11
ENDBRANCH   9  10
ENDBRANCH   7   9
ENDBRANCH   1   7
BRANCH   4  17
ATOM     17  C   UNL     1      48.106   8.288  12.174  0.00  0.00    +0.000 C 
BRANCH  17  18
ATOM     18  N   UNL     1      47.473   7.119  11.617  0.00  0.00    +0.000 N 
ATOM     19  C   UNL     1      46.116   7.066  11.430  0.00  0.00    +0.000 C 
ATOM     20  O   UNL     1      45.386   8.018  11.698  0.00  0.00    +0.000 OA
ATOM     21  H   UNL     1      48.015   6.259  11.606  0.00  0.00    +0.000 HD
BRANCH  19  22
ATOM     22  C   UNL     1      45.579   5.835  10.835  0.00  0.00    +0.000 A 
ATOM     23  C   UNL     1      45.809   5.568   9.491  0.00  0.00    +0.000 A 
ATOM     24  S   UNL     1      45.174   4.073   8.972  0.00  0.00    +0.000 S 
ATOM     25  C   UNL     1      44.522   3.752  10.510  0.00  0.00    +0.000 A 
ATOM     26  N   UNL     1      43.817   2.614  10.746  0.00  0.00    +0.000 NA
ATOM     27  C   UNL     1      43.354   2.513  11.947  0.00  0.00    +0.000 A 
ATOM     28  N   UNL     1      43.534   3.446  12.935  0.00  0.00    +0.000 N 
ATOM     29  C   UNL     1      44.262   4.599  12.750  0.00  0.00    +0.000 A 
ATOM     30  O   UNL     1      44.435   5.396  13.666  0.00  0.00    +0.000 OA
ATOM     31  C   UNL     1      44.799   4.765  11.412  0.00  0.00    +0.000 A 
ATOM     32  H   UNL     1      43.149   3.306  13.856  0.00  0.00    +0.000 HD
ENDBRANCH  19  22
ENDBRANCH  17  18
ENDBRANCH   4  17
TORSDOF 7
ENDMDL
MODEL 7
REMARK VINA RESULT:    -6.881      4.994      7.674
REMARK INTER + INTRA:         -10.207
REMARK INTER:                  -9.268
REMARK INTRA:                  -0.939
REMARK UNBOUND:                -0.509
REMARK  Name = 
REMARK  8 active torsions:
REMARK  status: ('A' for Active; 'I' for Inactive)
REMARK    1  A    between atoms: C_1  and  N_2
REMARK    2  A    between atoms: N_2  and  C_3
REMARK    3  A    between atoms: N_2  and  C_24
REMARK    4  A    between atoms: C_3  and  C_4
REMARK    5  A    between atoms: C_7  and  C_8
REMARK    6  A    between atoms: C_8  and  N_9
REMARK    7  A    between atoms: C_10  and  C_12
REMARK    8  A    between atoms: C_24  and  C_25
REMARK                            x       y       z     vdW  Elec       q    Type
REMARK                         _______ _______ _______ _____ _____    ______ ____
ROOT
ATOM      1  C   UNL     1      50.747   8.969  11.492  0.00  0.00    +0.000 A 
ATOM      2  C   UNL     1      50.156   7.703  11.397  0.00  0.00    +0.000 A 
ATOM      3  C   UNL     1      48.794   7.528  11.675  0.00  0.00    +0.000 A 
ATOM      4  C   UNL     1      47.991   8.623  12.025  0.00  0.00    +0.000 A 
ATOM      5  C   UNL     1      48.581   9.889  12.109  0.00  0.00    +0.000 A 
ATOM      6  C   UNL     1      49.942  10.062  11.844  0.00  0.00    +0.000 A 
ENDROOT
BRANCH   1   7
ATOM      7  C   UNL     1      52.238   9.155  11.292  0.00  0.00    +0.000 C 
BRANCH   7   9
ATOM      8  C   UNL     1      54.072   7.728  11.823  0.00  0.00    +0.000 C 
ATOM      9  N   UNL     1      52.986   7.958  10.852  0.00  0.00    +0.000 NA
BRANCH   9  10
ATOM     10  C   UNL     1      53.554   8.159   9.495  0.00  0.00    +0.000 C 
BRANCH  10  11
ATOM     11  C   UNL     1      53.516   6.944   8.588  0.00  0.00    +0.000 A 
ATOM     12  C   UNL     1      52.509   6.789   7.640  0.00  0.00    +0.000 A 
ATOM     13  N   UNL     1      52.432   5.717   6.812  0.00  0.00    +0.000 NA
ATOM     14  C   UNL     1      53.411   4.796   6.968  0.00  0.00    +0.000 A 
ATOM     15  C   UNL     1      54.422   4.943   7.902  0.00  0.00    +0.000 A 
ATOM     16  N   UNL     1      54.497   6.010   8.731  0.00  0.00    +0.000 NA
ENDBRANCH  10  11
ENDBRANCH   9  10
ENDBRANCH   7   9
ENDBRANCH   1   7
BRANCH   4  17
ATOM     17  C   UNL     1      46.533   8.445  12.363  0.00  0.00    +0.000 C 
BRANCH  17  18
ATOM     18  N   UNL     1      46.114   7.081  12.160  0.00  0.00    +0.000 N 
ATOM     19  C   UNL     1      44.897   6.788  11.601  0.00  0.00    +0.000 C 
ATOM     20  O   UNL     1      44.127   7.667  11.223  0.00  0.00    +0.000 OA
ATOM     21  H   UNL     1      46.622   6.360  12.664  0.00  0.00    +0.000 HD
BRANCH  19  22
ATOM     22  C   UNL     1      44.581   5.364  11.418  0.00  0.00    +0.000 A 
ATOM     23  C   UNL     1      43.884   4.685  12.410  0.00  0.00    +0.000 A 
ATOM     24  S   UNL     1      43.543   3.061  12.018  0.00  0.00    +0.000 S 
ATOM     25  C   UNL     1      44.361   3.190  10.531  0.00  0.00    +0.000 A 
ATOM     26  N   UNL     1      44.462   2.123   9.695  0.00  0.00    +0.000 NA
ATOM     27  C   UNL     1      45.134   2.353   8.617  0.00  0.00    +0.000 A 
ATOM     28  N   UNL     1      45.712   3.554   8.297  0.00  0.00    +0.000 N 
ATOM     29  C   UNL     1      45.613   4.667   9.099  0.00  0.00    +0.000 A 
ATOM     30  O   UNL     1      46.111   5.738   8.766  0.00  0.00    +0.000 OA
ATOM     31  C   UNL     1      44.873   4.460  10.330  0.00  0.00    +0.000 A 
ATOM     32  H   UNL     1      46.222   3.671   7.435  0.00  0.00    +0.000 HD
ENDBRANCH  19  22
ENDBRANCH  17  18
ENDBRANCH   4  17
TORSDOF 7
ENDMDL
MODEL 8
REMARK VINA RESULT:    -6.855      4.819      6.591
REMARK INTER + INTRA:         -10.170
REMARK INTER:                  -9.028
REMARK INTRA:                  -1.141
REMARK UNBOUND:                -0.509
REMARK  Name = 
REMARK  8 active torsions:
REMARK  status: ('A' for Active; 'I' for Inactive)
REMARK    1  A    between atoms: C_1  and  N_2
REMARK    2  A    between atoms: N_2  and  C_3
REMARK    3  A    between atoms: N_2  and  C_24
REMARK    4  A    between atoms: C_3  and  C_4
REMARK    5  A    between atoms: C_7  and  C_8
REMARK    6  A    between atoms: C_8  and  N_9
REMARK    7  A    between atoms: C_10  and  C_12
REMARK    8  A    between atoms: C_24  and  C_25
REMARK                            x       y       z     vdW  Elec       q    Type
REMARK                         _______ _______ _______ _____ _____    ______ ____
ROOT
ATOM      1  C   UNL     1      46.377   5.776  12.489  0.00  0.00    +0.000 A 
ATOM      2  C   UNL     1      47.125   5.714  13.671  0.00  0.00    +0.000 A 
ATOM      3  C   UNL     1      48.319   6.434  13.799  0.00  0.00    +0.000 A 
ATOM      4  C   UNL     1      48.773   7.254  12.757  0.00  0.00    +0.000 A 
ATOM      5  C   UNL     1      48.019   7.324  11.580  0.00  0.00    +0.000 A 
ATOM      6  C   UNL     1      46.834   6.596  11.447  0.00  0.00    +0.000 A 
ENDROOT
BRANCH   1   7
ATOM      7  C   UNL     1      45.137   4.926  12.299  0.00  0.00    +0.000 C 
BRANCH   7   9
ATOM      8  C   UNL     1      43.141   5.822  11.355  0.00  0.00    +0.000 C 
ATOM      9  N   UNL     1      44.400   5.128  11.033  0.00  0.00    +0.000 NA
BRANCH   9  10
ATOM     10  C   UNL     1      44.109   3.828  10.376  0.00  0.00    +0.000 C 
BRANCH  10  11
ATOM     11  C   UNL     1      45.055   3.440   9.257  0.00  0.00    +0.000 A 
ATOM     12  C   UNL     1      45.589   4.401   8.404  0.00  0.00    +0.000 A 
ATOM     13  N   UNL     1      46.435   4.099   7.387  0.00  0.00    +0.000 NA
ATOM     14  C   UNL     1      46.731   2.786   7.253  0.00  0.00    +0.000 A 
ATOM     15  C   UNL     1      46.212   1.822   8.099  0.00  0.00    +0.000 A 
ATOM     16  N   UNL     1      45.365   2.121   9.111  0.00  0.00    +0.000 NA
ENDBRANCH  10  11
ENDBRANCH   9  10
ENDBRANCH   7   9
ENDBRANCH   1   7
BRANCH   4  17
ATOM     17  C   UNL     1      50.075   8.005  12.865  0.00  0.00    +0.000 C 
BRANCH  17  18
ATOM     18  N   UNL     1      50.607   8.316  11.561  0.00  0.00    +0.000 N 
ATOM     19  C   UNL     1      51.735   9.081  11.418  0.00  0.00    +0.000 C 
ATOM     20  O   UNL     1      52.358   9.509  12.387  0.00  0.00    +0.000 OA
ATOM     21  H   UNL     1      49.994   8.170  10.764  0.00  0.00    +0.000 HD
BRANCH  19  22
ATOM     22  C   UNL     1      52.203   9.316  10.044  0.00  0.00    +0.000 A 
ATOM     23  C   UNL     1      52.149  10.598   9.513  0.00  0.00    +0.000 A 
ATOM     24  S   UNL     1      52.786  10.714   7.936  0.00  0.00    +0.000 S 
ATOM     25  C   UNL     1      53.108   9.044   7.884  0.00  0.00    +0.000 A 
ATOM     26  N   UNL     1      53.650   8.471   6.776  0.00  0.00    +0.000 NA
ATOM     27  C   UNL     1      53.812   7.193   6.863  0.00  0.00    +0.000 A 
ATOM     28  N   UNL     1      53.484   6.436   7.957  0.00  0.00    +0.000 N 
ATOM     29  C   UNL     1      52.959   6.975   9.108  0.00  0.00    +0.000 A 
ATOM     30  O   UNL     1      52.711   6.274  10.084  0.00  0.00    +0.000 OA
ATOM     31  C   UNL     1      52.749   8.410   9.061  0.00  0.00    +0.000 A 
ATOM     32  H   UNL     1      53.640   5.439   7.963  0.00  0.00    +0.000 HD
ENDBRANCH  19  22
ENDBRANCH  17  18
ENDBRANCH   4  17
TORSDOF 7
ENDMDL
MODEL 9
REMARK VINA RESULT:    -6.703      3.051      8.700
REMARK INTER + INTRA:          -9.955
REMARK INTER:                  -8.801
REMARK INTRA:                  -1.155
REMARK UNBOUND:                -0.509
REMARK  Name = 
REMARK  8 active torsions:
REMARK  status: ('A' for Active; 'I' for Inactive)
REMARK    1  A    between atoms: C_1  and  N_2
REMARK    2  A    between atoms: N_2  and  C_3
REMARK    3  A    between atoms: N_2  and  C_24
REMARK    4  A    between atoms: C_3  and  C_4
REMARK    5  A    between atoms: C_7  and  C_8
REMARK    6  A    between atoms: C_8  and  N_9
REMARK    7  A    between atoms: C_10  and  C_12
REMARK    8  A    between atoms: C_24  and  C_25
REMARK                            x       y       z     vdW  Elec       q    Type
REMARK                         _______ _______ _______ _____ _____    ______ ____
ROOT
ATOM      1  C   UNL     1      48.176   7.352  14.516  0.00  0.00    +0.000 A 
ATOM      2  C   UNL     1      47.494   8.449  13.975  0.00  0.00    +0.000 A 
ATOM      3  C   UNL     1      46.566   8.274  12.942  0.00  0.00    +0.000 A 
ATOM      4  C   UNL     1      46.278   6.993  12.449  0.00  0.00    +0.000 A 
ATOM      5  C   UNL     1      46.952   5.896  12.998  0.00  0.00    +0.000 A 
ATOM      6  C   UNL     1      47.888   6.072  14.021  0.00  0.00    +0.000 A 
ENDROOT
BRANCH   1   7
ATOM      7  C   UNL     1      49.255   7.537  15.564  0.00  0.00    +0.000 C 
BRANCH   7   9
ATOM      8  C   UNL     1      49.310   9.190  17.280  0.00  0.00    +0.000 C 
ATOM      9  N   UNL     1      48.784   7.859  16.928  0.00  0.00    +0.000 NA
BRANCH   9  10
ATOM     10  C   UNL     1      49.265   6.849  17.906  0.00  0.00    +0.000 C 
BRANCH  10  11
ATOM     11  C   UNL     1      48.900   5.412  17.587  0.00  0.00    +0.000 A 
ATOM     12  C   UNL     1      49.881   4.473  17.284  0.00  0.00    +0.000 A 
ATOM     13  N   UNL     1      49.601   3.179  16.988  0.00  0.00    +0.000 NA
ATOM     14  C   UNL     1      48.288   2.855  17.008  0.00  0.00    +0.000 A 
ATOM     15  C   UNL     1      47.303   3.777  17.314  0.00  0.00    +0.000 A 
ATOM     16  N   UNL     1      47.582   5.069  17.605  0.00  0.00    +0.000 NA
ENDBRANCH  10  11
ENDBRANCH   9  10
ENDBRANCH   7   9
ENDBRANCH   1   7
BRANCH   4  17
ATOM     17  C   UNL     1      45.310   6.793  11.313  0.00  0.00    +0.000 C 
BRANCH  17  18
ATOM     18  N   UNL     1      45.563   5.551  10.625  0.00  0.00    +0.000 N 
ATOM     19  C   UNL     1      44.535   4.783  10.143  0.00  0.00    +0.000 C 
ATOM     20  O   UNL     1      43.361   5.130  10.246  0.00  0.00    +0.000 OA
ATOM     21  H   UNL     1      46.488   5.143  10.732  0.00  0.00    +0.000 HD
BRANCH  19  22
ATOM     22  C   UNL     1      44.908   3.548   9.438  0.00  0.00    +0.000 A 
ATOM     23  C   UNL     1      44.277   2.356   9.768  0.00  0.00    +0.000 A 
ATOM     24  S   UNL     1      44.778   1.031   8.818  0.00  0.00    +0.000 S 
ATOM     25  C   UNL     1      45.895   1.992   7.968  0.00  0.00    +0.000 A 
ATOM     26  N   UNL     1      46.686   1.454   7.002  0.00  0.00    +0.000 NA
ATOM     27  C   UNL     1      47.509   2.289   6.460  0.00  0.00    +0.000 A 
ATOM     28  N   UNL     1      47.611   3.614   6.795  0.00  0.00    +0.000 N 
ATOM     29  C   UNL     1      46.814   4.207   7.746  0.00  0.00    +0.000 A 
ATOM     30  O   UNL     1      46.905   5.405   7.995  0.00  0.00    +0.000 OA
ATOM     31  C   UNL     1      45.875   3.309   8.392  0.00  0.00    +0.000 A 
ATOM     32  H   UNL     1      48.272   4.216   6.330  0.00  0.00    +0.000 HD
ENDBRANCH  19  22
ENDBRANCH  17  18
ENDBRANCH   4  17
TORSDOF 7
ENDMDL
