MODEL 1
REMARK VINA RESULT:    -7.701      0.000      0.000
REMARK INTER + INTRA:         -10.686
REMARK INTER:                 -10.403
REMARK INTRA:                  -0.283
REMARK UNBOUND:                -0.283
REMARK  Name = 
REMARK  7 active torsions:
REMARK  status: ('A' for Active; 'I' for Inactive)
REMARK    1  A    between atoms: N_1  and  C_2
REMARK    2  A    between atoms: C_2  and  C_3
REMARK    3  A    between atoms: C_6  and  O_7
REMARK    4  A    between atoms: O_7  and  C_8
REMARK    5  A    between atoms: C_8  and  C_9
REMARK    6  A    between atoms: CA_12  and  C_13
REMARK    7  A    between atoms: C_13  and  OXT_15
REMARK                            x       y       z     vdW  Elec       q    Type
REMARK                         _______ _______ _______ _____ _____    ______ ____
ROOT
ATOM      1  O   UNL     1      43.757   3.500   9.557  0.00  0.00    +0.000 OA
ENDROOT
BRANCH   1   5
ATOM      2  C   UNL     1      47.059   2.404   7.234  0.00  0.00    +0.000 A 
ATOM      3  C   UNL     1      46.428   1.429   8.018  0.00  0.00    +0.000 A 
ATOM      4  C   UNL     1      45.315   1.748   8.803  0.00  0.00    +0.000 A 
ATOM      5  C   UNL     1      44.815   3.050   8.814  0.00  0.00    +0.000 A 
ATOM      6  C   UNL     1      45.424   4.019   8.013  0.00  0.00    +0.000 A 
ATOM      7  C   UNL     1      46.536   3.701   7.228  0.00  0.00    +0.000 A 
BRANCH   2   8
ATOM      8  C   UNL     1      48.306   2.068   6.455  0.00  0.00    +0.000 C 
BRANCH   8   9
ATOM      9  N   UNL     1      48.233   2.555   5.084  0.00  0.00    +0.000 NA
ATOM     10  H   UNL     1      48.794   1.951   4.486  0.00  0.00    +0.000 HD
ATOM     11  H   UNL     1      48.658   3.479   5.041  0.00  0.00    +0.000 HD
ENDBRANCH   8   9
ENDBRANCH   2   8
ENDBRANCH   1   5
BRANCH   1  12
ATOM     12  C   UNL     1      43.922   4.770  10.193  0.00  0.00    +0.000 C 
BRANCH  12  13
ATOM     13  C   UNL     1      44.783   4.654  11.427  0.00  0.00    +0.000 A 
ATOM     14  C   UNL     1      44.880   3.466  12.154  0.00  0.00    +0.000 A 
ATOM     15  N   UNL     1      45.661   3.329  13.258  0.00  0.00    +0.000 NA
ATOM     16  CA  UNL     1      46.357   4.454  13.601  0.00  0.00    +0.000 A 
ATOM     17  C   UNL     1      46.291   5.631  12.881  0.00  0.00    +0.000 A 
ATOM     18  N   UNL     1      45.510   5.752  11.779  0.00  0.00    +0.000 NA
BRANCH  16  19
ATOM     19  C   UNL     1      47.205   4.369  14.812  0.00  0.00    +0.000 C 
ATOM     20  O   UNL     1      47.628   3.334  15.292  0.00  0.00    +0.000 OA
BRANCH  19  21
ATOM     21  OXT UNL     1      47.452   5.605  15.312  0.00  0.00    +0.000 OA
ATOM     22  HXT UNL     1      46.691   5.886  15.875  0.00  0.00    +0.000 HD
ENDBRANCH  19  21
ENDBRANCH  16  19
ENDBRANCH  12  13
ENDBRANCH   1  12
TORSDOF 7
ENDMDL
MODEL 2
REMARK VINA RESULT:    -7.669      1.065      1.962
REMARK INTER + INTRA:         -10.643
REMARK INTER:                 -10.191
REMARK INTRA:                  -0.452
REMARK UNBOUND:                -0.283
REMARK  Name = 
REMARK  7 active torsions:
REMARK  status: ('A' for Active; 'I' for Inactive)
REMARK    1  A    between atoms: N_1  and  C_2
REMARK    2  A    between atoms: C_2  and  C_3
REMARK    3  A    between atoms: C_6  and  O_7
REMARK    4  A    between atoms: O_7  and  C_8
REMARK    5  A    between atoms: C_8  and  C_9
REMARK    6  A    between atoms: CA_12  and  C_13
REMARK    7  A    between atoms: C_13  and  OXT_15
REMARK                            x       y       z     vdW  Elec       q    Type
REMARK                         _______ _______ _______ _____ _____    ______ ____
ROOT
ATOM      1  O   UNL     1      43.589   3.847  10.181  0.00  0.00    +0.000 OA
ENDROOT
BRANCH   1   5
ATOM      2  C   UNL     1      46.525   2.384   7.585  0.00  0.00    +0.000 A 
ATOM      3  C   UNL     1      46.261   3.759   7.603  0.00  0.00    +0.000 A 
ATOM      4  C   UNL     1      45.295   4.295   8.462  0.00  0.00    +0.000 A 
ATOM      5  C   UNL     1      44.578   3.459   9.318  0.00  0.00    +0.000 A 
ATOM      6  C   UNL     1      44.857   2.090   9.323  0.00  0.00    +0.000 A 
ATOM      7  C   UNL     1      45.823   1.554   8.466  0.00  0.00    +0.000 A 
BRANCH   2   8
ATOM      8  C   UNL     1      47.511   1.808   6.599  0.00  0.00    +0.000 C 
BRANCH   8   9
ATOM      9  N   UNL     1      48.662   2.682   6.415  0.00  0.00    +0.000 NA
ATOM     10  H   UNL     1      49.349   2.484   7.139  0.00  0.00    +0.000 HD
ATOM     11  H   UNL     1      48.366   3.647   6.553  0.00  0.00    +0.000 HD
ENDBRANCH   8   9
ENDBRANCH   2   8
ENDBRANCH   1   5
BRANCH   1  12
ATOM     12  C   UNL     1      43.674   3.340  11.514  0.00  0.00    +0.000 C 
BRANCH  12  13
ATOM     13  C   UNL     1      44.787   4.011  12.282  0.00  0.00    +0.000 A 
ATOM     14  C   UNL     1      44.858   5.398  12.423  0.00  0.00    +0.000 A 
ATOM     15  N   UNL     1      45.839   6.028  13.123  0.00  0.00    +0.000 NA
ATOM     16  CA  UNL     1      46.755   5.188  13.692  0.00  0.00    +0.000 A 
ATOM     17  C   UNL     1      46.688   3.812  13.582  0.00  0.00    +0.000 A 
ATOM     18  N   UNL     1      45.702   3.198  12.883  0.00  0.00    +0.000 NA
BRANCH  16  19
ATOM     19  C   UNL     1      47.860   5.821  14.447  0.00  0.00    +0.000 C 
ATOM     20  O   UNL     1      48.774   6.447  13.944  0.00  0.00    +0.000 OA
BRANCH  19  21
ATOM     21  OXT UNL     1      47.711   5.613  15.779  0.00  0.00    +0.000 OA
ATOM     22  HXT UNL     1      48.563   5.815  16.237  0.00  0.00    +0.000 HD
ENDBRANCH  19  21
ENDBRANCH  16  19
ENDBRANCH  12  13
ENDBRANCH   1  12
TORSDOF 7
ENDMDL
MODEL 3
REMARK VINA RESULT:    -7.510      2.743      6.213
REMARK INTER + INTRA:         -10.427
REMARK INTER:                  -9.953
REMARK INTRA:                  -0.474
REMARK UNBOUND:                -0.283
REMARK  Name = 
REMARK  7 active torsions:
REMARK  status: ('A' for Active; 'I' for Inactive)
REMARK    1  A    between atoms: N_1  and  C_2
REMARK    2  A    between atoms: C_2  and  C_3
REMARK    3  A    between atoms: C_6  and  O_7
REMARK    4  A    between atoms: O_7  and  C_8
REMARK    5  A    between atoms: C_8  and  C_9
REMARK    6  A    between atoms: CA_12  and  C_13
REMARK    7  A    between atoms: C_13  and  OXT_15
REMARK                            x       y       z     vdW  Elec       q    Type
REMARK                         _______ _______ _______ _____ _____    ______ ____
ROOT
ATOM      1  O   UNL     1      43.870   4.644  11.223  0.00  0.00    +0.000 OA
ENDROOT
BRANCH   1   5
ATOM      2  C   UNL     1      47.239   6.210  13.147  0.00  0.00    +0.000 A 
ATOM      3  C   UNL     1      46.736   6.869  12.017  0.00  0.00    +0.000 A 
ATOM      4  C   UNL     1      45.606   6.387  11.348  0.00  0.00    +0.000 A 
ATOM      5  C   UNL     1      44.960   5.236  11.800  0.00  0.00    +0.000 A 
ATOM      6  C   UNL     1      45.442   4.592  12.942  0.00  0.00    +0.000 A 
ATOM      7  C   UNL     1      46.571   5.072  13.612  0.00  0.00    +0.000 A 
BRANCH   2   8
ATOM      8  C   UNL     1      48.504   6.692  13.811  0.00  0.00    +0.000 C 
BRANCH   8   9
ATOM      9  N   UNL     1      49.611   6.774  12.868  0.00  0.00    +0.000 NA
ATOM     10  H   UNL     1      49.239   6.910  11.930  0.00  0.00    +0.000 HD
ATOM     11  H   UNL     1      50.100   5.880  12.858  0.00  0.00    +0.000 HD
ENDBRANCH   8   9
ENDBRANCH   2   8
ENDBRANCH   1   5
BRANCH   1  12
ATOM     12  C   UNL     1      43.779   4.732   9.799  0.00  0.00    +0.000 C 
BRANCH  12  13
ATOM     13  C   UNL     1      44.707   3.747   9.131  0.00  0.00    +0.000 A 
ATOM     14  C   UNL     1      44.714   2.392   9.466  0.00  0.00    +0.000 A 
ATOM     15  N   UNL     1      45.526   1.480   8.869  0.00  0.00    +0.000 NA
ATOM     16  CA  UNL     1      46.339   1.997   7.899  0.00  0.00    +0.000 A 
ATOM     17  C   UNL     1      46.329   3.331   7.539  0.00  0.00    +0.000 A 
ATOM     18  N   UNL     1      45.511   4.228   8.141  0.00  0.00    +0.000 NA
BRANCH  16  19
ATOM     19  C   UNL     1      47.264   1.052   7.232  0.00  0.00    +0.000 C 
ATOM     20  O   UNL     1      48.101   1.366   6.408  0.00  0.00    +0.000 OA
BRANCH  19  21
ATOM     21  OXT UNL     1      47.053  -0.214   7.670  0.00  0.00    +0.000 OA
ATOM     22  HXT UNL     1      46.854  -0.195   8.638  0.00  0.00    +0.000 HD
ENDBRANCH  19  21
ENDBRANCH  16  19
ENDBRANCH  12  13
ENDBRANCH   1  12
TORSDOF 7
ENDMDL
MODEL 4
REMARK VINA RESULT:    -7.473      1.163      1.331
REMARK INTER + INTRA:         -10.377
REMARK INTER:                 -10.006
REMARK INTRA:                  -0.372
REMARK UNBOUND:                -0.283
REMARK  Name = 
REMARK  7 active torsions:
REMARK  status: ('A' for Active; 'I' for Inactive)
REMARK    1  A    between atoms: N_1  and  C_2
REMARK    2  A    between atoms: C_2  and  C_3
REMARK    3  A    between atoms: C_6  and  O_7
REMARK    4  A    between atoms: O_7  and  C_8
REMARK    5  A    between atoms: C_8  and  C_9
REMARK    6  A    between atoms: CA_12  and  C_13
REMARK    7  A    between atoms: C_13  and  OXT_15
REMARK                            x       y       z     vdW  Elec       q    Type
REMARK                         _______ _______ _______ _____ _____    ______ ____
ROOT
ATOM      1  O   UNL     1      44.335   4.796  10.196  0.00  0.00    +0.000 OA
ENDROOT
BRANCH   1   5
ATOM      2  C   UNL     1      46.410   2.229   7.625  0.00  0.00    +0.000 A 
ATOM      3  C   UNL     1      45.588   1.677   8.616  0.00  0.00    +0.000 A 
ATOM      4  C   UNL     1      44.868   2.497   9.492  0.00  0.00    +0.000 A 
ATOM      5  C   UNL     1      44.959   3.885   9.387  0.00  0.00    +0.000 A 
ATOM      6  C   UNL     1      45.756   4.440   8.383  0.00  0.00    +0.000 A 
ATOM      7  C   UNL     1      46.475   3.622   7.507  0.00  0.00    +0.000 A 
BRANCH   2   8
ATOM      8  C   UNL     1      47.243   1.337   6.740  0.00  0.00    +0.000 C 
BRANCH   8   9
ATOM      9  N   UNL     1      48.505   1.968   6.373  0.00  0.00    +0.000 NA
ATOM     10  H   UNL     1      49.264   1.506   6.870  0.00  0.00    +0.000 HD
ATOM     11  H   UNL     1      48.494   2.934   6.696  0.00  0.00    +0.000 HD
ENDBRANCH   8   9
ENDBRANCH   2   8
ENDBRANCH   1   5
BRANCH   1  12
ATOM     12  C   UNL     1      45.150   5.852  10.710  0.00  0.00    +0.000 C 
BRANCH  12  13
ATOM     13  C   UNL     1      45.762   5.471  12.036  0.00  0.00    +0.000 A 
ATOM     14  C   UNL     1      45.277   4.407  12.798  0.00  0.00    +0.000 A 
ATOM     15  N   UNL     1      45.820   4.031  13.986  0.00  0.00    +0.000 NA
ATOM     16  CA  UNL     1      46.894   4.780  14.378  0.00  0.00    +0.000 A 
ATOM     17  C   UNL     1      47.402   5.822  13.627  0.00  0.00    +0.000 A 
ATOM     18  N   UNL     1      46.852   6.183  12.441  0.00  0.00    +0.000 NA
BRANCH  16  19
ATOM     19  C   UNL     1      47.510   4.430  15.679  0.00  0.00    +0.000 C 
ATOM     20  O   UNL     1      48.605   4.806  16.051  0.00  0.00    +0.000 OA
BRANCH  19  21
ATOM     21  OXT UNL     1      46.682   3.636  16.402  0.00  0.00    +0.000 OA
ATOM     22  HXT UNL     1      47.049   3.527  17.312  0.00  0.00    +0.000 HD
ENDBRANCH  19  21
ENDBRANCH  16  19
ENDBRANCH  12  13
ENDBRANCH   1  12
TORSDOF 7
ENDMDL
MODEL 5
REMARK VINA RESULT:    -7.172      2.696      6.443
REMARK INTER + INTRA:          -9.971
REMARK INTER:                  -9.588
REMARK INTRA:                  -0.383
REMARK UNBOUND:                -0.283
REMARK  Name = 
REMARK  7 active torsions:
REMARK  status: ('A' for Active; 'I' for Inactive)
REMARK    1  A    between atoms: N_1  and  C_2
REMARK    2  A    between atoms: C_2  and  C_3
REMARK    3  A    between atoms: C_6  and  O_7
REMARK    4  A    between atoms: O_7  and  C_8
REMARK    5  A    between atoms: C_8  and  C_9
REMARK    6  A    between atoms: CA_12  and  C_13
REMARK    7  A    between atoms: C_13  and  OXT_15
REMARK                            x       y       z     vdW  Elec       q    Type
REMARK                         _______ _______ _______ _____ _____    ______ ____
ROOT
ATOM      1  O   UNL     1      43.996   5.096  10.870  0.00  0.00    +0.000 OA
ENDROOT
BRANCH   1   5
ATOM      2  C   UNL     1      47.169   6.072  13.416  0.00  0.00    +0.000 A 
ATOM      3  C   UNL     1      46.329   5.003  13.758  0.00  0.00    +0.000 A 
ATOM      4  C   UNL     1      45.262   4.635  12.932  0.00  0.00    +0.000 A 
ATOM      5  C   UNL     1      45.019   5.332  11.748  0.00  0.00    +0.000 A 
ATOM      6  C   UNL     1      45.869   6.381  11.390  0.00  0.00    +0.000 A 
ATOM      7  C   UNL     1      46.937   6.749  12.214  0.00  0.00    +0.000 A 
BRANCH   2   8
ATOM      8  C   UNL     1      48.266   6.511  14.353  0.00  0.00    +0.000 C 
BRANCH   8   9
ATOM      9  N   UNL     1      49.499   6.807  13.637  0.00  0.00    +0.000 NA
ATOM     10  H   UNL     1      49.787   5.982  13.115  0.00  0.00    +0.000 HD
ATOM     11  H   UNL     1      50.236   6.991  14.316  0.00  0.00    +0.000 HD
ENDBRANCH   8   9
ENDBRANCH   2   8
ENDBRANCH   1   5
BRANCH   1  12
ATOM     12  C   UNL     1      43.808   3.739  10.463  0.00  0.00    +0.000 C 
BRANCH  12  13
ATOM     13  C   UNL     1      44.758   3.368   9.350  0.00  0.00    +0.000 A 
ATOM     14  C   UNL     1      45.217   4.305   8.424  0.00  0.00    +0.000 A 
ATOM     15  N   UNL     1      46.086   4.003   7.423  0.00  0.00    +0.000 NA
ATOM     16  CA  UNL     1      46.487   2.696   7.400  0.00  0.00    +0.000 A 
ATOM     17  C   UNL     1      46.061   1.759   8.322  0.00  0.00    +0.000 A 
ATOM     18  N   UNL     1      45.196   2.077   9.317  0.00  0.00    +0.000 NA
BRANCH  16  19
ATOM     19  C   UNL     1      47.415   2.304   6.314  0.00  0.00    +0.000 C 
ATOM     20  O   UNL     1      48.189   1.367   6.368  0.00  0.00    +0.000 OA
BRANCH  19  21
ATOM     21  OXT UNL     1      47.280   3.130   5.248  0.00  0.00    +0.000 OA
ATOM     22  HXT UNL     1      47.570   4.040   5.502  0.00  0.00    +0.000 HD
ENDBRANCH  19  21
ENDBRANCH  16  19
ENDBRANCH  12  13
ENDBRANCH   1  12
TORSDOF 7
ENDMDL
MODEL 6
REMARK VINA RESULT:    -7.092      2.724      6.463
REMARK INTER + INTRA:          -9.863
REMARK INTER:                  -9.387
REMARK INTRA:                  -0.476
REMARK UNBOUND:                -0.283
REMARK  Name = 
REMARK  7 active torsions:
REMARK  status: ('A' for Active; 'I' for Inactive)
REMARK    1  A    between atoms: N_1  and  C_2
REMARK    2  A    between atoms: C_2  and  C_3
REMARK    3  A    between atoms: C_6  and  O_7
REMARK    4  A    between atoms: O_7  and  C_8
REMARK    5  A    between atoms: C_8  and  C_9
REMARK    6  A    between atoms: CA_12  and  C_13
REMARK    7  A    between atoms: C_13  and  OXT_15
REMARK                            x       y       z     vdW  Elec       q    Type
REMARK                         _______ _______ _______ _____ _____    ______ ____
ROOT
ATOM      1  O   UNL     1      44.482   5.736  10.464  0.00  0.00    +0.000 OA
ENDROOT
BRANCH   1   5
ATOM      2  C   UNL     1      47.121   5.662  13.710  0.00  0.00    +0.000 A 
ATOM      3  C   UNL     1      45.986   4.841  13.740  0.00  0.00    +0.000 A 
ATOM      4  C   UNL     1      45.082   4.825  12.673  0.00  0.00    +0.000 A 
ATOM      5  C   UNL     1      45.300   5.633  11.556  0.00  0.00    +0.000 A 
ATOM      6  C   UNL     1      46.445   6.433  11.510  0.00  0.00    +0.000 A 
ATOM      7  C   UNL     1      47.350   6.448  12.575  0.00  0.00    +0.000 A 
BRANCH   2   8
ATOM      8  C   UNL     1      48.046   5.731  14.899  0.00  0.00    +0.000 C 
BRANCH   8   9
ATOM      9  N   UNL     1      47.450   5.122  16.081  0.00  0.00    +0.000 NA
ATOM     10  H   UNL     1      47.428   5.808  16.833  0.00  0.00    +0.000 HD
ATOM     11  H   UNL     1      48.053   4.365  16.398  0.00  0.00    +0.000 HD
ENDBRANCH   8   9
ENDBRANCH   2   8
ENDBRANCH   1   5
BRANCH   1  12
ATOM     12  C   UNL     1      43.833   4.535  10.041  0.00  0.00    +0.000 C 
BRANCH  12  13
ATOM     13  C   UNL     1      44.764   3.668   9.229  0.00  0.00    +0.000 A 
ATOM     14  C   UNL     1      44.853   2.289   9.425  0.00  0.00    +0.000 A 
ATOM     15  N   UNL     1      45.669   1.482   8.696  0.00  0.00    +0.000 NA
ATOM     16  CA  UNL     1      46.399   2.133   7.741  0.00  0.00    +0.000 A 
ATOM     17  C   UNL     1      46.308   3.493   7.518  0.00  0.00    +0.000 A 
ATOM     18  N   UNL     1      45.486   4.284   8.251  0.00  0.00    +0.000 NA
BRANCH  16  19
ATOM     19  C   UNL     1      47.325   1.306   6.934  0.00  0.00    +0.000 C 
ATOM     20  O   UNL     1      48.231   1.745   6.250  0.00  0.00    +0.000 OA
BRANCH  19  21
ATOM     21  OXT UNL     1      47.030  -0.011   7.065  0.00  0.00    +0.000 OA
ATOM     22  HXT UNL     1      46.531  -0.150   7.906  0.00  0.00    +0.000 HD
ENDBRANCH  19  21
ENDBRANCH  16  19
ENDBRANCH  12  13
ENDBRANCH   1  12
TORSDOF 7
ENDMDL
MODEL 7
REMARK VINA RESULT:    -6.784      1.727      1.963
REMARK INTER + INTRA:          -9.446
REMARK INTER:                  -8.991
REMARK INTRA:                  -0.455
REMARK UNBOUND:                -0.283
REMARK  Name = 
REMARK  7 active torsions:
REMARK  status: ('A' for Active; 'I' for Inactive)
REMARK    1  A    between atoms: N_1  and  C_2
REMARK    2  A    between atoms: C_2  and  C_3
REMARK    3  A    between atoms: C_6  and  O_7
REMARK    4  A    between atoms: O_7  and  C_8
REMARK    5  A    between atoms: C_8  and  C_9
REMARK    6  A    between atoms: CA_12  and  C_13
REMARK    7  A    between atoms: C_13  and  OXT_15
REMARK                            x       y       z     vdW  Elec       q    Type
REMARK                         _______ _______ _______ _____ _____    ______ ____
ROOT
ATOM      1  O   UNL     1      44.353   5.086   9.721  0.00  0.00    +0.000 OA
ENDROOT
BRANCH   1   5
ATOM      2  C   UNL     1      46.344   1.964   7.774  0.00  0.00    +0.000 A 
ATOM      3  C   UNL     1      45.373   1.654   8.735  0.00  0.00    +0.000 A 
ATOM      4  C   UNL     1      44.675   2.665   9.405  0.00  0.00    +0.000 A 
ATOM      5  C   UNL     1      44.938   4.005   9.120  0.00  0.00    +0.000 A 
ATOM      6  C   UNL     1      45.886   4.318   8.142  0.00  0.00    +0.000 A 
ATOM      7  C   UNL     1      46.583   3.309   7.472  0.00  0.00    +0.000 A 
BRANCH   2   8
ATOM      8  C   UNL     1      47.146   0.869   7.117  0.00  0.00    +0.000 C 
BRANCH   8   9
ATOM      9  N   UNL     1      46.921  -0.421   7.757  0.00  0.00    +0.000 NA
ATOM     10  H   UNL     1      47.043  -0.319   8.763  0.00  0.00    +0.000 HD
ATOM     11  H   UNL     1      47.640  -1.072   7.444  0.00  0.00    +0.000 HD
ENDBRANCH   8   9
ENDBRANCH   2   8
ENDBRANCH   1   5
BRANCH   1  12
ATOM     12  C   UNL     1      44.083   4.967  11.119  0.00  0.00    +0.000 C 
BRANCH  12  13
ATOM     13  C   UNL     1      45.279   5.380  11.942  0.00  0.00    +0.000 A 
ATOM     14  C   UNL     1      45.590   4.766  13.157  0.00  0.00    +0.000 A 
ATOM     15  N   UNL     1      46.670   5.105  13.909  0.00  0.00    +0.000 NA
ATOM     16  CA  UNL     1      47.441   6.100  13.375  0.00  0.00    +0.000 A 
ATOM     17  C   UNL     1      47.161   6.703  12.164  0.00  0.00    +0.000 A 
ATOM     18  N   UNL     1      46.082   6.351  11.422  0.00  0.00    +0.000 NA
BRANCH  16  19
ATOM     19  C   UNL     1      48.618   6.528  14.165  0.00  0.00    +0.000 C 
ATOM     20  O   UNL     1      48.920   6.083  15.256  0.00  0.00    +0.000 OA
BRANCH  19  21
ATOM     21  OXT UNL     1      49.318   7.481  13.503  0.00  0.00    +0.000 OA
ATOM     22  HXT UNL     1      50.098   7.749  14.046  0.00  0.00    +0.000 HD
ENDBRANCH  19  21
ENDBRANCH  16  19
ENDBRANCH  12  13
ENDBRANCH   1  12
TORSDOF 7
ENDMDL
MODEL 8
REMARK VINA RESULT:    -6.045      3.519      7.814
REMARK INTER + INTRA:          -8.448
REMARK INTER:                  -8.119
REMARK INTRA:                  -0.329
REMARK UNBOUND:                -0.283
REMARK  Name = 
REMARK  7 active torsions:
REMARK  status: ('A' for Active; 'I' for Inactive)
REMARK    1  A    between atoms: N_1  and  C_2
REMARK    2  A    between atoms: C_2  and  C_3
REMARK    3  A    between atoms: C_6  and  O_7
REMARK    4  A    between atoms: O_7  and  C_8
REMARK    5  A    between atoms: C_8  and  C_9
REMARK    6  A    between atoms: CA_12  and  C_13
REMARK    7  A    between atoms: C_13  and  OXT_15
REMARK                            x       y       z     vdW  Elec       q    Type
REMARK                         _______ _______ _______ _____ _____    ______ ____
ROOT
ATOM      1  O   UNL     1      47.410   4.626  16.254  0.00  0.00    +0.000 OA
ENDROOT
BRANCH   1   5
ATOM      2  C   UNL     1      50.801   2.451  17.383  0.00  0.00    +0.000 A 
ATOM      3  C   UNL     1      50.747   3.821  17.671  0.00  0.00    +0.000 A 
ATOM      4  C   UNL     1      49.630   4.586  17.321  0.00  0.00    +0.000 A 
ATOM      5  C   UNL     1      48.546   3.989  16.676  0.00  0.00    +0.000 A 
ATOM      6  C   UNL     1      48.584   2.618  16.411  0.00  0.00    +0.000 A 
ATOM      7  C   UNL     1      49.700   1.853  16.761  0.00  0.00    +0.000 A 
BRANCH   2   8
ATOM      8  C   UNL     1      52.043   1.654  17.691  0.00  0.00    +0.000 C 
BRANCH   8   9
ATOM      9  N   UNL     1      51.721   0.305  18.139  0.00  0.00    +0.000 NA
ATOM     10  H   UNL     1      51.097  -0.130  17.461  0.00  0.00    +0.000 HD
ATOM     11  H   UNL     1      51.201   0.365  19.013  0.00  0.00    +0.000 HD
ENDBRANCH   8   9
ENDBRANCH   2   8
ENDBRANCH   1   5
BRANCH   1  12
ATOM     12  C   UNL     1      47.495   5.312  15.003  0.00  0.00    +0.000 C 
BRANCH  12  13
ATOM     13  C   UNL     1      46.500   4.760  14.010  0.00  0.00    +0.000 A 
ATOM     14  C   UNL     1      46.572   3.448  13.541  0.00  0.00    +0.000 A 
ATOM     15  N   UNL     1      45.681   2.920  12.661  0.00  0.00    +0.000 NA
ATOM     16  CA  UNL     1      44.693   3.781  12.273  0.00  0.00    +0.000 A 
ATOM     17  C   UNL     1      44.592   5.076  12.744  0.00  0.00    +0.000 A 
ATOM     18  N   UNL     1      45.488   5.587  13.625  0.00  0.00    +0.000 NA
BRANCH  16  19
ATOM     19  C   UNL     1      43.707   3.266  11.295  0.00  0.00    +0.000 C 
ATOM     20  O   UNL     1      43.411   3.818  10.253  0.00  0.00    +0.000 OA
BRANCH  19  21
ATOM     21  OXT UNL     1      43.183   2.089  11.718  0.00  0.00    +0.000 OA
ATOM     22  HXT UNL     1      43.669   1.343  11.290  0.00  0.00    +0.000 HD
ENDBRANCH  19  21
ENDBRANCH  16  19
ENDBRANCH  12  13
ENDBRANCH   1  12
TORSDOF 7
ENDMDL
MODEL 9
REMARK VINA RESULT:    -5.786      2.681      4.205
REMARK INTER + INTRA:          -8.099
REMARK INTER:                  -7.752
REMARK INTRA:                  -0.347
REMARK UNBOUND:                -0.283
REMARK  Name = 
REMARK  7 active torsions:
REMARK  status: ('A' for Active; 'I' for Inactive)
REMARK    1  A    between atoms: N_1  and  C_2
REMARK    2  A    between atoms: C_2  and  C_3
REMARK    3  A    between atoms: C_6  and  O_7
REMARK    4  A    between atoms: O_7  and  C_8
REMARK    5  A    between atoms: C_8  and  C_9
REMARK    6  A    between atoms: CA_12  and  C_13
REMARK    7  A    between atoms: C_13  and  OXT_15
REMARK                            x       y       z     vdW  Elec       q    Type
REMARK                         _______ _______ _______ _____ _____    ______ ____
ROOT
ATOM      1  O   UNL     1      45.563   5.037  13.410  0.00  0.00    +0.000 OA
ENDROOT
BRANCH   1   5
ATOM      2  C   UNL     1      44.993   3.941   9.413  0.00  0.00    +0.000 A 
ATOM      3  C   UNL     1      44.627   3.041  10.422  0.00  0.00    +0.000 A 
ATOM      4  C   UNL     1      44.790   3.368  11.772  0.00  0.00    +0.000 A 
ATOM      5  C   UNL     1      45.323   4.605  12.134  0.00  0.00    +0.000 A 
ATOM      6  C   UNL     1      45.664   5.517  11.132  0.00  0.00    +0.000 A 
ATOM      7  C   UNL     1      45.501   5.192   9.783  0.00  0.00    +0.000 A 
BRANCH   2   8
ATOM      8  C   UNL     1      44.888   3.547   7.962  0.00  0.00    +0.000 C 
BRANCH   8   9
ATOM      9  N   UNL     1      46.053   3.979   7.200  0.00  0.00    +0.000 NA
ATOM     10  H   UNL     1      46.835   3.363   7.411  0.00  0.00    +0.000 HD
ATOM     11  H   UNL     1      46.323   4.909   7.515  0.00  0.00    +0.000 HD
ENDBRANCH   8   9
ENDBRANCH   2   8
ENDBRANCH   1   5
BRANCH   1  12
ATOM     12  C   UNL     1      46.832   5.650  13.646  0.00  0.00    +0.000 C 
BRANCH  12  13
ATOM     13  C   UNL     1      47.422   5.197  14.960  0.00  0.00    +0.000 A 
ATOM     14  C   UNL     1      48.384   5.947  15.637  0.00  0.00    +0.000 A 
ATOM     15  N   UNL     1      48.919   5.572  16.830  0.00  0.00    +0.000 NA
ATOM     16  CA  UNL     1      48.429   4.395  17.323  0.00  0.00    +0.000 A 
ATOM     17  C   UNL     1      47.460   3.652  16.678  0.00  0.00    +0.000 A 
ATOM     18  N   UNL     1      46.933   4.040  15.490  0.00  0.00    +0.000 NA
BRANCH  16  19
ATOM     19  C   UNL     1      48.994   3.925  18.609  0.00  0.00    +0.000 C 
ATOM     20  O   UNL     1      50.031   4.329  19.100  0.00  0.00    +0.000 OA
BRANCH  19  21
ATOM     21  OXT UNL     1      48.193   2.985  19.168  0.00  0.00    +0.000 OA
ATOM     22  HXT UNL     1      48.521   2.776  20.076  0.00  0.00    +0.000 HD
ENDBRANCH  19  21
ENDBRANCH  16  19
ENDBRANCH  12  13
ENDBRANCH   1  12
TORSDOF 7
ENDMDL
