MODEL 1
REMARK VINA RESULT:    -7.807      0.000      0.000
REMARK INTER + INTRA:         -10.558
REMARK INTER:                  -9.860
REMARK INTRA:                  -0.697
REMARK UNBOUND:                -0.697
REMARK  Name = 
REMARK  6 active torsions:
REMARK  status: ('A' for Active; 'I' for Inactive)
REMARK    1  A    between atoms: C_1  and  O_2
REMARK    2  A    between atoms: O_2  and  C_3
REMARK    3  A    between atoms: N_9  and  C_10
REMARK    4  A    between atoms: C_10  and  C_11
REMARK    5  A    between atoms: C_14  and  C_15
REMARK    6  A    between atoms: C_15  and  N_16
REMARK                            x       y       z     vdW  Elec       q    Type
REMARK                         _______ _______ _______ _____ _____    ______ ____
ROOT
ATOM      1  C   UNL     1      47.149   6.491  12.127  0.00  0.00    +0.000 A 
ATOM      2  C   UNL     1      47.198   6.014  13.434  0.00  0.00    +0.000 A 
ATOM      3  C   UNL     1      46.236   5.110  13.896  0.00  0.00    +0.000 A 
ATOM      4  C   UNL     1      45.215   4.666  13.036  0.00  0.00    +0.000 A 
ATOM      5  C   UNL     1      44.117   3.783  13.202  0.00  0.00    +0.000 A 
ATOM      6  C   UNL     1      43.465   3.698  11.995  0.00  0.00    +0.000 A 
ATOM      7  N   UNL     1      44.130   4.494  11.091  0.00  0.00    +0.000 N 
ATOM      8  C   UNL     1      45.189   5.130  11.715  0.00  0.00    +0.000 A 
ATOM      9  C   UNL     1      46.138   6.059  11.252  0.00  0.00    +0.000 A 
ENDROOT
BRANCH   1  11
ATOM     10  C   UNL     1      49.337   7.429  12.148  0.00  0.00    +0.000 C 
ATOM     11  O   UNL     1      48.034   7.383  11.574  0.00  0.00    +0.000 OA
ENDBRANCH   1  11
BRANCH   7  12
ATOM     12  C   UNL     1      43.814   4.528   9.662  0.00  0.00    +0.000 C 
BRANCH  12  13
ATOM     13  C   UNL     1      44.788   3.717   8.846  0.00  0.00    +0.000 A 
ATOM     14  C   UNL     1      44.878   2.332   9.022  0.00  0.00    +0.000 A 
ATOM     15  C   UNL     1      45.861   1.593   8.359  0.00  0.00    +0.000 A 
ATOM     16  C   UNL     1      46.775   2.219   7.500  0.00  0.00    +0.000 A 
ATOM     17  C   UNL     1      46.646   3.597   7.279  0.00  0.00    +0.000 A 
ATOM     18  C   UNL     1      45.658   4.336   7.937  0.00  0.00    +0.000 A 
BRANCH  16  19
ATOM     19  C   UNL     1      47.947   1.431   6.968  0.00  0.00    +0.000 C 
BRANCH  19  20
ATOM     20  N   UNL     1      48.424   1.886   5.666  0.00  0.00    +0.000 NA
ATOM     21  H   UNL     1      49.444   1.874   5.673  0.00  0.00    +0.000 HD
ATOM     22  H   UNL     1      48.146   2.856   5.536  0.00  0.00    +0.000 HD
ENDBRANCH  19  20
ENDBRANCH  16  19
ENDBRANCH  12  13
ENDBRANCH   7  12
TORSDOF 5
ENDMDL
MODEL 2
REMARK VINA RESULT:    -7.648      1.859      2.158
REMARK INTER + INTRA:         -10.357
REMARK INTER:                  -9.713
REMARK INTRA:                  -0.645
REMARK UNBOUND:                -0.697
REMARK  Name = 
REMARK  6 active torsions:
REMARK  status: ('A' for Active; 'I' for Inactive)
REMARK    1  A    between atoms: C_1  and  O_2
REMARK    2  A    between atoms: O_2  and  C_3
REMARK    3  A    between atoms: N_9  and  C_10
REMARK    4  A    between atoms: C_10  and  C_11
REMARK    5  A    between atoms: C_14  and  C_15
REMARK    6  A    between atoms: C_15  and  N_16
REMARK                            x       y       z     vdW  Elec       q    Type
REMARK                         _______ _______ _______ _____ _____    ______ ____
ROOT
ATOM      1  C   UNL     1      45.010   8.422  11.677  0.00  0.00    +0.000 A 
ATOM      2  C   UNL     1      45.999   8.475  12.656  0.00  0.00    +0.000 A 
ATOM      3  C   UNL     1      46.480   7.301  13.243  0.00  0.00    +0.000 A 
ATOM      4  C   UNL     1      45.975   6.051  12.837  0.00  0.00    +0.000 A 
ATOM      5  C   UNL     1      46.245   4.716  13.234  0.00  0.00    +0.000 A 
ATOM      6  C   UNL     1      45.468   3.887  12.460  0.00  0.00    +0.000 A 
ATOM      7  N   UNL     1      44.735   4.668  11.596  0.00  0.00    +0.000 N 
ATOM      8  C   UNL     1      45.002   6.006  11.833  0.00  0.00    +0.000 A 
ATOM      9  C   UNL     1      44.495   7.184  11.257  0.00  0.00    +0.000 A 
ENDROOT
BRANCH   1  11
ATOM     10  C   UNL     1      44.771  10.789  11.586  0.00  0.00    +0.000 C 
ATOM     11  O   UNL     1      44.463   9.509  11.042  0.00  0.00    +0.000 OA
ENDBRANCH   1  11
BRANCH   7  12
ATOM     12  C   UNL     1      43.914   4.121  10.515  0.00  0.00    +0.000 C 
BRANCH  12  13
ATOM     13  C   UNL     1      44.751   3.511   9.420  0.00  0.00    +0.000 A 
ATOM     14  C   UNL     1      44.916   2.123   9.345  0.00  0.00    +0.000 A 
ATOM     15  C   UNL     1      45.787   1.561   8.408  0.00  0.00    +0.000 A 
ATOM     16  C   UNL     1      46.511   2.371   7.521  0.00  0.00    +0.000 A 
ATOM     17  C   UNL     1      46.300   3.755   7.559  0.00  0.00    +0.000 A 
ATOM     18  C   UNL     1      45.423   4.319   8.492  0.00  0.00    +0.000 A 
BRANCH  16  19
ATOM     19  C   UNL     1      47.593   1.750   6.672  0.00  0.00    +0.000 C 
BRANCH  19  20
ATOM     20  N   UNL     1      48.693   2.657   6.359  0.00  0.00    +0.000 NA
ATOM     21  H   UNL     1      49.079   3.011   7.234  0.00  0.00    +0.000 HD
ATOM     22  H   UNL     1      48.323   3.461   5.858  0.00  0.00    +0.000 HD
ENDBRANCH  19  20
ENDBRANCH  16  19
ENDBRANCH  12  13
ENDBRANCH   7  12
TORSDOF 5
ENDMDL
MODEL 3
REMARK VINA RESULT:    -7.645      1.684      2.493
REMARK INTER + INTRA:         -10.353
REMARK INTER:                  -9.719
REMARK INTRA:                  -0.634
REMARK UNBOUND:                -0.697
REMARK  Name = 
REMARK  6 active torsions:
REMARK  status: ('A' for Active; 'I' for Inactive)
REMARK    1  A    between atoms: C_1  and  O_2
REMARK    2  A    between atoms: O_2  and  C_3
REMARK    3  A    between atoms: N_9  and  C_10
REMARK    4  A    between atoms: C_10  and  C_11
REMARK    5  A    between atoms: C_14  and  C_15
REMARK    6  A    between atoms: C_15  and  N_16
REMARK                            x       y       z     vdW  Elec       q    Type
REMARK                         _______ _______ _______ _____ _____    ______ ____
ROOT
ATOM      1  C   UNL     1      47.106   4.276  14.041  0.00  0.00    +0.000 A 
ATOM      2  C   UNL     1      47.503   5.540  14.473  0.00  0.00    +0.000 A 
ATOM      3  C   UNL     1      47.047   6.689  13.819  0.00  0.00    +0.000 A 
ATOM      4  C   UNL     1      46.170   6.576  12.723  0.00  0.00    +0.000 A 
ATOM      5  C   UNL     1      45.553   7.525  11.869  0.00  0.00    +0.000 A 
ATOM      6  C   UNL     1      44.760   6.834  10.983  0.00  0.00    +0.000 A 
ATOM      7  N   UNL     1      44.864   5.492  11.271  0.00  0.00    +0.000 N 
ATOM      8  C   UNL     1      45.754   5.304  12.314  0.00  0.00    +0.000 A 
ATOM      9  C   UNL     1      46.230   4.143  12.951  0.00  0.00    +0.000 A 
ENDROOT
BRANCH   1  11
ATOM     10  C   UNL     1      47.875   3.122  15.975  0.00  0.00    +0.000 C 
ATOM     11  O   UNL     1      47.497   3.087  14.603  0.00  0.00    +0.000 OA
ENDBRANCH   1  11
BRANCH   7  12
ATOM     12  C   UNL     1      44.037   4.466  10.636  0.00  0.00    +0.000 C 
BRANCH  12  13
ATOM     13  C   UNL     1      44.782   3.724   9.555  0.00  0.00    +0.000 A 
ATOM     14  C   UNL     1      44.833   2.326   9.563  0.00  0.00    +0.000 A 
ATOM     15  C   UNL     1      45.622   1.638   8.637  0.00  0.00    +0.000 A 
ATOM     16  C   UNL     1      46.375   2.331   7.678  0.00  0.00    +0.000 A 
ATOM     17  C   UNL     1      46.275   3.728   7.635  0.00  0.00    +0.000 A 
ATOM     18  C   UNL     1      45.481   4.416   8.556  0.00  0.00    +0.000 A 
BRANCH  16  19
ATOM     19  C   UNL     1      47.373   1.574   6.836  0.00  0.00    +0.000 C 
BRANCH  19  20
ATOM     20  N   UNL     1      48.512   2.376   6.404  0.00  0.00    +0.000 NA
ATOM     21  H   UNL     1      48.184   3.068   5.730  0.00  0.00    +0.000 HD
ATOM     22  H   UNL     1      49.168   1.776   5.909  0.00  0.00    +0.000 HD
ENDBRANCH  19  20
ENDBRANCH  16  19
ENDBRANCH  12  13
ENDBRANCH   7  12
TORSDOF 5
ENDMDL
MODEL 4
REMARK VINA RESULT:    -6.750      2.579      6.147
REMARK INTER + INTRA:          -9.223
REMARK INTER:                  -8.775
REMARK INTRA:                  -0.448
REMARK UNBOUND:                -0.697
REMARK  Name = 
REMARK  6 active torsions:
REMARK  status: ('A' for Active; 'I' for Inactive)
REMARK    1  A    between atoms: C_1  and  O_2
REMARK    2  A    between atoms: O_2  and  C_3
REMARK    3  A    between atoms: N_9  and  C_10
REMARK    4  A    between atoms: C_10  and  C_11
REMARK    5  A    between atoms: C_14  and  C_15
REMARK    6  A    between atoms: C_15  and  N_16
REMARK                            x       y       z     vdW  Elec       q    Type
REMARK                         _______ _______ _______ _____ _____    ______ ____
ROOT
ATOM      1  C   UNL     1      45.663   3.704   8.174  0.00  0.00    +0.000 A 
ATOM      2  C   UNL     1      45.311   2.368   8.347  0.00  0.00    +0.000 A 
ATOM      3  C   UNL     1      44.551   1.971   9.451  0.00  0.00    +0.000 A 
ATOM      4  C   UNL     1      44.124   2.926  10.393  0.00  0.00    +0.000 A 
ATOM      5  C   UNL     1      43.367   2.842  11.590  0.00  0.00    +0.000 A 
ATOM      6  C   UNL     1      43.228   4.117  12.085  0.00  0.00    +0.000 A 
ATOM      7  N   UNL     1      43.868   4.982  11.227  0.00  0.00    +0.000 N 
ATOM      8  C   UNL     1      44.458   4.271  10.197  0.00  0.00    +0.000 A 
ATOM      9  C   UNL     1      45.245   4.672   9.102  0.00  0.00    +0.000 A 
ENDROOT
BRANCH   1  11
ATOM     10  C   UNL     1      46.800   3.272   6.128  0.00  0.00    +0.000 C 
ATOM     11  O   UNL     1      46.409   4.200   7.135  0.00  0.00    +0.000 OA
ENDBRANCH   1  11
BRANCH   7  12
ATOM     12  C   UNL     1      43.793   6.439  11.348  0.00  0.00    +0.000 C 
BRANCH  12  13
ATOM     13  C   UNL     1      45.010   7.016  12.025  0.00  0.00    +0.000 A 
ATOM     14  C   UNL     1      45.982   6.171  12.572  0.00  0.00    +0.000 A 
ATOM     15  C   UNL     1      47.049   6.697  13.307  0.00  0.00    +0.000 A 
ATOM     16  C   UNL     1      47.171   8.080  13.509  0.00  0.00    +0.000 A 
ATOM     17  C   UNL     1      46.229   8.926  12.911  0.00  0.00    +0.000 A 
ATOM     18  C   UNL     1      45.165   8.402  12.169  0.00  0.00    +0.000 A 
BRANCH  16  19
ATOM     19  C   UNL     1      48.209   8.594  14.477  0.00  0.00    +0.000 C 
BRANCH  19  20
ATOM     20  N   UNL     1      47.646   9.210  15.674  0.00  0.00    +0.000 NA
ATOM     21  H   UNL     1      46.654   8.981  15.720  0.00  0.00    +0.000 HD
ATOM     22  H   UNL     1      47.706  10.222  15.581  0.00  0.00    +0.000 HD
ENDBRANCH  19  20
ENDBRANCH  16  19
ENDBRANCH  12  13
ENDBRANCH   7  12
TORSDOF 5
ENDMDL
MODEL 5
REMARK VINA RESULT:    -5.852      2.128      3.612
REMARK INTER + INTRA:          -8.089
REMARK INTER:                  -7.576
REMARK INTRA:                  -0.513
REMARK UNBOUND:                -0.697
REMARK  Name = 
REMARK  6 active torsions:
REMARK  status: ('A' for Active; 'I' for Inactive)
REMARK    1  A    between atoms: C_1  and  O_2
REMARK    2  A    between atoms: O_2  and  C_3
REMARK    3  A    between atoms: N_9  and  C_10
REMARK    4  A    between atoms: C_10  and  C_11
REMARK    5  A    between atoms: C_14  and  C_15
REMARK    6  A    between atoms: C_15  and  N_16
REMARK                            x       y       z     vdW  Elec       q    Type
REMARK                         _______ _______ _______ _____ _____    ______ ____
ROOT
ATOM      1  C   UNL     1      47.448   5.426  14.322  0.00  0.00    +0.000 A 
ATOM      2  C   UNL     1      48.220   6.551  14.602  0.00  0.00    +0.000 A 
ATOM      3  C   UNL     1      47.912   7.785  14.021  0.00  0.00    +0.000 A 
ATOM      4  C   UNL     1      46.808   7.902  13.156  0.00  0.00    +0.000 A 
ATOM      5  C   UNL     1      46.255   8.984  12.424  0.00  0.00    +0.000 A 
ATOM      6  C   UNL     1      45.141   8.517  11.768  0.00  0.00    +0.000 A 
ATOM      7  N   UNL     1      44.988   7.184  12.078  0.00  0.00    +0.000 N 
ATOM      8  C   UNL     1      46.022   6.773  12.902  0.00  0.00    +0.000 A 
ATOM      9  C   UNL     1      46.341   5.523  13.462  0.00  0.00    +0.000 A 
ENDROOT
BRANCH   1  11
ATOM     10  C   UNL     1      47.488   4.008  16.233  0.00  0.00    +0.000 C 
ATOM     11  O   UNL     1      47.664   4.169  14.829  0.00  0.00    +0.000 OA
ENDBRANCH   1  11
BRANCH   7  12
ATOM     12  C   UNL     1      43.819   6.396  11.687  0.00  0.00    +0.000 C 
BRANCH  12  13
ATOM     13  C   UNL     1      44.205   5.115  10.991  0.00  0.00    +0.000 A 
ATOM     14  C   UNL     1      44.994   5.147   9.836  0.00  0.00    +0.000 A 
ATOM     15  C   UNL     1      45.253   3.976   9.119  0.00  0.00    +0.000 A 
ATOM     16  C   UNL     1      44.732   2.744   9.542  0.00  0.00    +0.000 A 
ATOM     17  C   UNL     1      43.992   2.705  10.731  0.00  0.00    +0.000 A 
ATOM     18  C   UNL     1      43.739   3.876  11.453  0.00  0.00    +0.000 A 
BRANCH  16  19
ATOM     19  C   UNL     1      44.854   1.542   8.636  0.00  0.00    +0.000 C 
BRANCH  19  20
ATOM     20  N   UNL     1      46.230   1.178   8.318  0.00  0.00    +0.000 NA
ATOM     21  H   UNL     1      46.856   1.740   8.896  0.00  0.00    +0.000 HD
ATOM     22  H   UNL     1      46.422   1.432   7.352  0.00  0.00    +0.000 HD
ENDBRANCH  19  20
ENDBRANCH  16  19
ENDBRANCH  12  13
ENDBRANCH   7  12
TORSDOF 5
ENDMDL
MODEL 6
REMARK VINA RESULT:    -5.779      2.725      4.269
REMARK INTER + INTRA:          -7.997
REMARK INTER:                  -7.470
REMARK INTRA:                  -0.526
REMARK UNBOUND:                -0.697
REMARK  Name = 
REMARK  6 active torsions:
REMARK  status: ('A' for Active; 'I' for Inactive)
REMARK    1  A    between atoms: C_1  and  O_2
REMARK    2  A    between atoms: O_2  and  C_3
REMARK    3  A    between atoms: N_9  and  C_10
REMARK    4  A    between atoms: C_10  and  C_11
REMARK    5  A    between atoms: C_14  and  C_15
REMARK    6  A    between atoms: C_15  and  N_16
REMARK                            x       y       z     vdW  Elec       q    Type
REMARK                         _______ _______ _______ _____ _____    ______ ____
ROOT
ATOM      1  C   UNL     1      45.676  10.221  12.102  0.00  0.00    +0.000 A 
ATOM      2  C   UNL     1      46.949  10.671  11.764  0.00  0.00    +0.000 A 
ATOM      3  C   UNL     1      48.053   9.819  11.865  0.00  0.00    +0.000 A 
ATOM      4  C   UNL     1      47.882   8.491  12.300  0.00  0.00    +0.000 A 
ATOM      5  C   UNL     1      48.778   7.412  12.509  0.00  0.00    +0.000 A 
ATOM      6  C   UNL     1      48.036   6.326  12.911  0.00  0.00    +0.000 A 
ATOM      7  N   UNL     1      46.712   6.702  12.948  0.00  0.00    +0.000 N 
ATOM      8  C   UNL     1      46.594   8.039  12.612  0.00  0.00    +0.000 A 
ATOM      9  C   UNL     1      45.484   8.899  12.537  0.00  0.00    +0.000 A 
ENDROOT
BRANCH   1  11
ATOM     10  C   UNL     1      43.529  10.546  11.127  0.00  0.00    +0.000 C 
ATOM     11  O   UNL     1      44.528  10.972  12.048  0.00  0.00    +0.000 OA
ENDBRANCH   1  11
BRANCH   7  12
ATOM     12  C   UNL     1      45.615   5.762  13.179  0.00  0.00    +0.000 C 
BRANCH  12  13
ATOM     13  C   UNL     1      45.293   4.950  11.950  0.00  0.00    +0.000 A 
ATOM     14  C   UNL     1      44.909   3.610  12.067  0.00  0.00    +0.000 A 
ATOM     15  C   UNL     1      44.729   2.820  10.928  0.00  0.00    +0.000 A 
ATOM     16  C   UNL     1      44.924   3.352   9.645  0.00  0.00    +0.000 A 
ATOM     17  C   UNL     1      45.250   4.710   9.529  0.00  0.00    +0.000 A 
ATOM     18  C   UNL     1      45.424   5.503  10.668  0.00  0.00    +0.000 A 
BRANCH  16  19
ATOM     19  C   UNL     1      44.927   2.424   8.455  0.00  0.00    +0.000 C 
BRANCH  19  20
ATOM     20  N   UNL     1      45.993   1.428   8.485  0.00  0.00    +0.000 NA
ATOM     21  H   UNL     1      46.698   1.688   7.796  0.00  0.00    +0.000 HD
ATOM     22  H   UNL     1      45.613   0.532   8.188  0.00  0.00    +0.000 HD
ENDBRANCH  19  20
ENDBRANCH  16  19
ENDBRANCH  12  13
ENDBRANCH   7  12
TORSDOF 5
ENDMDL
MODEL 7
REMARK VINA RESULT:    -5.323      3.831      6.102
REMARK INTER + INTRA:          -7.421
REMARK INTER:                  -6.801
REMARK INTRA:                  -0.620
REMARK UNBOUND:                -0.697
REMARK  Name = 
REMARK  6 active torsions:
REMARK  status: ('A' for Active; 'I' for Inactive)
REMARK    1  A    between atoms: C_1  and  O_2
REMARK    2  A    between atoms: O_2  and  C_3
REMARK    3  A    between atoms: N_9  and  C_10
REMARK    4  A    between atoms: C_10  and  C_11
REMARK    5  A    between atoms: C_14  and  C_15
REMARK    6  A    between atoms: C_15  and  N_16
REMARK                            x       y       z     vdW  Elec       q    Type
REMARK                         _______ _______ _______ _____ _____    ______ ____
ROOT
ATOM      1  C   UNL     1      46.789   3.825  13.788  0.00  0.00    +0.000 A 
ATOM      2  C   UNL     1      45.919   3.263  12.857  0.00  0.00    +0.000 A 
ATOM      3  C   UNL     1      45.178   4.077  11.995  0.00  0.00    +0.000 A 
ATOM      4  C   UNL     1      45.317   5.476  12.053  0.00  0.00    +0.000 A 
ATOM      5  C   UNL     1      44.718   6.545  11.339  0.00  0.00    +0.000 A 
ATOM      6  C   UNL     1      45.268   7.716  11.802  0.00  0.00    +0.000 A 
ATOM      7  N   UNL     1      46.192   7.402  12.773  0.00  0.00    +0.000 N 
ATOM      8  C   UNL     1      46.215   6.032  12.972  0.00  0.00    +0.000 A 
ATOM      9  C   UNL     1      46.943   5.220  13.860  0.00  0.00    +0.000 A 
ENDROOT
BRANCH   1  11
ATOM     10  C   UNL     1      47.587   3.613  16.020  0.00  0.00    +0.000 C 
ATOM     11  O   UNL     1      47.556   3.123  14.683  0.00  0.00    +0.000 OA
ENDBRANCH   1  11
BRANCH   7  12
ATOM     12  C   UNL     1      47.090   8.385  13.379  0.00  0.00    +0.000 C 
BRANCH  12  13
ATOM     13  C   UNL     1      48.274   8.692  12.498  0.00  0.00    +0.000 A 
ATOM     14  C   UNL     1      49.189   7.686  12.167  0.00  0.00    +0.000 A 
ATOM     15  C   UNL     1      50.351   7.990  11.453  0.00  0.00    +0.000 A 
ATOM     16  C   UNL     1      50.626   9.305  11.050  0.00  0.00    +0.000 A 
ATOM     17  C   UNL     1      49.680  10.299  11.332  0.00  0.00    +0.000 A 
ATOM     18  C   UNL     1      48.513   9.995  12.039  0.00  0.00    +0.000 A 
BRANCH  16  19
ATOM     19  C   UNL     1      51.981   9.631  10.470  0.00  0.00    +0.000 C 
BRANCH  19  20
ATOM     20  N   UNL     1      52.720   8.463  10.003  0.00  0.00    +0.000 NA
ATOM     21  H   UNL     1      52.175   7.628  10.215  0.00  0.00    +0.000 HD
ATOM     22  H   UNL     1      53.585   8.388  10.535  0.00  0.00    +0.000 HD
ENDBRANCH  19  20
ENDBRANCH  16  19
ENDBRANCH  12  13
ENDBRANCH   7  12
TORSDOF 5
ENDMDL
MODEL 8
REMARK VINA RESULT:    -5.259      3.276      5.520
REMARK INTER + INTRA:          -7.340
REMARK INTER:                  -6.724
REMARK INTRA:                  -0.617
REMARK UNBOUND:                -0.697
REMARK  Name = 
REMARK  6 active torsions:
REMARK  status: ('A' for Active; 'I' for Inactive)
REMARK    1  A    between atoms: C_1  and  O_2
REMARK    2  A    between atoms: O_2  and  C_3
REMARK    3  A    between atoms: N_9  and  C_10
REMARK    4  A    between atoms: C_10  and  C_11
REMARK    5  A    between atoms: C_14  and  C_15
REMARK    6  A    between atoms: C_15  and  N_16
REMARK                            x       y       z     vdW  Elec       q    Type
REMARK                         _______ _______ _______ _____ _____    ______ ____
ROOT
ATOM      1  C   UNL     1      49.485   6.613  15.975  0.00  0.00    +0.000 A 
ATOM      2  C   UNL     1      50.736   7.117  15.628  0.00  0.00    +0.000 A 
ATOM      3  C   UNL     1      50.919   7.793  14.418  0.00  0.00    +0.000 A 
ATOM      4  C   UNL     1      49.832   7.981  13.544  0.00  0.00    +0.000 A 
ATOM      5  C   UNL     1      49.699   8.602  12.275  0.00  0.00    +0.000 A 
ATOM      6  C   UNL     1      48.377   8.514  11.906  0.00  0.00    +0.000 A 
ATOM      7  N   UNL     1      47.693   7.866  12.909  0.00  0.00    +0.000 N 
ATOM      8  C   UNL     1      48.572   7.495  13.913  0.00  0.00    +0.000 A 
ATOM      9  C   UNL     1      48.387   6.791  15.116  0.00  0.00    +0.000 A 
ENDROOT
BRANCH   1  11
ATOM     10  C   UNL     1      50.180   5.007  17.588  0.00  0.00    +0.000 C 
ATOM     11  O   UNL     1      49.197   5.929  17.129  0.00  0.00    +0.000 OA
ENDBRANCH   1  11
BRANCH   7  12
ATOM     12  C   UNL     1      46.236   7.732  12.935  0.00  0.00    +0.000 C 
BRANCH  12  13
ATOM     13  C   UNL     1      45.777   6.410  12.377  0.00  0.00    +0.000 A 
ATOM     14  C   UNL     1      45.714   6.209  10.994  0.00  0.00    +0.000 A 
ATOM     15  C   UNL     1      45.174   5.030  10.470  0.00  0.00    +0.000 A 
ATOM     16  C   UNL     1      44.690   4.023  11.317  0.00  0.00    +0.000 A 
ATOM     17  C   UNL     1      44.809   4.201  12.701  0.00  0.00    +0.000 A 
ATOM     18  C   UNL     1      45.355   5.377  13.226  0.00  0.00    +0.000 A 
BRANCH  16  19
ATOM     19  C   UNL     1      43.927   2.864  10.723  0.00  0.00    +0.000 C 
BRANCH  19  20
ATOM     20  N   UNL     1      43.050   2.185  11.671  0.00  0.00    +0.000 NA
ATOM     21  H   UNL     1      43.309   1.198  11.702  0.00  0.00    +0.000 HD
ATOM     22  H   UNL     1      42.096   2.223  11.321  0.00  0.00    +0.000 HD
ENDBRANCH  19  20
ENDBRANCH  16  19
ENDBRANCH  12  13
ENDBRANCH   7  12
TORSDOF 5
ENDMDL
MODEL 9
REMARK VINA RESULT:    -5.177      4.585      6.726
REMARK INTER + INTRA:          -7.236
REMARK INTER:                  -6.547
REMARK INTRA:                  -0.689
REMARK UNBOUND:                -0.697
REMARK  Name = 
REMARK  6 active torsions:
REMARK  status: ('A' for Active; 'I' for Inactive)
REMARK    1  A    between atoms: C_1  and  O_2
REMARK    2  A    between atoms: O_2  and  C_3
REMARK    3  A    between atoms: N_9  and  C_10
REMARK    4  A    between atoms: C_10  and  C_11
REMARK    5  A    between atoms: C_14  and  C_15
REMARK    6  A    between atoms: C_15  and  N_16
REMARK                            x       y       z     vdW  Elec       q    Type
REMARK                         _______ _______ _______ _____ _____    ______ ____
ROOT
ATOM      1  C   UNL     1      48.631   5.143  17.814  0.00  0.00    +0.000 A 
ATOM      2  C   UNL     1      48.536   6.184  18.735  0.00  0.00    +0.000 A 
ATOM      3  C   UNL     1      48.527   7.514  18.304  0.00  0.00    +0.000 A 
ATOM      4  C   UNL     1      48.602   7.811  16.930  0.00  0.00    +0.000 A 
ATOM      5  C   UNL     1      48.622   9.025  16.196  0.00  0.00    +0.000 A 
ATOM      6  C   UNL     1      48.671   8.703  14.860  0.00  0.00    +0.000 A 
ATOM      7  N   UNL     1      48.675   7.331  14.750  0.00  0.00    +0.000 N 
ATOM      8  C   UNL     1      48.670   6.758  16.010  0.00  0.00    +0.000 A 
ATOM      9  C   UNL     1      48.705   5.419  16.438  0.00  0.00    +0.000 A 
ENDROOT
BRANCH   1  11
ATOM     10  C   UNL     1      47.756   2.967  17.410  0.00  0.00    +0.000 C 
ATOM     11  O   UNL     1      48.655   3.807  18.126  0.00  0.00    +0.000 OA
ENDBRANCH   1  11
BRANCH   7  12
ATOM     12  C   UNL     1      48.562   6.625  13.472  0.00  0.00    +0.000 C 
BRANCH  12  13
ATOM     13  C   UNL     1      47.141   6.225  13.169  0.00  0.00    +0.000 A 
ATOM     14  C   UNL     1      46.228   7.168  12.685  0.00  0.00    +0.000 A 
ATOM     15  C   UNL     1      44.881   6.833  12.518  0.00  0.00    +0.000 A 
ATOM     16  C   UNL     1      44.416   5.546  12.826  0.00  0.00    +0.000 A 
ATOM     17  C   UNL     1      45.343   4.587  13.254  0.00  0.00    +0.000 A 
ATOM     18  C   UNL     1      46.692   4.919  13.414  0.00  0.00    +0.000 A 
BRANCH  16  19
ATOM     19  C   UNL     1      42.930   5.282  12.835  0.00  0.00    +0.000 C 
BRANCH  19  20
ATOM     20  N   UNL     1      42.193   6.014  11.810  0.00  0.00    +0.000 NA
ATOM     21  H   UNL     1      41.817   5.343  11.140  0.00  0.00    +0.000 HD
ATOM     22  H   UNL     1      42.844   6.603  11.296  0.00  0.00    +0.000 HD
ENDBRANCH  19  20
ENDBRANCH  16  19
ENDBRANCH  12  13
ENDBRANCH   7  12
TORSDOF 5
ENDMDL
