MODEL 1
REMARK VINA RESULT:    -9.234      0.000      0.000
REMARK INTER + INTRA:         -13.432
REMARK INTER:                 -12.473
REMARK INTRA:                  -0.959
REMARK UNBOUND:                -0.959
REMARK  Name = 
REMARK  6 active torsions:
REMARK  status: ('A' for Active; 'I' for Inactive)
REMARK    1  A    between atoms: C_2  and  C_4
REMARK    2  A    between atoms: C_7  and  N_8
REMARK    3  A    between atoms: N_8  and  C_9
REMARK    4  A    between atoms: C_9  and  C_10
REMARK    5  A    between atoms: C_10  and  C_13
REMARK    6  A    between atoms: C_17  and  C_18
REMARK                            x       y       z     vdW  Elec       q    Type
REMARK                         _______ _______ _______ _____ _____    ______ ____
ROOT
ATOM      1  C   UNL     1      43.361   5.207  12.292  0.00  0.00    +0.000 C 
ATOM      2  F   UNL     1      42.669   6.317  11.877  0.00  0.00    +0.000 F 
ATOM      3  F   UNL     1      42.636   4.717  13.344  0.00  0.00    +0.000 F 
ENDROOT
BRANCH   1   4
ATOM      4  C   UNL     1      44.781   5.545  12.706  0.00  0.00    +0.000 A 
ATOM      5  C   UNL     1      45.559   4.597  13.382  0.00  0.00    +0.000 A 
ATOM      6  C   UNL     1      46.867   4.888  13.747  0.00  0.00    +0.000 A 
ATOM      7  C   UNL     1      47.422   6.126  13.417  0.00  0.00    +0.000 A 
ATOM      8  C   UNL     1      46.692   7.099  12.713  0.00  0.00    +0.000 A 
ATOM      9  C   UNL     1      45.352   6.792  12.394  0.00  0.00    +0.000 A 
BRANCH   8  10
ATOM     10  C   UNL     1      47.319   8.376  12.293  0.00  0.00    +0.000 A 
ATOM     11  C   UNL     1      46.621   9.598  12.383  0.00  0.00    +0.000 A 
ATOM     12  C   UNL     1      47.199  10.807  11.976  0.00  0.00    +0.000 A 
ATOM     13  C   UNL     1      48.500  10.827  11.483  0.00  0.00    +0.000 A 
ATOM     14  C   UNL     1      49.204   9.636  11.381  0.00  0.00    +0.000 A 
ATOM     15  F   UNL     1      50.456   9.654  10.902  0.00  0.00    +0.000 F 
ATOM     16  C   UNL     1      48.624   8.432  11.767  0.00  0.00    +0.000 A 
ATOM     17  F   UNL     1      49.346   7.308  11.604  0.00  0.00    +0.000 F 
ENDBRANCH   8  10
ENDBRANCH   1   4
BRANCH   1  18
ATOM     18  C   UNL     1      43.322   4.171  11.136  0.00  0.00    +0.000 C 
BRANCH  18  19
ATOM     19  N   UNL     1      43.837   4.740   9.868  0.00  0.00    +0.000 N 
ATOM     20  H   UNL     1      44.246   5.663   9.994  0.00  0.00    +0.000 HD
BRANCH  19  24
ATOM     21  C   UNL     1      46.369   2.221   7.833  0.00  0.00    +0.000 A 
ATOM     22  C   UNL     1      46.218   3.546   7.446  0.00  0.00    +0.000 A 
ATOM     23  N   UNL     1      45.371   4.406   8.075  0.00  0.00    +0.000 NA
ATOM     24  C   UNL     1      44.665   3.906   9.114  0.00  0.00    +0.000 A 
ATOM     25  C   UNL     1      44.826   2.562   9.482  0.00  0.00    +0.000 A 
ATOM     26  N   UNL     1      45.660   1.682   8.859  0.00  0.00    +0.000 NA
BRANCH  21  28
ATOM     27  N   UNL     1      48.480   1.981   6.658  0.00  0.00    +0.000 N 
ATOM     28  C   UNL     1      47.354   1.358   7.127  0.00  0.00    +0.000 C 
ATOM     29  O   UNL     1      47.176   0.156   6.969  0.00  0.00    +0.000 OA
ATOM     30  H   UNL     1      49.192   1.432   6.198  0.00  0.00    +0.000 HD
ATOM     31  H   UNL     1      48.644   2.961   6.862  0.00  0.00    +0.000 HD
ENDBRANCH  21  28
ENDBRANCH  19  24
ENDBRANCH  18  19
ENDBRANCH   1  18
TORSDOF 6
ENDMDL
MODEL 2
REMARK VINA RESULT:    -9.200      2.186      3.917
REMARK INTER + INTRA:         -13.387
REMARK INTER:                 -12.545
REMARK INTRA:                  -0.842
REMARK UNBOUND:                -0.959
REMARK  Name = 
REMARK  6 active torsions:
REMARK  status: ('A' for Active; 'I' for Inactive)
REMARK    1  A    between atoms: C_2  and  C_4
REMARK    2  A    between atoms: C_7  and  N_8
REMARK    3  A    between atoms: N_8  and  C_9
REMARK    4  A    between atoms: C_9  and  C_10
REMARK    5  A    between atoms: C_10  and  C_13
REMARK    6  A    between atoms: C_17  and  C_18
REMARK                            x       y       z     vdW  Elec       q    Type
REMARK                         _______ _______ _______ _____ _____    ______ ____
ROOT
ATOM      1  C   UNL     1      43.646   5.536  12.118  0.00  0.00    +0.000 C 
ATOM      2  F   UNL     1      43.088   6.676  11.598  0.00  0.00    +0.000 F 
ATOM      3  F   UNL     1      42.919   5.275  13.247  0.00  0.00    +0.000 F 
ENDROOT
BRANCH   1   4
ATOM      4  C   UNL     1      45.119   5.719  12.436  0.00  0.00    +0.000 A 
ATOM      5  C   UNL     1      45.929   6.484  11.589  0.00  0.00    +0.000 A 
ATOM      6  C   UNL     1      47.274   6.675  11.881  0.00  0.00    +0.000 A 
ATOM      7  C   UNL     1      47.819   6.121  13.041  0.00  0.00    +0.000 A 
ATOM      8  C   UNL     1      47.040   5.370  13.937  0.00  0.00    +0.000 A 
ATOM      9  C   UNL     1      45.688   5.156  13.593  0.00  0.00    +0.000 A 
BRANCH   8  10
ATOM     10  C   UNL     1      47.609   4.859  15.209  0.00  0.00    +0.000 A 
ATOM     11  C   UNL     1      47.440   3.514  15.597  0.00  0.00    +0.000 A 
ATOM     12  C   UNL     1      47.961   3.026  16.802  0.00  0.00    +0.000 A 
ATOM     13  C   UNL     1      48.680   3.869  17.643  0.00  0.00    +0.000 A 
ATOM     14  C   UNL     1      48.855   5.197  17.284  0.00  0.00    +0.000 A 
ATOM     15  F   UNL     1      49.544   6.010  18.096  0.00  0.00    +0.000 F 
ATOM     16  C   UNL     1      48.321   5.688  16.096  0.00  0.00    +0.000 A 
ATOM     17  F   UNL     1      48.491   6.995  15.826  0.00  0.00    +0.000 F 
ENDBRANCH   8  10
ENDBRANCH   1   4
BRANCH   1  18
ATOM     18  C   UNL     1      43.408   4.390  11.098  0.00  0.00    +0.000 C 
BRANCH  18  19
ATOM     19  N   UNL     1      43.731   4.809   9.714  0.00  0.00    +0.000 N 
ATOM     20  H   UNL     1      44.034   5.778   9.662  0.00  0.00    +0.000 HD
BRANCH  19  24
ATOM     21  C   UNL     1      46.308   2.240   7.801  0.00  0.00    +0.000 A 
ATOM     22  C   UNL     1      46.255   3.584   7.457  0.00  0.00    +0.000 A 
ATOM     23  N   UNL     1      45.398   4.463   8.046  0.00  0.00    +0.000 NA
ATOM     24  C   UNL     1      44.581   3.962   8.999  0.00  0.00    +0.000 A 
ATOM     25  C   UNL     1      44.645   2.599   9.324  0.00  0.00    +0.000 A 
ATOM     26  N   UNL     1      45.487   1.701   8.740  0.00  0.00    +0.000 NA
BRANCH  21  28
ATOM     27  N   UNL     1      48.408   1.973   6.611  0.00  0.00    +0.000 N 
ATOM     28  C   UNL     1      47.309   1.355   7.147  0.00  0.00    +0.000 C 
ATOM     29  O   UNL     1      47.166   0.139   7.087  0.00  0.00    +0.000 OA
ATOM     30  H   UNL     1      49.129   1.410   6.183  0.00  0.00    +0.000 HD
ATOM     31  H   UNL     1      48.543   2.969   6.736  0.00  0.00    +0.000 HD
ENDBRANCH  21  28
ENDBRANCH  19  24
ENDBRANCH  18  19
ENDBRANCH   1  18
TORSDOF 6
ENDMDL
MODEL 3
REMARK VINA RESULT:    -8.818      1.575      2.037
REMARK INTER + INTRA:         -12.870
REMARK INTER:                 -11.911
REMARK INTRA:                  -0.959
REMARK UNBOUND:                -0.959
REMARK  Name = 
REMARK  6 active torsions:
REMARK  status: ('A' for Active; 'I' for Inactive)
REMARK    1  A    between atoms: C_2  and  C_4
REMARK    2  A    between atoms: C_7  and  N_8
REMARK    3  A    between atoms: N_8  and  C_9
REMARK    4  A    between atoms: C_9  and  C_10
REMARK    5  A    between atoms: C_10  and  C_13
REMARK    6  A    between atoms: C_17  and  C_18
REMARK                            x       y       z     vdW  Elec       q    Type
REMARK                         _______ _______ _______ _____ _____    ______ ____
ROOT
ATOM      1  C   UNL     1      43.596   4.549  12.475  0.00  0.00    +0.000 C 
ATOM      2  F   UNL     1      42.611   5.397  12.916  0.00  0.00    +0.000 F 
ATOM      3  F   UNL     1      43.293   3.340  13.039  0.00  0.00    +0.000 F 
ENDROOT
BRANCH   1   4
ATOM      4  C   UNL     1      44.978   5.023  12.884  0.00  0.00    +0.000 A 
ATOM      5  C   UNL     1      45.821   4.178  13.614  0.00  0.00    +0.000 A 
ATOM      6  C   UNL     1      47.096   4.594  13.976  0.00  0.00    +0.000 A 
ATOM      7  C   UNL     1      47.553   5.855  13.588  0.00  0.00    +0.000 A 
ATOM      8  C   UNL     1      46.755   6.728  12.829  0.00  0.00    +0.000 A 
ATOM      9  C   UNL     1      45.449   6.296  12.514  0.00  0.00    +0.000 A 
BRANCH   8  10
ATOM     10  C   UNL     1      47.281   8.029  12.350  0.00  0.00    +0.000 A 
ATOM     11  C   UNL     1      48.598   8.151  11.861  0.00  0.00    +0.000 A 
ATOM     12  C   UNL     1      49.108   9.378  11.419  0.00  0.00    +0.000 A 
ATOM     13  C   UNL     1      48.307  10.514  11.439  0.00  0.00    +0.000 A 
ATOM     14  C   UNL     1      47.009  10.420  11.920  0.00  0.00    +0.000 A 
ATOM     15  F   UNL     1      46.238  11.516  11.944  0.00  0.00    +0.000 F 
ATOM     16  C   UNL     1      46.508   9.206  12.377  0.00  0.00    +0.000 A 
ATOM     17  F   UNL     1      45.255   9.191  12.870  0.00  0.00    +0.000 F 
ENDBRANCH   8  10
ENDBRANCH   1   4
BRANCH   1  18
ATOM     18  C   UNL     1      43.454   4.428  10.933  0.00  0.00    +0.000 C 
BRANCH  18  19
ATOM     19  N   UNL     1      43.769   3.061  10.457  0.00  0.00    +0.000 N 
ATOM     20  H   UNL     1      42.934   2.524  10.237  0.00  0.00    +0.000 HD
BRANCH  19  24
ATOM     21  C   UNL     1      46.443   2.898   7.338  0.00  0.00    +0.000 A 
ATOM     22  C   UNL     1      46.129   1.760   8.070  0.00  0.00    +0.000 A 
ATOM     23  N   UNL     1      45.270   1.775   9.125  0.00  0.00    +0.000 NA
ATOM     24  C   UNL     1      44.725   2.970   9.443  0.00  0.00    +0.000 A 
ATOM     25  C   UNL     1      45.063   4.109   8.697  0.00  0.00    +0.000 A 
ATOM     26  N   UNL     1      45.928   4.118   7.644  0.00  0.00    +0.000 NA
BRANCH  21  28
ATOM     27  N   UNL     1      48.667   2.526   6.439  0.00  0.00    +0.000 N 
ATOM     28  C   UNL     1      47.351   2.790   6.165  0.00  0.00    +0.000 C 
ATOM     29  O   UNL     1      46.953   2.927   5.014  0.00  0.00    +0.000 OA
ATOM     30  H   UNL     1      49.317   2.414   5.674  0.00  0.00    +0.000 HD
ATOM     31  H   UNL     1      48.963   2.343   7.392  0.00  0.00    +0.000 HD
ENDBRANCH  21  28
ENDBRANCH  19  24
ENDBRANCH  18  19
ENDBRANCH   1  18
TORSDOF 6
ENDMDL
MODEL 4
REMARK VINA RESULT:    -8.487      4.337      7.396
REMARK INTER + INTRA:         -12.423
REMARK INTER:                 -11.467
REMARK INTRA:                  -0.955
REMARK UNBOUND:                -0.959
REMARK  Name = 
REMARK  6 active torsions:
REMARK  status: ('A' for Active; 'I' for Inactive)
REMARK    1  A    between atoms: C_2  and  C_4
REMARK    2  A    between atoms: C_7  and  N_8
REMARK    3  A    between atoms: N_8  and  C_9
REMARK    4  A    between atoms: C_9  and  C_10
REMARK    5  A    between atoms: C_10  and  C_13
REMARK    6  A    between atoms: C_17  and  C_18
REMARK                            x       y       z     vdW  Elec       q    Type
REMARK                         _______ _______ _______ _____ _____    ______ ____
ROOT
ATOM      1  C   UNL     1      45.944   7.463  12.067  0.00  0.00    +0.000 C 
ATOM      2  F   UNL     1      45.396   7.807  13.276  0.00  0.00    +0.000 F 
ATOM      3  F   UNL     1      45.945   8.623  11.342  0.00  0.00    +0.000 F 
ENDROOT
BRANCH   1   4
ATOM      4  C   UNL     1      45.148   6.375  11.371  0.00  0.00    +0.000 A 
ATOM      5  C   UNL     1      43.771   6.259  11.598  0.00  0.00    +0.000 A 
ATOM      6  C   UNL     1      43.029   5.279  10.951  0.00  0.00    +0.000 A 
ATOM      7  C   UNL     1      43.653   4.417  10.047  0.00  0.00    +0.000 A 
ATOM      8  C   UNL     1      45.026   4.512   9.764  0.00  0.00    +0.000 A 
ATOM      9  C   UNL     1      45.763   5.488  10.468  0.00  0.00    +0.000 A 
BRANCH   8  10
ATOM     10  C   UNL     1      45.661   3.648   8.739  0.00  0.00    +0.000 A 
ATOM     11  C   UNL     1      46.325   4.201   7.625  0.00  0.00    +0.000 A 
ATOM     12  C   UNL     1      46.916   3.394   6.645  0.00  0.00    +0.000 A 
ATOM     13  C   UNL     1      46.871   2.008   6.763  0.00  0.00    +0.000 A 
ATOM     14  C   UNL     1      46.220   1.441   7.848  0.00  0.00    +0.000 A 
ATOM     15  F   UNL     1      46.172   0.107   7.960  0.00  0.00    +0.000 F 
ATOM     16  C   UNL     1      45.616   2.242   8.812  0.00  0.00    +0.000 A 
ATOM     17  F   UNL     1      44.964   1.630   9.817  0.00  0.00    +0.000 F 
ENDBRANCH   8  10
ENDBRANCH   1   4
BRANCH   1  18
ATOM     18  C   UNL     1      47.414   7.035  12.323  0.00  0.00    +0.000 C 
BRANCH  18  19
ATOM     19  N   UNL     1      47.857   7.380  13.695  0.00  0.00    +0.000 N 
ATOM     20  H   UNL     1      47.348   8.171  14.080  0.00  0.00    +0.000 HD
BRANCH  19  24
ATOM     21  C   UNL     1      47.844   4.243  16.353  0.00  0.00    +0.000 A 
ATOM     22  C   UNL     1      48.545   5.409  16.628  0.00  0.00    +0.000 A 
ATOM     23  N   UNL     1      48.597   6.460  15.765  0.00  0.00    +0.000 NA
ATOM     24  C   UNL     1      47.926   6.319  14.600  0.00  0.00    +0.000 A 
ATOM     25  C   UNL     1      47.232   5.128  14.338  0.00  0.00    +0.000 A 
ATOM     26  N   UNL     1      47.176   4.061  15.183  0.00  0.00    +0.000 NA
BRANCH  21  28
ATOM     27  N   UNL     1      48.972   2.864  18.003  0.00  0.00    +0.000 N 
ATOM     28  C   UNL     1      47.793   3.159  17.370  0.00  0.00    +0.000 C 
ATOM     29  O   UNL     1      46.757   2.559  17.635  0.00  0.00    +0.000 OA
ATOM     30  H   UNL     1      48.980   2.157  18.723  0.00  0.00    +0.000 HD
ATOM     31  H   UNL     1      49.799   3.421  17.823  0.00  0.00    +0.000 HD
ENDBRANCH  21  28
ENDBRANCH  19  24
ENDBRANCH  18  19
ENDBRANCH   1  18
TORSDOF 6
ENDMDL
MODEL 5
REMARK VINA RESULT:    -8.287      1.490      2.236
REMARK INTER + INTRA:         -12.153
REMARK INTER:                 -11.689
REMARK INTRA:                  -0.464
REMARK UNBOUND:                -0.959
REMARK  Name = 
REMARK  6 active torsions:
REMARK  status: ('A' for Active; 'I' for Inactive)
REMARK    1  A    between atoms: C_2  and  C_4
REMARK    2  A    between atoms: C_7  and  N_8
REMARK    3  A    between atoms: N_8  and  C_9
REMARK    4  A    between atoms: C_9  and  C_10
REMARK    5  A    between atoms: C_10  and  C_13
REMARK    6  A    between atoms: C_17  and  C_18
REMARK                            x       y       z     vdW  Elec       q    Type
REMARK                         _______ _______ _______ _____ _____    ______ ____
ROOT
ATOM      1  C   UNL     1      44.330   4.374  12.295  0.00  0.00    +0.000 C 
ATOM      2  F   UNL     1      43.614   4.208  13.453  0.00  0.00    +0.000 F 
ATOM      3  F   UNL     1      45.259   3.369  12.312  0.00  0.00    +0.000 F 
ENDROOT
BRANCH   1   4
ATOM      4  C   UNL     1      44.989   5.739  12.225  0.00  0.00    +0.000 A 
ATOM      5  C   UNL     1      44.283   6.833  11.711  0.00  0.00    +0.000 A 
ATOM      6  C   UNL     1      44.869   8.092  11.662  0.00  0.00    +0.000 A 
ATOM      7  C   UNL     1      46.164   8.275  12.150  0.00  0.00    +0.000 A 
ATOM      8  C   UNL     1      46.903   7.214  12.702  0.00  0.00    +0.000 A 
ATOM      9  C   UNL     1      46.299   5.939  12.699  0.00  0.00    +0.000 A 
BRANCH   8  10
ATOM     10  C   UNL     1      48.244   7.438  13.295  0.00  0.00    +0.000 A 
ATOM     11  C   UNL     1      48.478   7.233  14.671  0.00  0.00    +0.000 A 
ATOM     12  C   UNL     1      49.737   7.455  15.243  0.00  0.00    +0.000 A 
ATOM     13  C   UNL     1      50.800   7.873  14.450  0.00  0.00    +0.000 A 
ATOM     14  C   UNL     1      50.592   8.086  13.095  0.00  0.00    +0.000 A 
ATOM     15  F   UNL     1      51.615   8.494  12.331  0.00  0.00    +0.000 F 
ATOM     16  C   UNL     1      49.337   7.885  12.529  0.00  0.00    +0.000 A 
ATOM     17  F   UNL     1      49.192   8.149  11.217  0.00  0.00    +0.000 F 
ENDBRANCH   8  10
ENDBRANCH   1   4
BRANCH   1  18
ATOM     18  C   UNL     1      43.360   4.134  11.106  0.00  0.00    +0.000 C 
BRANCH  18  19
ATOM     19  N   UNL     1      43.860   4.751   9.854  0.00  0.00    +0.000 N 
ATOM     20  H   UNL     1      44.259   5.673  10.008  0.00  0.00    +0.000 HD
BRANCH  19  24
ATOM     21  C   UNL     1      46.373   2.297   7.718  0.00  0.00    +0.000 A 
ATOM     22  C   UNL     1      46.394   3.673   7.535  0.00  0.00    +0.000 A 
ATOM     23  N   UNL     1      45.562   4.519   8.202  0.00  0.00    +0.000 NA
ATOM     24  C   UNL     1      44.692   3.951   9.067  0.00  0.00    +0.000 A 
ATOM     25  C   UNL     1      44.681   2.558   9.229  0.00  0.00    +0.000 A 
ATOM     26  N   UNL     1      45.498   1.694   8.564  0.00  0.00    +0.000 NA
BRANCH  21  28
ATOM     27  N   UNL     1      48.440   2.087   6.462  0.00  0.00    +0.000 N 
ATOM     28  C   UNL     1      47.352   1.445   6.990  0.00  0.00    +0.000 C 
ATOM     29  O   UNL     1      47.200   0.235   6.865  0.00  0.00    +0.000 OA
ATOM     30  H   UNL     1      49.147   1.546   5.985  0.00  0.00    +0.000 HD
ATOM     31  H   UNL     1      48.585   3.074   6.639  0.00  0.00    +0.000 HD
ENDBRANCH  21  28
ENDBRANCH  19  24
ENDBRANCH  18  19
ENDBRANCH   1  18
TORSDOF 6
ENDMDL
MODEL 6
REMARK VINA RESULT:    -7.997      4.084      7.261
REMARK INTER + INTRA:         -11.761
REMARK INTER:                 -10.906
REMARK INTRA:                  -0.855
REMARK UNBOUND:                -0.959
REMARK  Name = 
REMARK  6 active torsions:
REMARK  status: ('A' for Active; 'I' for Inactive)
REMARK    1  A    between atoms: C_2  and  C_4
REMARK    2  A    between atoms: C_7  and  N_8
REMARK    3  A    between atoms: N_8  and  C_9
REMARK    4  A    between atoms: C_9  and  C_10
REMARK    5  A    between atoms: C_10  and  C_13
REMARK    6  A    between atoms: C_17  and  C_18
REMARK                            x       y       z     vdW  Elec       q    Type
REMARK                         _______ _______ _______ _____ _____    ______ ____
ROOT
ATOM      1  C   UNL     1      45.271   6.508  11.724  0.00  0.00    +0.000 C 
ATOM      2  F   UNL     1      44.571   6.891  12.841  0.00  0.00    +0.000 F 
ATOM      3  F   UNL     1      44.999   7.475  10.794  0.00  0.00    +0.000 F 
ENDROOT
BRANCH   1   4
ATOM      4  C   UNL     1      44.853   5.134  11.235  0.00  0.00    +0.000 A 
ATOM      5  C   UNL     1      43.748   4.492  11.808  0.00  0.00    +0.000 A 
ATOM      6  C   UNL     1      43.344   3.243  11.354  0.00  0.00    +0.000 A 
ATOM      7  C   UNL     1      44.028   2.630  10.302  0.00  0.00    +0.000 A 
ATOM      8  C   UNL     1      45.125   3.247   9.676  0.00  0.00    +0.000 A 
ATOM      9  C   UNL     1      45.540   4.496  10.186  0.00  0.00    +0.000 A 
BRANCH   8  10
ATOM     10  C   UNL     1      45.790   2.626   8.504  0.00  0.00    +0.000 A 
ATOM     11  C   UNL     1      46.138   1.260   8.500  0.00  0.00    +0.000 A 
ATOM     12  C   UNL     1      46.778   0.667   7.404  0.00  0.00    +0.000 A 
ATOM     13  C   UNL     1      47.073   1.426   6.275  0.00  0.00    +0.000 A 
ATOM     14  C   UNL     1      46.744   2.773   6.259  0.00  0.00    +0.000 A 
ATOM     15  F   UNL     1      47.032   3.504   5.173  0.00  0.00    +0.000 F 
ATOM     16  C   UNL     1      46.126   3.366   7.354  0.00  0.00    +0.000 A 
ATOM     17  F   UNL     1      45.871   4.686   7.291  0.00  0.00    +0.000 F 
ENDBRANCH   8  10
ENDBRANCH   1   4
BRANCH   1  18
ATOM     18  C   UNL     1      46.782   6.567  12.075  0.00  0.00    +0.000 C 
BRANCH  18  19
ATOM     19  N   UNL     1      47.005   6.943  13.491  0.00  0.00    +0.000 N 
ATOM     20  H   UNL     1      46.231   7.478  13.877  0.00  0.00    +0.000 HD
BRANCH  19  24
ATOM     21  C   UNL     1      47.947   3.856  16.036  0.00  0.00    +0.000 A 
ATOM     22  C   UNL     1      48.509   5.115  16.203  0.00  0.00    +0.000 A 
ATOM     23  N   UNL     1      48.245   6.157  15.368  0.00  0.00    +0.000 NA
ATOM     24  C   UNL     1      47.397   5.910  14.345  0.00  0.00    +0.000 A 
ATOM     25  C   UNL     1      46.849   4.628  14.189  0.00  0.00    +0.000 A 
ATOM     26  N   UNL     1      47.108   3.570  15.007  0.00  0.00    +0.000 NA
BRANCH  21  28
ATOM     27  N   UNL     1      47.370   2.659  18.068  0.00  0.00    +0.000 N 
ATOM     28  C   UNL     1      48.246   2.783  17.023  0.00  0.00    +0.000 C 
ATOM     29  O   UNL     1      49.219   2.046  16.913  0.00  0.00    +0.000 OA
ATOM     30  H   UNL     1      47.514   1.926  18.747  0.00  0.00    +0.000 HD
ATOM     31  H   UNL     1      46.532   3.229  18.102  0.00  0.00    +0.000 HD
ENDBRANCH  21  28
ENDBRANCH  19  24
ENDBRANCH  18  19
ENDBRANCH   1  18
TORSDOF 6
ENDMDL
MODEL 7
REMARK VINA RESULT:    -7.920      4.484      7.585
REMARK INTER + INTRA:         -11.657
REMARK INTER:                 -10.437
REMARK INTRA:                  -1.219
REMARK UNBOUND:                -0.959
REMARK  Name = 
REMARK  6 active torsions:
REMARK  status: ('A' for Active; 'I' for Inactive)
REMARK    1  A    between atoms: C_2  and  C_4
REMARK    2  A    between atoms: C_7  and  N_8
REMARK    3  A    between atoms: N_8  and  C_9
REMARK    4  A    between atoms: C_9  and  C_10
REMARK    5  A    between atoms: C_10  and  C_13
REMARK    6  A    between atoms: C_17  and  C_18
REMARK                            x       y       z     vdW  Elec       q    Type
REMARK                         _______ _______ _______ _____ _____    ______ ____
ROOT
ATOM      1  C   UNL     1      48.667   8.245  12.430  0.00  0.00    +0.000 C 
ATOM      2  F   UNL     1      49.138   9.336  11.744  0.00  0.00    +0.000 F 
ATOM      3  F   UNL     1      49.491   7.218  12.060  0.00  0.00    +0.000 F 
ENDROOT
BRANCH   1   4
ATOM      4  C   UNL     1      47.219   7.945  12.094  0.00  0.00    +0.000 A 
ATOM      5  C   UNL     1      46.244   8.940  12.240  0.00  0.00    +0.000 A 
ATOM      6  C   UNL     1      44.918   8.681  11.916  0.00  0.00    +0.000 A 
ATOM      7  C   UNL     1      44.555   7.429  11.416  0.00  0.00    +0.000 A 
ATOM      8  C   UNL     1      45.502   6.408  11.224  0.00  0.00    +0.000 A 
ATOM      9  C   UNL     1      46.832   6.684  11.603  0.00  0.00    +0.000 A 
BRANCH   8  10
ATOM     10  C   UNL     1      45.120   5.112  10.613  0.00  0.00    +0.000 A 
ATOM     11  C   UNL     1      44.324   4.180  11.311  0.00  0.00    +0.000 A 
ATOM     12  C   UNL     1      43.970   2.947  10.748  0.00  0.00    +0.000 A 
ATOM     13  C   UNL     1      44.390   2.622   9.462  0.00  0.00    +0.000 A 
ATOM     14  C   UNL     1      45.177   3.521   8.758  0.00  0.00    +0.000 A 
ATOM     15  F   UNL     1      45.585   3.206   7.521  0.00  0.00    +0.000 F 
ATOM     16  C   UNL     1      45.545   4.737   9.324  0.00  0.00    +0.000 A 
ATOM     17  F   UNL     1      46.344   5.546   8.605  0.00  0.00    +0.000 F 
ENDBRANCH   8  10
ENDBRANCH   1   4
BRANCH   1  18
ATOM     18  C   UNL     1      48.869   8.522  13.945  0.00  0.00    +0.000 C 
BRANCH  18  19
ATOM     19  N   UNL     1      49.760   7.519  14.574  0.00  0.00    +0.000 N 
ATOM     20  H   UNL     1      50.554   7.945  15.045  0.00  0.00    +0.000 HD
BRANCH  19  24
ATOM     21  C   UNL     1      48.118   4.625  16.989  0.00  0.00    +0.000 A 
ATOM     22  C   UNL     1      47.676   4.801  15.685  0.00  0.00    +0.000 A 
ATOM     23  N   UNL     1      48.173   5.763  14.861  0.00  0.00    +0.000 NA
ATOM     24  C   UNL     1      49.135   6.561  15.377  0.00  0.00    +0.000 A 
ATOM     25  C   UNL     1      49.559   6.373  16.700  0.00  0.00    +0.000 A 
ATOM     26  N   UNL     1      49.067   5.423  17.544  0.00  0.00    +0.000 NA
BRANCH  21  28
ATOM     27  N   UNL     1      48.271   3.174  18.930  0.00  0.00    +0.000 N 
ATOM     28  C   UNL     1      47.560   3.517  17.810  0.00  0.00    +0.000 C 
ATOM     29  O   UNL     1      46.523   2.937  17.509  0.00  0.00    +0.000 OA
ATOM     30  H   UNL     1      47.916   2.447  19.535  0.00  0.00    +0.000 HD
ATOM     31  H   UNL     1      49.085   3.713  19.201  0.00  0.00    +0.000 HD
ENDBRANCH  21  28
ENDBRANCH  19  24
ENDBRANCH  18  19
ENDBRANCH   1  18
TORSDOF 6
ENDMDL
MODEL 8
REMARK VINA RESULT:    -7.265      2.072      2.935
REMARK INTER + INTRA:         -10.772
REMARK INTER:                  -9.751
REMARK INTRA:                  -1.021
REMARK UNBOUND:                -0.959
REMARK  Name = 
REMARK  6 active torsions:
REMARK  status: ('A' for Active; 'I' for Inactive)
REMARK    1  A    between atoms: C_2  and  C_4
REMARK    2  A    between atoms: C_7  and  N_8
REMARK    3  A    between atoms: N_8  and  C_9
REMARK    4  A    between atoms: C_9  and  C_10
REMARK    5  A    between atoms: C_10  and  C_13
REMARK    6  A    between atoms: C_17  and  C_18
REMARK                            x       y       z     vdW  Elec       q    Type
REMARK                         _______ _______ _______ _____ _____    ______ ____
ROOT
ATOM      1  C   UNL     1      45.389   5.885  12.318  0.00  0.00    +0.000 C 
ATOM      2  F   UNL     1      44.676   5.801  13.487  0.00  0.00    +0.000 F 
ATOM      3  F   UNL     1      46.229   4.805  12.344  0.00  0.00    +0.000 F 
ENDROOT
BRANCH   1   4
ATOM      4  C   UNL     1      46.161   7.187  12.216  0.00  0.00    +0.000 A 
ATOM      5  C   UNL     1      45.478   8.409  12.219  0.00  0.00    +0.000 A 
ATOM      6  C   UNL     1      46.177   9.608  12.147  0.00  0.00    +0.000 A 
ATOM      7  C   UNL     1      47.572   9.599  12.096  0.00  0.00    +0.000 A 
ATOM      8  C   UNL     1      48.303   8.399  12.119  0.00  0.00    +0.000 A 
ATOM      9  C   UNL     1      47.567   7.196  12.149  0.00  0.00    +0.000 A 
BRANCH   8  10
ATOM     10  C   UNL     1      49.786   8.404  12.151  0.00  0.00    +0.000 A 
ATOM     11  C   UNL     1      50.544   7.980  11.040  0.00  0.00    +0.000 A 
ATOM     12  C   UNL     1      51.944   7.968  11.065  0.00  0.00    +0.000 A 
ATOM     13  C   UNL     1      52.624   8.396  12.200  0.00  0.00    +0.000 A 
ATOM     14  C   UNL     1      51.901   8.813  13.307  0.00  0.00    +0.000 A 
ATOM     15  F   UNL     1      52.556   9.222  14.402  0.00  0.00    +0.000 F 
ATOM     16  C   UNL     1      50.510   8.807  13.290  0.00  0.00    +0.000 A 
ATOM     17  F   UNL     1      49.868   9.185  14.411  0.00  0.00    +0.000 F 
ENDBRANCH   8  10
ENDBRANCH   1   4
BRANCH   1  18
ATOM     18  C   UNL     1      44.388   5.707  11.144  0.00  0.00    +0.000 C 
BRANCH  18  19
ATOM     19  N   UNL     1      44.225   4.283  10.770  0.00  0.00    +0.000 N 
ATOM     20  H   UNL     1      43.250   3.999  10.736  0.00  0.00    +0.000 HD
BRANCH  19  24
ATOM     21  C   UNL     1      46.413   2.923   7.565  0.00  0.00    +0.000 A 
ATOM     22  C   UNL     1      46.198   4.281   7.758  0.00  0.00    +0.000 A 
ATOM     23  N   UNL     1      45.459   4.772   8.790  0.00  0.00    +0.000 NA
ATOM     24  C   UNL     1      44.926   3.863   9.637  0.00  0.00    +0.000 A 
ATOM     25  C   UNL     1      45.147   2.495   9.418  0.00  0.00    +0.000 A 
ATOM     26  N   UNL     1      45.875   1.983   8.386  0.00  0.00    +0.000 NA
BRANCH  21  28
ATOM     27  N   UNL     1      48.306   1.626   6.772  0.00  0.00    +0.000 N 
ATOM     28  C   UNL     1      47.276   2.469   6.443  0.00  0.00    +0.000 C 
ATOM     29  O   UNL     1      47.085   2.823   5.285  0.00  0.00    +0.000 OA
ATOM     30  H   UNL     1      48.901   1.267   6.039  0.00  0.00    +0.000 HD
ATOM     31  H   UNL     1      48.403   1.287   7.722  0.00  0.00    +0.000 HD
ENDBRANCH  21  28
ENDBRANCH  19  24
ENDBRANCH  18  19
ENDBRANCH   1  18
TORSDOF 6
ENDMDL
MODEL 9
REMARK VINA RESULT:    -7.150      6.375      8.275
REMARK INTER + INTRA:         -10.618
REMARK INTER:                  -9.789
REMARK INTRA:                  -0.828
REMARK UNBOUND:                -0.959
REMARK  Name = 
REMARK  6 active torsions:
REMARK  status: ('A' for Active; 'I' for Inactive)
REMARK    1  A    between atoms: C_2  and  C_4
REMARK    2  A    between atoms: C_7  and  N_8
REMARK    3  A    between atoms: N_8  and  C_9
REMARK    4  A    between atoms: C_9  and  C_10
REMARK    5  A    between atoms: C_10  and  C_13
REMARK    6  A    between atoms: C_17  and  C_18
REMARK                            x       y       z     vdW  Elec       q    Type
REMARK                         _______ _______ _______ _____ _____    ______ ____
ROOT
ATOM      1  C   UNL     1      47.901   3.160  16.939  0.00  0.00    +0.000 C 
ATOM      2  F   UNL     1      47.046   2.469  17.761  0.00  0.00    +0.000 F 
ATOM      3  F   UNL     1      48.178   2.293  15.918  0.00  0.00    +0.000 F 
ENDROOT
BRANCH   1   4
ATOM      4  C   UNL     1      49.164   3.587  17.664  0.00  0.00    +0.000 A 
ATOM      5  C   UNL     1      49.107   4.589  18.640  0.00  0.00    +0.000 A 
ATOM      6  C   UNL     1      50.254   4.973  19.324  0.00  0.00    +0.000 A 
ATOM      7  C   UNL     1      51.469   4.341  19.055  0.00  0.00    +0.000 A 
ATOM      8  C   UNL     1      51.571   3.310  18.106  0.00  0.00    +0.000 A 
ATOM      9  C   UNL     1      50.400   2.970  17.396  0.00  0.00    +0.000 A 
BRANCH   8  10
ATOM     10  C   UNL     1      52.848   2.586  17.890  0.00  0.00    +0.000 A 
ATOM     11  C   UNL     1      54.055   3.282  17.673  0.00  0.00    +0.000 A 
ATOM     12  C   UNL     1      55.264   2.608  17.455  0.00  0.00    +0.000 A 
ATOM     13  C   UNL     1      55.298   1.218  17.465  0.00  0.00    +0.000 A 
ATOM     14  C   UNL     1      54.122   0.512  17.673  0.00  0.00    +0.000 A 
ATOM     15  F   UNL     1      54.155  -0.828  17.679  0.00  0.00    +0.000 F 
ATOM     16  C   UNL     1      52.918   1.180  17.870  0.00  0.00    +0.000 A 
ATOM     17  F   UNL     1      51.807   0.437  18.025  0.00  0.00    +0.000 F 
ENDBRANCH   8  10
ENDBRANCH   1   4
BRANCH   1  18
ATOM     18  C   UNL     1      47.120   4.373  16.364  0.00  0.00    +0.000 C 
BRANCH  18  19
ATOM     19  N   UNL     1      47.611   4.755  15.019  0.00  0.00    +0.000 N 
ATOM     20  H   UNL     1      48.525   4.362  14.812  0.00  0.00    +0.000 HD
BRANCH  19  24
ATOM     21  C   UNL     1      44.827   4.315  12.026  0.00  0.00    +0.000 A 
ATOM     22  C   UNL     1      45.512   3.218  12.530  0.00  0.00    +0.000 A 
ATOM     23  N   UNL     1      46.460   3.323  13.502  0.00  0.00    +0.000 NA
ATOM     24  C   UNL     1      46.715   4.567  13.964  0.00  0.00    +0.000 A 
ATOM     25  C   UNL     1      46.018   5.663  13.433  0.00  0.00    +0.000 A 
ATOM     26  N   UNL     1      45.075   5.581  12.454  0.00  0.00    +0.000 NA
BRANCH  21  28
ATOM     27  N   UNL     1      43.714   5.038   9.993  0.00  0.00    +0.000 N 
ATOM     28  C   UNL     1      43.769   4.111  11.001  0.00  0.00    +0.000 C 
ATOM     29  O   UNL     1      42.985   3.170  11.047  0.00  0.00    +0.000 OA
ATOM     30  H   UNL     1      43.031   4.925   9.258  0.00  0.00    +0.000 HD
ATOM     31  H   UNL     1      44.415   5.766   9.932  0.00  0.00    +0.000 HD
ENDBRANCH  21  28
ENDBRANCH  19  24
ENDBRANCH  18  19
ENDBRANCH   1  18
TORSDOF 6
ENDMDL
