MODEL 1
REMARK VINA RESULT:    -7.474      0.000      0.000
REMARK INTER + INTRA:         -10.549
REMARK INTER:                  -9.659
REMARK INTRA:                  -0.890
REMARK UNBOUND:                -0.890
REMARK  Name = 
REMARK  6 active torsions:
REMARK  status: ('A' for Active; 'I' for Inactive)
REMARK    1  A    between atoms: C_1  and  C_2
REMARK    2  A    between atoms: N_9  and  C_10
REMARK    3  A    between atoms: C_10  and  C_11
REMARK    4  A    between atoms: C_14  and  C_15
REMARK    5  A    between atoms: C_15  and  N_16
REMARK    6  A    between atoms: C_17  and  C_19
REMARK                            x       y       z     vdW  Elec       q    Type
REMARK                         _______ _______ _______ _____ _____    ______ ____
ROOT
ATOM      1  C   UNL     1      49.483   4.934  17.515  0.00  0.00    +0.000 A 
ATOM      2  C   UNL     1      50.299   5.998  17.113  0.00  0.00    +0.000 A 
ATOM      3  C   UNL     1      49.918   6.830  16.054  0.00  0.00    +0.000 A 
ATOM      4  C   UNL     1      48.703   6.628  15.386  0.00  0.00    +0.000 A 
ATOM      5  C   UNL     1      47.901   5.545  15.767  0.00  0.00    +0.000 A 
ATOM      6  C   UNL     1      48.283   4.712  16.824  0.00  0.00    +0.000 A 
ENDROOT
BRANCH   1   7
ATOM      7  C   UNL     1      49.895   4.042  18.657  0.00  0.00    +0.000 C 
BRANCH   7  16
ATOM      8  C   UNL     1      54.214   3.995  17.573  0.00  0.00    +0.000 C 
ATOM      9  C   UNL     1      53.988   2.534  17.751  0.00  0.00    +0.000 A 
ATOM     10  C   UNL     1      54.939   1.532  17.831  0.00  0.00    +0.000 A 
ATOM     11  C   UNL     1      54.270   0.291  17.843  0.00  0.00    +0.000 A 
ATOM     12  C   UNL     1      52.930   0.560  17.735  0.00  0.00    +0.000 A 
ATOM     13  N   UNL     1      52.729   1.933  17.717  0.00  0.00    +0.000 N 
ATOM     14  C   UNL     1      51.452   2.527  17.603  0.00  0.00    +0.000 C 
ATOM     15  O   UNL     1      50.626   2.043  16.841  0.00  0.00    +0.000 OA
ATOM     16  N   UNL     1      51.244   3.534  18.520  0.00  0.00    +0.000 N 
ATOM     17  H   UNL     1      51.852   3.570  19.330  0.00  0.00    +0.000 HD
ENDBRANCH   7  16
ENDBRANCH   1   7
BRANCH   4  18
ATOM     18  C   UNL     1      48.277   7.546  14.268  0.00  0.00    +0.000 C 
BRANCH  18  19
ATOM     19  N   UNL     1      46.972   7.201  13.760  0.00  0.00    +0.000 N 
ATOM     20  C   UNL     1      46.817   6.723  12.480  0.00  0.00    +0.000 C 
ATOM     21  O   UNL     1      47.743   6.714  11.674  0.00  0.00    +0.000 OA
ATOM     22  H   UNL     1      46.245   7.030  14.445  0.00  0.00    +0.000 HD
BRANCH  20  23
ATOM     23  C   UNL     1      45.482   6.238  12.116  0.00  0.00    +0.000 A 
ATOM     24  C   UNL     1      44.559   7.104  11.544  0.00  0.00    +0.000 A 
ATOM     25  S   UNL     1      43.088   6.352  11.121  0.00  0.00    +0.000 S 
ATOM     26  C   UNL     1      43.658   4.829  11.620  0.00  0.00    +0.000 A 
ATOM     27  N   UNL     1      42.915   3.706  11.435  0.00  0.00    +0.000 NA
ATOM     28  C   UNL     1      43.483   2.617  11.832  0.00  0.00    +0.000 A 
ATOM     29  N   UNL     1      44.717   2.555  12.433  0.00  0.00    +0.000 N 
ATOM     30  C   UNL     1      45.475   3.671  12.690  0.00  0.00    +0.000 A 
ATOM     31  O   UNL     1      46.527   3.593  13.324  0.00  0.00    +0.000 OA
ATOM     32  C   UNL     1      44.919   4.909  12.190  0.00  0.00    +0.000 A 
ATOM     33  H   UNL     1      45.084   1.674  12.762  0.00  0.00    +0.000 HD
ENDBRANCH  20  23
ENDBRANCH  18  19
ENDBRANCH   4  18
TORSDOF 5
ENDMDL
MODEL 2
REMARK VINA RESULT:    -7.362      2.177      3.400
REMARK INTER + INTRA:         -10.404
REMARK INTER:                  -9.630
REMARK INTRA:                  -0.774
REMARK UNBOUND:                -0.890
REMARK  Name = 
REMARK  6 active torsions:
REMARK  status: ('A' for Active; 'I' for Inactive)
REMARK    1  A    between atoms: C_1  and  C_2
REMARK    2  A    between atoms: N_9  and  C_10
REMARK    3  A    between atoms: C_10  and  C_11
REMARK    4  A    between atoms: C_14  and  C_15
REMARK    5  A    between atoms: C_15  and  N_16
REMARK    6  A    between atoms: C_17  and  C_19
REMARK                            x       y       z     vdW  Elec       q    Type
REMARK                         _______ _______ _______ _____ _____    ______ ____
ROOT
ATOM      1  C   UNL     1      51.426   3.183  17.853  0.00  0.00    +0.000 A 
ATOM      2  C   UNL     1      50.820   2.095  17.212  0.00  0.00    +0.000 A 
ATOM      3  C   UNL     1      49.457   2.122  16.895  0.00  0.00    +0.000 A 
ATOM      4  C   UNL     1      48.674   3.245  17.194  0.00  0.00    +0.000 A 
ATOM      5  C   UNL     1      49.272   4.320  17.862  0.00  0.00    +0.000 A 
ATOM      6  C   UNL     1      50.634   4.293  18.182  0.00  0.00    +0.000 A 
ENDROOT
BRANCH   1   7
ATOM      7  C   UNL     1      52.894   3.152  18.191  0.00  0.00    +0.000 C 
BRANCH   7  16
ATOM      8  C   UNL     1      55.084  -0.364  19.825  0.00  0.00    +0.000 C 
ATOM      9  C   UNL     1      54.998  -0.769  18.395  0.00  0.00    +0.000 A 
ATOM     10  C   UNL     1      55.273  -2.010  17.846  0.00  0.00    +0.000 A 
ATOM     11  C   UNL     1      55.206  -1.894  16.443  0.00  0.00    +0.000 A 
ATOM     12  C   UNL     1      54.927  -0.581  16.164  0.00  0.00    +0.000 A 
ATOM     13  N   UNL     1      54.755   0.122  17.348  0.00  0.00    +0.000 N 
ATOM     14  C   UNL     1      54.467   1.504  17.393  0.00  0.00    +0.000 C 
ATOM     15  O   UNL     1      55.026   2.264  16.614  0.00  0.00    +0.000 OA
ATOM     16  N   UNL     1      53.433   1.810  18.250  0.00  0.00    +0.000 N 
ATOM     17  H   UNL     1      52.813   1.058  18.533  0.00  0.00    +0.000 HD
ENDBRANCH   7  16
ENDBRANCH   1   7
BRANCH   4  18
ATOM     18  C   UNL     1      47.213   3.287  16.821  0.00  0.00    +0.000 C 
BRANCH  18  19
ATOM     19  N   UNL     1      46.922   4.373  15.917  0.00  0.00    +0.000 N 
ATOM     20  C   UNL     1      46.861   4.163  14.561  0.00  0.00    +0.000 C 
ATOM     21  O   UNL     1      47.196   3.098  14.052  0.00  0.00    +0.000 OA
ATOM     22  H   UNL     1      46.474   5.190  16.315  0.00  0.00    +0.000 HD
BRANCH  20  23
ATOM     23  C   UNL     1      46.388   5.285  13.742  0.00  0.00    +0.000 A 
ATOM     24  C   UNL     1      47.210   6.383  13.526  0.00  0.00    +0.000 A 
ATOM     25  S   UNL     1      46.526   7.556  12.495  0.00  0.00    +0.000 S 
ATOM     26  C   UNL     1      45.137   6.606  12.244  0.00  0.00    +0.000 A 
ATOM     27  N   UNL     1      44.173   6.990  11.365  0.00  0.00    +0.000 NA
ATOM     28  C   UNL     1      43.191   6.160  11.251  0.00  0.00    +0.000 A 
ATOM     29  N   UNL     1      43.070   4.993  11.966  0.00  0.00    +0.000 N 
ATOM     30  C   UNL     1      43.992   4.597  12.903  0.00  0.00    +0.000 A 
ATOM     31  O   UNL     1      43.801   3.601  13.602  0.00  0.00    +0.000 OA
ATOM     32  C   UNL     1      45.153   5.453  13.011  0.00  0.00    +0.000 A 
ATOM     33  H   UNL     1      42.253   4.410  11.862  0.00  0.00    +0.000 HD
ENDBRANCH  20  23
ENDBRANCH  18  19
ENDBRANCH   4  18
TORSDOF 5
ENDMDL
MODEL 3
REMARK VINA RESULT:    -7.146      5.678      6.891
REMARK INTER + INTRA:         -10.125
REMARK INTER:                  -9.227
REMARK INTRA:                  -0.898
REMARK UNBOUND:                -0.890
REMARK  Name = 
REMARK  6 active torsions:
REMARK  status: ('A' for Active; 'I' for Inactive)
REMARK    1  A    between atoms: C_1  and  C_2
REMARK    2  A    between atoms: N_9  and  C_10
REMARK    3  A    between atoms: C_10  and  C_11
REMARK    4  A    between atoms: C_14  and  C_15
REMARK    5  A    between atoms: C_15  and  N_16
REMARK    6  A    between atoms: C_17  and  C_19
REMARK                            x       y       z     vdW  Elec       q    Type
REMARK                         _______ _______ _______ _____ _____    ______ ____
ROOT
ATOM      1  C   UNL     1      50.012   9.036  11.467  0.00  0.00    +0.000 A 
ATOM      2  C   UNL     1      49.593   7.741  11.794  0.00  0.00    +0.000 A 
ATOM      3  C   UNL     1      48.295   7.508  12.264  0.00  0.00    +0.000 A 
ATOM      4  C   UNL     1      47.381   8.562  12.397  0.00  0.00    +0.000 A 
ATOM      5  C   UNL     1      47.809   9.861  12.099  0.00  0.00    +0.000 A 
ATOM      6  C   UNL     1      49.108  10.096  11.632  0.00  0.00    +0.000 A 
ENDROOT
BRANCH   1   7
ATOM      7  C   UNL     1      51.409   9.284  10.961  0.00  0.00    +0.000 C 
BRANCH   7  16
ATOM      8  C   UNL     1      54.180   5.837  10.443  0.00  0.00    +0.000 C 
ATOM      9  C   UNL     1      53.660   5.947   9.052  0.00  0.00    +0.000 A 
ATOM     10  C   UNL     1      53.806   5.040   8.017  0.00  0.00    +0.000 A 
ATOM     11  C   UNL     1      53.287   5.624   6.844  0.00  0.00    +0.000 A 
ATOM     12  C   UNL     1      52.867   6.886   7.179  0.00  0.00    +0.000 A 
ATOM     13  N   UNL     1      53.050   7.093   8.539  0.00  0.00    +0.000 N 
ATOM     14  C   UNL     1      52.724   8.304   9.189  0.00  0.00    +0.000 C 
ATOM     15  O   UNL     1      52.964   9.370   8.638  0.00  0.00    +0.000 OA
ATOM     16  N   UNL     1      52.005   8.115  10.349  0.00  0.00    +0.000 N 
ATOM     17  H   UNL     1      51.547   7.220  10.482  0.00  0.00    +0.000 HD
ENDBRANCH   7  16
ENDBRANCH   1   7
BRANCH   4  18
ATOM     18  C   UNL     1      45.972   8.305  12.869  0.00  0.00    +0.000 C 
BRANCH  18  19
ATOM     19  N   UNL     1      45.576   6.935  12.653  0.00  0.00    +0.000 N 
ATOM     20  C   UNL     1      44.577   6.622  11.763  0.00  0.00    +0.000 C 
ATOM     21  O   UNL     1      43.883   7.486  11.236  0.00  0.00    +0.000 OA
ATOM     22  H   UNL     1      46.239   6.219  12.928  0.00  0.00    +0.000 HD
BRANCH  20  23
ATOM     23  C   UNL     1      44.366   5.198  11.484  0.00  0.00    +0.000 A 
ATOM     24  C   UNL     1      43.607   4.423  12.353  0.00  0.00    +0.000 A 
ATOM     25  S   UNL     1      43.409   2.811  11.834  0.00  0.00    +0.000 S 
ATOM     26  C   UNL     1      44.270   3.108  10.397  0.00  0.00    +0.000 A 
ATOM     27  N   UNL     1      44.385   2.152   9.438  0.00  0.00    +0.000 NA
ATOM     28  C   UNL     1      45.037   2.524   8.387  0.00  0.00    +0.000 A 
ATOM     29  N   UNL     1      45.616   3.759   8.225  0.00  0.00    +0.000 N 
ATOM     30  C   UNL     1      45.571   4.733   9.193  0.00  0.00    +0.000 A 
ATOM     31  O   UNL     1      46.189   5.790   9.061  0.00  0.00    +0.000 OA
ATOM     32  C   UNL     1      44.782   4.395  10.357  0.00  0.00    +0.000 A 
ATOM     33  H   UNL     1      46.152   3.971   7.397  0.00  0.00    +0.000 HD
ENDBRANCH  20  23
ENDBRANCH  18  19
ENDBRANCH   4  18
TORSDOF 5
ENDMDL
MODEL 4
REMARK VINA RESULT:    -6.525      2.131      3.044
REMARK INTER + INTRA:          -9.322
REMARK INTER:                  -8.617
REMARK INTRA:                  -0.705
REMARK UNBOUND:                -0.890
REMARK  Name = 
REMARK  6 active torsions:
REMARK  status: ('A' for Active; 'I' for Inactive)
REMARK    1  A    between atoms: C_1  and  C_2
REMARK    2  A    between atoms: N_9  and  C_10
REMARK    3  A    between atoms: C_10  and  C_11
REMARK    4  A    between atoms: C_14  and  C_15
REMARK    5  A    between atoms: C_15  and  N_16
REMARK    6  A    between atoms: C_17  and  C_19
REMARK                            x       y       z     vdW  Elec       q    Type
REMARK                         _______ _______ _______ _____ _____    ______ ____
ROOT
ATOM      1  C   UNL     1      50.991   2.690  17.405  0.00  0.00    +0.000 A 
ATOM      2  C   UNL     1      49.599   2.830  17.432  0.00  0.00    +0.000 A 
ATOM      3  C   UNL     1      49.010   4.100  17.454  0.00  0.00    +0.000 A 
ATOM      4  C   UNL     1      49.800   5.257  17.429  0.00  0.00    +0.000 A 
ATOM      5  C   UNL     1      51.193   5.117  17.433  0.00  0.00    +0.000 A 
ATOM      6  C   UNL     1      51.783   3.848  17.414  0.00  0.00    +0.000 A 
ENDROOT
BRANCH   1   7
ATOM      7  C   UNL     1      51.623   1.322  17.380  0.00  0.00    +0.000 C 
BRANCH   7  16
ATOM      8  C   UNL     1      54.838   2.388  20.270  0.00  0.00    +0.000 C 
ATOM      9  C   UNL     1      55.016   0.911  20.236  0.00  0.00    +0.000 A 
ATOM     10  C   UNL     1      55.775   0.128  21.089  0.00  0.00    +0.000 A 
ATOM     11  C   UNL     1      55.775  -1.191  20.591  0.00  0.00    +0.000 A 
ATOM     12  C   UNL     1      55.047  -1.179  19.429  0.00  0.00    +0.000 A 
ATOM     13  N   UNL     1      54.538   0.094  19.210  0.00  0.00    +0.000 N 
ATOM     14  C   UNL     1      53.753   0.431  18.086  0.00  0.00    +0.000 C 
ATOM     15  O   UNL     1      54.044  -0.022  16.987  0.00  0.00    +0.000 OA
ATOM     16  N   UNL     1      52.618   1.139  18.415  0.00  0.00    +0.000 N 
ATOM     17  H   UNL     1      52.304   1.110  19.379  0.00  0.00    +0.000 HD
ENDBRANCH   7  16
ENDBRANCH   1   7
BRANCH   4  18
ATOM     18  C   UNL     1      49.163   6.624  17.417  0.00  0.00    +0.000 C 
BRANCH  18  19
ATOM     19  N   UNL     1      48.175   6.746  16.374  0.00  0.00    +0.000 N 
ATOM     20  C   UNL     1      48.548   6.782  15.051  0.00  0.00    +0.000 C 
ATOM     21  O   UNL     1      49.724   6.867  14.710  0.00  0.00    +0.000 OA
ATOM     22  H   UNL     1      47.223   6.497  16.615  0.00  0.00    +0.000 HD
BRANCH  20  23
ATOM     23  C   UNL     1      47.467   6.732  14.061  0.00  0.00    +0.000 A 
ATOM     24  C   UNL     1      47.070   7.889  13.404  0.00  0.00    +0.000 A 
ATOM     25  S   UNL     1      45.853   7.630  12.239  0.00  0.00    +0.000 S 
ATOM     26  C   UNL     1      45.863   5.952  12.520  0.00  0.00    +0.000 A 
ATOM     27  N   UNL     1      45.108   5.110  11.766  0.00  0.00    +0.000 NA
ATOM     28  C   UNL     1      45.236   3.861  12.068  0.00  0.00    +0.000 A 
ATOM     29  N   UNL     1      46.028   3.382  13.083  0.00  0.00    +0.000 N 
ATOM     30  C   UNL     1      46.761   4.203  13.904  0.00  0.00    +0.000 A 
ATOM     31  O   UNL     1      47.376   3.751  14.871  0.00  0.00    +0.000 OA
ATOM     32  C   UNL     1      46.715   5.606  13.556  0.00  0.00    +0.000 A 
ATOM     33  H   UNL     1      46.048   2.395  13.297  0.00  0.00    +0.000 HD
ENDBRANCH  20  23
ENDBRANCH  18  19
ENDBRANCH   4  18
TORSDOF 5
ENDMDL
MODEL 5
REMARK VINA RESULT:    -5.470      4.795     10.480
REMARK INTER + INTRA:          -7.959
REMARK INTER:                  -7.061
REMARK INTRA:                  -0.899
REMARK UNBOUND:                -0.890
REMARK  Name = 
REMARK  6 active torsions:
REMARK  status: ('A' for Active; 'I' for Inactive)
REMARK    1  A    between atoms: C_1  and  C_2
REMARK    2  A    between atoms: N_9  and  C_10
REMARK    3  A    between atoms: C_10  and  C_11
REMARK    4  A    between atoms: C_14  and  C_15
REMARK    5  A    between atoms: C_15  and  N_16
REMARK    6  A    between atoms: C_17  and  C_19
REMARK                            x       y       z     vdW  Elec       q    Type
REMARK                         _______ _______ _______ _____ _____    ______ ____
ROOT
ATOM      1  C   UNL     1      50.442   3.156  17.818  0.00  0.00    +0.000 A 
ATOM      2  C   UNL     1      50.449   1.840  17.342  0.00  0.00    +0.000 A 
ATOM      3  C   UNL     1      51.641   1.110  17.280  0.00  0.00    +0.000 A 
ATOM      4  C   UNL     1      52.850   1.672  17.712  0.00  0.00    +0.000 A 
ATOM      5  C   UNL     1      52.848   2.999  18.160  0.00  0.00    +0.000 A 
ATOM      6  C   UNL     1      51.657   3.731  18.219  0.00  0.00    +0.000 A 
ENDROOT
BRANCH   1   7
ATOM      7  C   UNL     1      49.157   3.940  17.884  0.00  0.00    +0.000 C 
BRANCH   7  16
ATOM      8  C   UNL     1      48.456   7.201  14.935  0.00  0.00    +0.000 C 
ATOM      9  C   UNL     1      47.728   6.094  14.257  0.00  0.00    +0.000 A 
ATOM     10  C   UNL     1      47.245   6.064  12.959  0.00  0.00    +0.000 A 
ATOM     11  C   UNL     1      46.493   4.884  12.797  0.00  0.00    +0.000 A 
ATOM     12  C   UNL     1      46.502   4.235  14.006  0.00  0.00    +0.000 A 
ATOM     13  N   UNL     1      47.288   4.940  14.907  0.00  0.00    +0.000 N 
ATOM     14  C   UNL     1      47.486   4.532  16.245  0.00  0.00    +0.000 C 
ATOM     15  O   UNL     1      46.549   4.073  16.883  0.00  0.00    +0.000 OA
ATOM     16  N   UNL     1      48.810   4.566  16.626  0.00  0.00    +0.000 N 
ATOM     17  H   UNL     1      49.513   4.593  15.896  0.00  0.00    +0.000 HD
ENDBRANCH   7  16
ENDBRANCH   1   7
BRANCH   4  18
ATOM     18  C   UNL     1      54.128   0.873  17.679  0.00  0.00    +0.000 C 
BRANCH  18  19
ATOM     19  N   UNL     1      53.885  -0.534  17.886  0.00  0.00    +0.000 N 
ATOM     20  C   UNL     1      54.288  -1.155  19.044  0.00  0.00    +0.000 C 
ATOM     21  O   UNL     1      54.996  -0.590  19.872  0.00  0.00    +0.000 OA
ATOM     22  H   UNL     1      53.163  -0.962  17.318  0.00  0.00    +0.000 HD
BRANCH  20  23
ATOM     23  C   UNL     1      53.845  -2.539  19.237  0.00  0.00    +0.000 A 
ATOM     24  C   UNL     1      53.098  -2.881  20.358  0.00  0.00    +0.000 A 
ATOM     25  S   UNL     1      52.610  -4.514  20.381  0.00  0.00    +0.000 S 
ATOM     26  C   UNL     1      53.319  -4.807  18.863  0.00  0.00    +0.000 A 
ATOM     27  N   UNL     1      53.178  -6.007  18.241  0.00  0.00    +0.000 NA
ATOM     28  C   UNL     1      53.740  -6.079  17.081  0.00  0.00    +0.000 A 
ATOM     29  N   UNL     1      54.464  -5.066  16.501  0.00  0.00    +0.000 N 
ATOM     30  C   UNL     1      54.678  -3.858  17.120  0.00  0.00    +0.000 A 
ATOM     31  O   UNL     1      55.419  -3.011  16.620  0.00  0.00    +0.000 OA
ATOM     32  C   UNL     1      54.000  -3.698  18.387  0.00  0.00    +0.000 A 
ATOM     33  H   UNL     1      54.918  -5.203  15.610  0.00  0.00    +0.000 HD
ENDBRANCH  20  23
ENDBRANCH  18  19
ENDBRANCH   4  18
TORSDOF 5
ENDMDL
MODEL 6
REMARK VINA RESULT:    -5.325     10.978     12.505
REMARK INTER + INTRA:          -7.771
REMARK INTER:                  -6.922
REMARK INTRA:                  -0.849
REMARK UNBOUND:                -0.890
REMARK  Name = 
REMARK  6 active torsions:
REMARK  status: ('A' for Active; 'I' for Inactive)
REMARK    1  A    between atoms: C_1  and  C_2
REMARK    2  A    between atoms: N_9  and  C_10
REMARK    3  A    between atoms: C_10  and  C_11
REMARK    4  A    between atoms: C_14  and  C_15
REMARK    5  A    between atoms: C_15  and  N_16
REMARK    6  A    between atoms: C_17  and  C_19
REMARK                            x       y       z     vdW  Elec       q    Type
REMARK                         _______ _______ _______ _____ _____    ______ ____
ROOT
ATOM      1  C   UNL     1      39.655  -1.617  17.628  0.00  0.00    +0.000 A 
ATOM      2  C   UNL     1      40.665  -2.585  17.620  0.00  0.00    +0.000 A 
ATOM      3  C   UNL     1      41.120  -3.132  16.414  0.00  0.00    +0.000 A 
ATOM      4  C   UNL     1      40.587  -2.708  15.189  0.00  0.00    +0.000 A 
ATOM      5  C   UNL     1      39.555  -1.762  15.199  0.00  0.00    +0.000 A 
ATOM      6  C   UNL     1      39.098  -1.217  16.404  0.00  0.00    +0.000 A 
ENDROOT
BRANCH   1   7
ATOM      7  C   UNL     1      39.168  -1.029  18.928  0.00  0.00    +0.000 C 
BRANCH   7  16
ATOM      8  C   UNL     1      38.816   3.123  17.359  0.00  0.00    +0.000 C 
ATOM      9  C   UNL     1      38.034   3.268  18.618  0.00  0.00    +0.000 A 
ATOM     10  C   UNL     1      37.217   4.320  18.994  0.00  0.00    +0.000 A 
ATOM     11  C   UNL     1      36.805   4.103  20.325  0.00  0.00    +0.000 A 
ATOM     12  C   UNL     1      37.405   2.942  20.744  0.00  0.00    +0.000 A 
ATOM     13  N   UNL     1      38.134   2.390  19.700  0.00  0.00    +0.000 N 
ATOM     14  C   UNL     1      38.877   1.195  19.821  0.00  0.00    +0.000 C 
ATOM     15  O   UNL     1      39.514   0.980  20.843  0.00  0.00    +0.000 OA
ATOM     16  N   UNL     1      38.655   0.317  18.783  0.00  0.00    +0.000 N 
ATOM     17  H   UNL     1      37.825   0.453  18.216  0.00  0.00    +0.000 HD
ENDBRANCH   7  16
ENDBRANCH   1   7
BRANCH   4  18
ATOM     18  C   UNL     1      41.102  -3.272  13.889  0.00  0.00    +0.000 C 
BRANCH  18  19
ATOM     19  N   UNL     1      40.091  -3.257  12.860  0.00  0.00    +0.000 N 
ATOM     20  C   UNL     1      40.274  -2.540  11.702  0.00  0.00    +0.000 C 
ATOM     21  O   UNL     1      41.219  -1.770  11.558  0.00  0.00    +0.000 OA
ATOM     22  H   UNL     1      39.411  -4.008  12.877  0.00  0.00    +0.000 HD
BRANCH  20  23
ATOM     23  C   UNL     1      39.273  -2.726  10.647  0.00  0.00    +0.000 A 
ATOM     24  C   UNL     1      39.281  -3.881   9.875  0.00  0.00    +0.000 A 
ATOM     25  S   UNL     1      38.005  -3.959   8.748  0.00  0.00    +0.000 S 
ATOM     26  C   UNL     1      37.355  -2.486   9.298  0.00  0.00    +0.000 A 
ATOM     27  N   UNL     1      36.176  -2.013   8.812  0.00  0.00    +0.000 NA
ATOM     28  C   UNL     1      35.786  -0.902   9.341  0.00  0.00    +0.000 A 
ATOM     29  N   UNL     1      36.490  -0.200  10.290  0.00  0.00    +0.000 N 
ATOM     30  C   UNL     1      37.710  -0.614  10.766  0.00  0.00    +0.000 A 
ATOM     31  O   UNL     1      38.364   0.090  11.536  0.00  0.00    +0.000 OA
ATOM     32  C   UNL     1      38.154  -1.896  10.265  0.00  0.00    +0.000 A 
ATOM     33  H   UNL     1      36.151   0.688  10.629  0.00  0.00    +0.000 HD
ENDBRANCH  20  23
ENDBRANCH  18  19
ENDBRANCH   4  18
TORSDOF 5
ENDMDL
MODEL 7
REMARK VINA RESULT:    -5.165     10.977     12.743
REMARK INTER + INTRA:          -7.565
REMARK INTER:                  -6.740
REMARK INTRA:                  -0.825
REMARK UNBOUND:                -0.890
REMARK  Name = 
REMARK  6 active torsions:
REMARK  status: ('A' for Active; 'I' for Inactive)
REMARK    1  A    between atoms: C_1  and  C_2
REMARK    2  A    between atoms: N_9  and  C_10
REMARK    3  A    between atoms: C_10  and  C_11
REMARK    4  A    between atoms: C_14  and  C_15
REMARK    5  A    between atoms: C_15  and  N_16
REMARK    6  A    between atoms: C_17  and  C_19
REMARK                            x       y       z     vdW  Elec       q    Type
REMARK                         _______ _______ _______ _____ _____    ______ ____
ROOT
ATOM      1  C   UNL     1      40.028  -2.054  18.792  0.00  0.00    +0.000 A 
ATOM      2  C   UNL     1      40.174  -1.611  17.472  0.00  0.00    +0.000 A 
ATOM      3  C   UNL     1      40.802  -2.417  16.514  0.00  0.00    +0.000 A 
ATOM      4  C   UNL     1      41.279  -3.691  16.851  0.00  0.00    +0.000 A 
ATOM      5  C   UNL     1      41.160  -4.121  18.178  0.00  0.00    +0.000 A 
ATOM      6  C   UNL     1      40.536  -3.315  19.137  0.00  0.00    +0.000 A 
ENDROOT
BRANCH   1   7
ATOM      7  C   UNL     1      39.351  -1.185  19.820  0.00  0.00    +0.000 C 
BRANCH   7  16
ATOM      8  C   UNL     1      39.428   3.245  20.257  0.00  0.00    +0.000 C 
ATOM      9  C   UNL     1      38.768   3.139  18.927  0.00  0.00    +0.000 A 
ATOM     10  C   UNL     1      38.536   4.152  18.012  0.00  0.00    +0.000 A 
ATOM     11  C   UNL     1      37.751   3.627  16.966  0.00  0.00    +0.000 A 
ATOM     12  C   UNL     1      37.492   2.317  17.280  0.00  0.00    +0.000 A 
ATOM     13  N   UNL     1      38.140   1.983  18.461  0.00  0.00    +0.000 N 
ATOM     14  C   UNL     1      38.058   0.704  19.054  0.00  0.00    +0.000 C 
ATOM     15  O   UNL     1      36.990   0.108  19.061  0.00  0.00    +0.000 OA
ATOM     16  N   UNL     1      39.287   0.207  19.431  0.00  0.00    +0.000 N 
ATOM     17  H   UNL     1      40.114   0.627  19.022  0.00  0.00    +0.000 HD
ENDBRANCH   7  16
ENDBRANCH   1   7
BRANCH   4  18
ATOM     18  C   UNL     1      41.923  -4.572  15.810  0.00  0.00    +0.000 C 
BRANCH  18  19
ATOM     19  N   UNL     1      41.222  -4.515  14.551  0.00  0.00    +0.000 N 
ATOM     20  C   UNL     1      41.509  -5.405  13.544  0.00  0.00    +0.000 C 
ATOM     21  O   UNL     1      42.463  -6.174  13.610  0.00  0.00    +0.000 OA
ATOM     22  H   UNL     1      40.334  -4.026  14.544  0.00  0.00    +0.000 HD
BRANCH  20  23
ATOM     23  C   UNL     1      40.628  -5.380  12.373  0.00  0.00    +0.000 A 
ATOM     24  C   UNL     1      40.119  -6.566  11.859  0.00  0.00    +0.000 A 
ATOM     25  S   UNL     1      39.058  -6.341  10.543  0.00  0.00    +0.000 S 
ATOM     26  C   UNL     1      39.185  -4.648  10.657  0.00  0.00    +0.000 A 
ATOM     27  N   UNL     1      38.435  -3.833   9.869  0.00  0.00    +0.000 NA
ATOM     28  C   UNL     1      38.610  -2.572  10.084  0.00  0.00    +0.000 A 
ATOM     29  N   UNL     1      39.497  -2.052  10.995  0.00  0.00    +0.000 N 
ATOM     30  C   UNL     1      40.313  -2.839  11.770  0.00  0.00    +0.000 A 
ATOM     31  O   UNL     1      41.171  -2.341  12.499  0.00  0.00    +0.000 OA
ATOM     32  C   UNL     1      40.098  -4.262  11.625  0.00  0.00    +0.000 A 
ATOM     33  H   UNL     1      39.619  -1.053  11.081  0.00  0.00    +0.000 HD
ENDBRANCH  20  23
ENDBRANCH  18  19
ENDBRANCH   4  18
TORSDOF 5
ENDMDL
MODEL 8
REMARK VINA RESULT:    -5.060     11.030     12.753
REMARK INTER + INTRA:          -7.429
REMARK INTER:                  -6.455
REMARK INTRA:                  -0.974
REMARK UNBOUND:                -0.890
REMARK  Name = 
REMARK  6 active torsions:
REMARK  status: ('A' for Active; 'I' for Inactive)
REMARK    1  A    between atoms: C_1  and  C_2
REMARK    2  A    between atoms: N_9  and  C_10
REMARK    3  A    between atoms: C_10  and  C_11
REMARK    4  A    between atoms: C_14  and  C_15
REMARK    5  A    between atoms: C_15  and  N_16
REMARK    6  A    between atoms: C_17  and  C_19
REMARK                            x       y       z     vdW  Elec       q    Type
REMARK                         _______ _______ _______ _____ _____    ______ ____
ROOT
ATOM      1  C   UNL     1      39.731  -1.590  18.079  0.00  0.00    +0.000 A 
ATOM      2  C   UNL     1      39.377  -1.118  16.810  0.00  0.00    +0.000 A 
ATOM      3  C   UNL     1      39.871  -1.734  15.655  0.00  0.00    +0.000 A 
ATOM      4  C   UNL     1      40.715  -2.850  15.743  0.00  0.00    +0.000 A 
ATOM      5  C   UNL     1      41.094  -3.304  17.012  0.00  0.00    +0.000 A 
ATOM      6  C   UNL     1      40.602  -2.686  18.168  0.00  0.00    +0.000 A 
ENDROOT
BRANCH   1   7
ATOM      7  C   UNL     1      39.196  -0.925  19.321  0.00  0.00    +0.000 C 
BRANCH   7  16
ATOM      8  C   UNL     1      38.636   3.019  17.334  0.00  0.00    +0.000 C 
ATOM      9  C   UNL     1      37.941   3.291  18.622  0.00  0.00    +0.000 A 
ATOM     10  C   UNL     1      37.129   4.366  18.938  0.00  0.00    +0.000 A 
ATOM     11  C   UNL     1      36.816   4.292  20.311  0.00  0.00    +0.000 A 
ATOM     12  C   UNL     1      37.471   3.196  20.810  0.00  0.00    +0.000 A 
ATOM     13  N   UNL     1      38.138   2.542  19.784  0.00  0.00    +0.000 N 
ATOM     14  C   UNL     1      38.915   1.380  19.982  0.00  0.00    +0.000 C 
ATOM     15  O   UNL     1      39.627   1.290  20.973  0.00  0.00    +0.000 OA
ATOM     16  N   UNL     1      38.642   0.387  19.066  0.00  0.00    +0.000 N 
ATOM     17  H   UNL     1      37.772   0.446  18.549  0.00  0.00    +0.000 HD
ENDBRANCH   7  16
ENDBRANCH   1   7
BRANCH   4  18
ATOM     18  C   UNL     1      41.218  -3.536  14.498  0.00  0.00    +0.000 C 
BRANCH  18  19
ATOM     19  N   UNL     1      40.231  -3.531  13.447  0.00  0.00    +0.000 N 
ATOM     20  C   UNL     1      40.457  -2.856  12.271  0.00  0.00    +0.000 C 
ATOM     21  O   UNL     1      41.422  -2.113  12.124  0.00  0.00    +0.000 OA
ATOM     22  H   UNL     1      39.533  -4.266  13.472  0.00  0.00    +0.000 HD
BRANCH  20  23
ATOM     23  C   UNL     1      39.475  -3.053  11.200  0.00  0.00    +0.000 A 
ATOM     24  C   UNL     1      38.732  -1.978  10.730  0.00  0.00    +0.000 A 
ATOM     25  S   UNL     1      37.694  -2.378   9.438  0.00  0.00    +0.000 S 
ATOM     26  C   UNL     1      38.251  -3.985   9.414  0.00  0.00    +0.000 A 
ATOM     27  N   UNL     1      37.833  -4.859   8.460  0.00  0.00    +0.000 NA
ATOM     28  C   UNL     1      38.360  -6.035   8.542  0.00  0.00    +0.000 A 
ATOM     29  N   UNL     1      39.243  -6.426   9.519  0.00  0.00    +0.000 N 
ATOM     30  C   UNL     1      39.647  -5.592  10.533  0.00  0.00    +0.000 A 
ATOM     31  O   UNL     1      40.356  -6.005  11.452  0.00  0.00    +0.000 OA
ATOM     32  C   UNL     1      39.148  -4.238  10.439  0.00  0.00    +0.000 A 
ATOM     33  H   UNL     1      39.583  -7.376   9.554  0.00  0.00    +0.000 HD
ENDBRANCH  20  23
ENDBRANCH  18  19
ENDBRANCH   4  18
TORSDOF 5
ENDMDL
MODEL 9
REMARK VINA RESULT:    -5.032     11.542     14.555
REMARK INTER + INTRA:          -7.393
REMARK INTER:                  -6.363
REMARK INTRA:                  -1.030
REMARK UNBOUND:                -0.890
REMARK  Name = 
REMARK  6 active torsions:
REMARK  status: ('A' for Active; 'I' for Inactive)
REMARK    1  A    between atoms: C_1  and  C_2
REMARK    2  A    between atoms: N_9  and  C_10
REMARK    3  A    between atoms: C_10  and  C_11
REMARK    4  A    between atoms: C_14  and  C_15
REMARK    5  A    between atoms: C_15  and  N_16
REMARK    6  A    between atoms: C_17  and  C_19
REMARK                            x       y       z     vdW  Elec       q    Type
REMARK                         _______ _______ _______ _____ _____    ______ ____
ROOT
ATOM      1  C   UNL     1      36.506   0.766  12.735  0.00  0.00    +0.000 A 
ATOM      2  C   UNL     1      36.532   1.506  13.923  0.00  0.00    +0.000 A 
ATOM      3  C   UNL     1      37.006   0.934  15.110  0.00  0.00    +0.000 A 
ATOM      4  C   UNL     1      37.484  -0.383  15.130  0.00  0.00    +0.000 A 
ATOM      5  C   UNL     1      37.429  -1.133  13.949  0.00  0.00    +0.000 A 
ATOM      6  C   UNL     1      36.952  -0.563  12.763  0.00  0.00    +0.000 A 
ENDROOT
BRANCH   1   7
ATOM      7  C   UNL     1      35.996   1.385  11.459  0.00  0.00    +0.000 C 
BRANCH   7  16
ATOM      8  C   UNL     1      37.331  -2.120   9.059  0.00  0.00    +0.000 C 
ATOM      9  C   UNL     1      36.905  -1.214   7.957  0.00  0.00    +0.000 A 
ATOM     10  C   UNL     1      36.724  -1.528   6.621  0.00  0.00    +0.000 A 
ATOM     11  C   UNL     1      36.468  -0.333   5.919  0.00  0.00    +0.000 A 
ATOM     12  C   UNL     1      36.532   0.688   6.833  0.00  0.00    +0.000 A 
ATOM     13  N   UNL     1      36.760   0.168   8.099  0.00  0.00    +0.000 N 
ATOM     14  C   UNL     1      36.888   0.970   9.254  0.00  0.00    +0.000 C 
ATOM     15  O   UNL     1      37.507   2.024   9.193  0.00  0.00    +0.000 OA
ATOM     16  N   UNL     1      36.134   0.512  10.313  0.00  0.00    +0.000 N 
ATOM     17  H   UNL     1      35.381  -0.136  10.113  0.00  0.00    +0.000 HD
ENDBRANCH   7  16
ENDBRANCH   1   7
BRANCH   4  18
ATOM     18  C   UNL     1      38.027  -0.987  16.400  0.00  0.00    +0.000 C 
BRANCH  18  19
ATOM     19  N   UNL     1      38.847  -2.144  16.136  0.00  0.00    +0.000 N 
ATOM     20  C   UNL     1      40.209  -2.024  15.993  0.00  0.00    +0.000 C 
ATOM     21  O   UNL     1      40.762  -0.930  15.931  0.00  0.00    +0.000 OA
ATOM     22  H   UNL     1      38.449  -3.048  16.363  0.00  0.00    +0.000 HD
BRANCH  20  23
ATOM     23  C   UNL     1      40.973  -3.272  15.902  0.00  0.00    +0.000 A 
ATOM     24  C   UNL     1      41.466  -3.873  17.053  0.00  0.00    +0.000 A 
ATOM     25  S   UNL     1      42.266  -5.350  16.764  0.00  0.00    +0.000 S 
ATOM     26  C   UNL     1      41.922  -5.275  15.100  0.00  0.00    +0.000 A 
ATOM     27  N   UNL     1      42.247  -6.301  14.269  0.00  0.00    +0.000 NA
ATOM     28  C   UNL     1      41.899  -6.124  13.038  0.00  0.00    +0.000 A 
ATOM     29  N   UNL     1      41.286  -4.994  12.557  0.00  0.00    +0.000 N 
ATOM     30  C   UNL     1      40.991  -3.912  13.351  0.00  0.00    +0.000 A 
ATOM     31  O   UNL     1      40.538  -2.874  12.869  0.00  0.00    +0.000 OA
ATOM     32  C   UNL     1      41.288  -4.093  14.755  0.00  0.00    +0.000 A 
ATOM     33  H   UNL     1      41.081  -4.899  11.572  0.00  0.00    +0.000 HD
ENDBRANCH  20  23
ENDBRANCH  18  19
ENDBRANCH   4  18
TORSDOF 5
ENDMDL
