MODEL 1
REMARK VINA RESULT:    -7.128      0.000      0.000
REMARK INTER + INTRA:         -10.398
REMARK INTER:                  -9.628
REMARK INTRA:                  -0.770
REMARK UNBOUND:                -0.770
REMARK  Name = 
REMARK  6 active torsions:
REMARK  status: ('A' for Active; 'I' for Inactive)
REMARK    1  A    between atoms: C_5  and  N_6
REMARK    2  A    between atoms: N_6  and  C_7
REMARK    3  A    between atoms: C_7  and  C_8
REMARK    4  A    between atoms: C_8  and  C_9
REMARK    5  A    between atoms: C_16  and  O_17
REMARK    6  A    between atoms: O_17  and  C_18
REMARK                            x       y       z     vdW  Elec       q    Type
REMARK                         _______ _______ _______ _____ _____    ______ ____
ROOT
ATOM      1 CL   UNL     1      47.147   7.413  13.245  0.00  0.00    +0.000 Cl
ATOM      2  C   UNL     1      46.354   6.059  12.527  0.00  0.00    +0.000 A 
ATOM      3  C   UNL     1      46.057   6.195  11.168  0.00  0.00    +0.000 A 
ATOM      4  C   UNL     1      45.320   5.217  10.494  0.00  0.00    +0.000 A 
ATOM      5  C   UNL     1      44.879   4.062  11.148  0.00  0.00    +0.000 A 
ATOM      6  C   UNL     1      45.193   3.938  12.512  0.00  0.00    +0.000 A 
ATOM      7  C   UNL     1      45.951   4.909  13.208  0.00  0.00    +0.000 A 
ENDROOT
BRANCH   5   8
ATOM      8  N   UNL     1      44.018   3.126  10.535  0.00  0.00    +0.000 N 
ATOM      9  H   UNL     1      43.883   2.299  11.112  0.00  0.00    +0.000 HD
BRANCH   8  10
ATOM     10  C   UNL     1      44.280   2.827   9.130  0.00  0.00    +0.000 C 
BRANCH  10  11
ATOM     11  C   UNL     1      45.326   1.727   8.958  0.00  0.00    +0.000 C 
BRANCH  11  12
ATOM     12  C   UNL     1      46.469   2.166   8.016  0.00  0.00    +0.000 C 
ATOM     13  C   UNL     1      45.974   3.210   7.007  0.00  0.00    +0.000 C 
ATOM     14  C   UNL     1      47.082   3.591   6.030  0.00  0.00    +0.000 C 
ATOM     15  C   UNL     1      47.691   2.346   5.398  0.00  0.00    +0.000 C 
ATOM     16  O   UNL     1      48.171   1.463   6.408  0.00  0.00    +0.000 OA
ATOM     17  C   UNL     1      47.129   0.999   7.265  0.00  0.00    +0.000 C 
ENDBRANCH  11  12
ENDBRANCH  10  11
ENDBRANCH   8  10
ENDBRANCH   5   8
BRANCH   7  18
ATOM     18  O   UNL     1      46.112   4.591  14.541  0.00  0.00    +0.000 OA
BRANCH  18  19
ATOM     19  C   UNL     1      47.399   4.240  15.095  0.00  0.00    +0.000 C 
ATOM     20  C   UNL     1      47.463   3.455  16.413  0.00  0.00    +0.000 C 
ATOM     21  O   UNL     1      48.237   4.491  17.061  0.00  0.00    +0.000 OA
ATOM     22  C   UNL     1      48.076   5.352  15.913  0.00  0.00    +0.000 C 
ENDBRANCH  18  19
ENDBRANCH   7  18
TORSDOF 6
ENDMDL
MODEL 2
REMARK VINA RESULT:    -6.911      2.091      3.274
REMARK INTER + INTRA:         -10.105
REMARK INTER:                  -9.423
REMARK INTRA:                  -0.683
REMARK UNBOUND:                -0.770
REMARK  Name = 
REMARK  6 active torsions:
REMARK  status: ('A' for Active; 'I' for Inactive)
REMARK    1  A    between atoms: C_5  and  N_6
REMARK    2  A    between atoms: N_6  and  C_7
REMARK    3  A    between atoms: C_7  and  C_8
REMARK    4  A    between atoms: C_8  and  C_9
REMARK    5  A    between atoms: C_16  and  O_17
REMARK    6  A    between atoms: O_17  and  C_18
REMARK                            x       y       z     vdW  Elec       q    Type
REMARK                         _______ _______ _______ _____ _____    ______ ____
ROOT
ATOM      1 CL   UNL     1      47.914   6.154  14.368  0.00  0.00    +0.000 Cl
ATOM      2  C   UNL     1      46.623   5.366  13.537  0.00  0.00    +0.000 A 
ATOM      3  C   UNL     1      46.774   3.986  13.374  0.00  0.00    +0.000 A 
ATOM      4  C   UNL     1      45.854   3.247  12.625  0.00  0.00    +0.000 A 
ATOM      5  C   UNL     1      44.742   3.857  12.036  0.00  0.00    +0.000 A 
ATOM      6  C   UNL     1      44.602   5.244  12.215  0.00  0.00    +0.000 A 
ATOM      7  C   UNL     1      45.513   6.007  12.983  0.00  0.00    +0.000 A 
ENDROOT
BRANCH   5   8
ATOM      8  N   UNL     1      43.874   3.169  11.162  0.00  0.00    +0.000 N 
ATOM      9  H   UNL     1      43.679   2.224  11.485  0.00  0.00    +0.000 HD
BRANCH   8  10
ATOM     10  C   UNL     1      44.189   3.251   9.738  0.00  0.00    +0.000 C 
BRANCH  10  11
ATOM     11  C   UNL     1      44.795   1.954   9.204  0.00  0.00    +0.000 C 
BRANCH  11  12
ATOM     12  C   UNL     1      46.088   2.215   8.399  0.00  0.00    +0.000 C 
ATOM     13  C   UNL     1      45.846   3.260   7.302  0.00  0.00    +0.000 C 
ATOM     14  C   UNL     1      47.102   3.464   6.460  0.00  0.00    +0.000 C 
ATOM     15  C   UNL     1      47.630   2.129   5.951  0.00  0.00    +0.000 C 
ATOM     16  O   UNL     1      47.876   1.246   7.041  0.00  0.00    +0.000 OA
ATOM     17  C   UNL     1      46.689   0.945   7.775  0.00  0.00    +0.000 C 
ENDBRANCH  11  12
ENDBRANCH  10  11
ENDBRANCH   8  10
ENDBRANCH   5   8
BRANCH   7  18
ATOM     18  O   UNL     1      45.191   7.348  12.998  0.00  0.00    +0.000 OA
BRANCH  18  19
ATOM     19  C   UNL     1      45.741   8.279  12.039  0.00  0.00    +0.000 C 
ATOM     20  C   UNL     1      46.952   9.138  12.432  0.00  0.00    +0.000 C 
ATOM     21  O   UNL     1      46.234  10.368  12.180  0.00  0.00    +0.000 OA
ATOM     22  C   UNL     1      45.013   9.630  11.959  0.00  0.00    +0.000 C 
ENDBRANCH  18  19
ENDBRANCH   7  18
TORSDOF 6
ENDMDL
MODEL 3
REMARK VINA RESULT:    -6.837      1.513      2.009
REMARK INTER + INTRA:         -10.005
REMARK INTER:                  -9.059
REMARK INTRA:                  -0.946
REMARK UNBOUND:                -0.770
REMARK  Name = 
REMARK  6 active torsions:
REMARK  status: ('A' for Active; 'I' for Inactive)
REMARK    1  A    between atoms: C_5  and  N_6
REMARK    2  A    between atoms: N_6  and  C_7
REMARK    3  A    between atoms: C_7  and  C_8
REMARK    4  A    between atoms: C_8  and  C_9
REMARK    5  A    between atoms: C_16  and  O_17
REMARK    6  A    between atoms: O_17  and  C_18
REMARK                            x       y       z     vdW  Elec       q    Type
REMARK                         _______ _______ _______ _____ _____    ______ ____
ROOT
ATOM      1 CL   UNL     1      49.396   7.395  13.214  0.00  0.00    +0.000 Cl
ATOM      2  C   UNL     1      47.930   6.518  12.972  0.00  0.00    +0.000 A 
ATOM      3  C   UNL     1      47.204   6.876  11.832  0.00  0.00    +0.000 A 
ATOM      4  C   UNL     1      45.947   6.320  11.578  0.00  0.00    +0.000 A 
ATOM      5  C   UNL     1      45.386   5.372  12.440  0.00  0.00    +0.000 A 
ATOM      6  C   UNL     1      46.132   5.019  13.578  0.00  0.00    +0.000 A 
ATOM      7  C   UNL     1      47.413   5.559  13.844  0.00  0.00    +0.000 A 
ENDROOT
BRANCH   5   8
ATOM      8  N   UNL     1      44.066   4.897  12.289  0.00  0.00    +0.000 N 
ATOM      9  H   UNL     1      43.813   4.235  13.019  0.00  0.00    +0.000 HD
BRANCH   8  10
ATOM     10  C   UNL     1      43.680   4.469  10.947  0.00  0.00    +0.000 C 
BRANCH  10  11
ATOM     11  C   UNL     1      44.131   3.042  10.643  0.00  0.00    +0.000 C 
BRANCH  11  12
ATOM     12  C   UNL     1      45.297   3.012   9.629  0.00  0.00    +0.000 C 
ATOM     13  C   UNL     1      45.248   4.239   8.708  0.00  0.00    +0.000 C 
ATOM     14  C   UNL     1      46.354   4.175   7.659  0.00  0.00    +0.000 C 
ATOM     15  C   UNL     1      46.323   2.840   6.928  0.00  0.00    +0.000 C 
ATOM     16  O   UNL     1      46.428   1.765   7.857  0.00  0.00    +0.000 OA
ATOM     17  C   UNL     1      45.338   1.734   8.778  0.00  0.00    +0.000 C 
ENDBRANCH  11  12
ENDBRANCH  10  11
ENDBRANCH   8  10
ENDBRANCH   5   8
BRANCH   7  18
ATOM     18  O   UNL     1      47.943   5.089  15.027  0.00  0.00    +0.000 OA
BRANCH  18  19
ATOM     19  C   UNL     1      47.224   4.170  15.878  0.00  0.00    +0.000 C 
ATOM     20  C   UNL     1      47.209   4.402  17.396  0.00  0.00    +0.000 C 
ATOM     21  O   UNL     1      47.797   3.107  17.659  0.00  0.00    +0.000 OA
ATOM     22  C   UNL     1      47.994   2.890  16.245  0.00  0.00    +0.000 C 
ENDBRANCH  18  19
ENDBRANCH   7  18
TORSDOF 6
ENDMDL
MODEL 4
REMARK VINA RESULT:    -6.508      1.974      2.491
REMARK INTER + INTRA:          -9.561
REMARK INTER:                  -9.023
REMARK INTRA:                  -0.538
REMARK UNBOUND:                -0.770
REMARK  Name = 
REMARK  6 active torsions:
REMARK  status: ('A' for Active; 'I' for Inactive)
REMARK    1  A    between atoms: C_5  and  N_6
REMARK    2  A    between atoms: N_6  and  C_7
REMARK    3  A    between atoms: C_7  and  C_8
REMARK    4  A    between atoms: C_8  and  C_9
REMARK    5  A    between atoms: C_16  and  O_17
REMARK    6  A    between atoms: O_17  and  C_18
REMARK                            x       y       z     vdW  Elec       q    Type
REMARK                         _______ _______ _______ _____ _____    ______ ____
ROOT
ATOM      1 CL   UNL     1      45.298   8.911  12.910  0.00  0.00    +0.000 Cl
ATOM      2  C   UNL     1      45.185   7.298  12.307  0.00  0.00    +0.000 A 
ATOM      3  C   UNL     1      44.086   7.048  11.480  0.00  0.00    +0.000 A 
ATOM      4  C   UNL     1      43.819   5.757  11.014  0.00  0.00    +0.000 A 
ATOM      5  C   UNL     1      44.652   4.682  11.339  0.00  0.00    +0.000 A 
ATOM      6  C   UNL     1      45.756   4.952  12.165  0.00  0.00    +0.000 A 
ATOM      7  C   UNL     1      46.053   6.255  12.633  0.00  0.00    +0.000 A 
ENDROOT
BRANCH   5   8
ATOM      8  N   UNL     1      44.335   3.349  11.002  0.00  0.00    +0.000 N 
ATOM      9  H   UNL     1      44.913   2.681  11.507  0.00  0.00    +0.000 HD
BRANCH   8  10
ATOM     10  C   UNL     1      44.201   3.053   9.578  0.00  0.00    +0.000 C 
BRANCH  10  11
ATOM     11  C   UNL     1      44.976   1.802   9.171  0.00  0.00    +0.000 C 
BRANCH  11  12
ATOM     12  C   UNL     1      46.213   2.148   8.312  0.00  0.00    +0.000 C 
ATOM     13  C   UNL     1      45.863   3.203   7.254  0.00  0.00    +0.000 C 
ATOM     14  C   UNL     1      47.064   3.492   6.358  0.00  0.00    +0.000 C 
ATOM     15  C   UNL     1      47.634   2.199   5.791  0.00  0.00    +0.000 C 
ATOM     16  O   UNL     1      47.978   1.305   6.846  0.00  0.00    +0.000 OA
ATOM     17  C   UNL     1      46.847   0.926   7.628  0.00  0.00    +0.000 C 
ENDBRANCH  11  12
ENDBRANCH  10  11
ENDBRANCH   8  10
ENDBRANCH   5   8
BRANCH   7  18
ATOM     18  O   UNL     1      47.165   6.277  13.449  0.00  0.00    +0.000 OA
BRANCH  18  19
ATOM     19  C   UNL     1      48.479   6.606  12.945  0.00  0.00    +0.000 C 
ATOM     20  C   UNL     1      49.267   7.754  13.591  0.00  0.00    +0.000 C 
ATOM     21  O   UNL     1      49.362   8.471  12.338  0.00  0.00    +0.000 OA
ATOM     22  C   UNL     1      48.487   7.514  11.704  0.00  0.00    +0.000 C 
ENDBRANCH  18  19
ENDBRANCH   7  18
TORSDOF 6
ENDMDL
MODEL 5
REMARK VINA RESULT:    -6.297      2.674      3.463
REMARK INTER + INTRA:          -9.276
REMARK INTER:                  -8.631
REMARK INTRA:                  -0.645
REMARK UNBOUND:                -0.770
REMARK  Name = 
REMARK  6 active torsions:
REMARK  status: ('A' for Active; 'I' for Inactive)
REMARK    1  A    between atoms: C_5  and  N_6
REMARK    2  A    between atoms: N_6  and  C_7
REMARK    3  A    between atoms: C_7  and  C_8
REMARK    4  A    between atoms: C_8  and  C_9
REMARK    5  A    between atoms: C_16  and  O_17
REMARK    6  A    between atoms: O_17  and  C_18
REMARK                            x       y       z     vdW  Elec       q    Type
REMARK                         _______ _______ _______ _____ _____    ______ ____
ROOT
ATOM      1 CL   UNL     1      48.098   5.844  14.950  0.00  0.00    +0.000 Cl
ATOM      2  C   UNL     1      46.908   5.926  13.703  0.00  0.00    +0.000 A 
ATOM      3  C   UNL     1      46.046   4.828  13.629  0.00  0.00    +0.000 A 
ATOM      4  C   UNL     1      45.109   4.720  12.597  0.00  0.00    +0.000 A 
ATOM      5  C   UNL     1      44.987   5.715  11.622  0.00  0.00    +0.000 A 
ATOM      6  C   UNL     1      45.856   6.815  11.715  0.00  0.00    +0.000 A 
ATOM      7  C   UNL     1      46.800   6.950  12.761  0.00  0.00    +0.000 A 
ENDROOT
BRANCH   5   8
ATOM      8  N   UNL     1      44.152   5.571  10.494  0.00  0.00    +0.000 N 
ATOM      9  H   UNL     1      43.253   6.030  10.624  0.00  0.00    +0.000 HD
BRANCH   8  10
ATOM     10  C   UNL     1      44.051   4.229   9.928  0.00  0.00    +0.000 C 
BRANCH  10  11
ATOM     11  C   UNL     1      44.523   4.175   8.477  0.00  0.00    +0.000 C 
BRANCH  11  12
ATOM     12  C   UNL     1      45.716   3.208   8.298  0.00  0.00    +0.000 C 
ATOM     13  C   UNL     1      46.374   3.403   6.925  0.00  0.00    +0.000 C 
ATOM     14  C   UNL     1      47.504   2.400   6.718  0.00  0.00    +0.000 C 
ATOM     15  C   UNL     1      47.020   0.981   6.987  0.00  0.00    +0.000 C 
ATOM     16  O   UNL     1      46.477   0.885   8.301  0.00  0.00    +0.000 OA
ATOM     17  C   UNL     1      45.341   1.730   8.483  0.00  0.00    +0.000 C 
ENDBRANCH  11  12
ENDBRANCH  10  11
ENDBRANCH   8  10
ENDBRANCH   5   8
BRANCH   7  18
ATOM     18  O   UNL     1      47.562   8.094  12.634  0.00  0.00    +0.000 OA
BRANCH  18  19
ATOM     19  C   UNL     1      48.837   8.093  11.954  0.00  0.00    +0.000 C 
ATOM     20  C   UNL     1      50.131   8.090  12.779  0.00  0.00    +0.000 C 
ATOM     21  O   UNL     1      50.588   9.323  12.177  0.00  0.00    +0.000 OA
ATOM     22  C   UNL     1      49.325   9.477  11.494  0.00  0.00    +0.000 C 
ENDBRANCH  18  19
ENDBRANCH   7  18
TORSDOF 6
ENDMDL
MODEL 6
REMARK VINA RESULT:    -5.754      3.244      4.805
REMARK INTER + INTRA:          -8.543
REMARK INTER:                  -7.823
REMARK INTRA:                  -0.720
REMARK UNBOUND:                -0.770
REMARK  Name = 
REMARK  6 active torsions:
REMARK  status: ('A' for Active; 'I' for Inactive)
REMARK    1  A    between atoms: C_5  and  N_6
REMARK    2  A    between atoms: N_6  and  C_7
REMARK    3  A    between atoms: C_7  and  C_8
REMARK    4  A    between atoms: C_8  and  C_9
REMARK    5  A    between atoms: C_16  and  O_17
REMARK    6  A    between atoms: O_17  and  C_18
REMARK                            x       y       z     vdW  Elec       q    Type
REMARK                         _______ _______ _______ _____ _____    ______ ____
ROOT
ATOM      1 CL   UNL     1      48.522   8.714  12.425  0.00  0.00    +0.000 Cl
ATOM      2  C   UNL     1      47.118   7.710  12.425  0.00  0.00    +0.000 A 
ATOM      3  C   UNL     1      47.310   6.418  12.924  0.00  0.00    +0.000 A 
ATOM      4  C   UNL     1      46.283   5.471  12.879  0.00  0.00    +0.000 A 
ATOM      5  C   UNL     1      45.025   5.791  12.358  0.00  0.00    +0.000 A 
ATOM      6  C   UNL     1      44.847   7.095  11.867  0.00  0.00    +0.000 A 
ATOM      7  C   UNL     1      45.869   8.073  11.919  0.00  0.00    +0.000 A 
ENDROOT
BRANCH   5   8
ATOM      8  N   UNL     1      44.014   4.824  12.170  0.00  0.00    +0.000 N 
ATOM      9  H   UNL     1      44.175   3.992  12.733  0.00  0.00    +0.000 HD
BRANCH   8  10
ATOM     10  C   UNL     1      43.640   4.537  10.788  0.00  0.00    +0.000 C 
BRANCH  10  11
ATOM     11  C   UNL     1      44.088   3.146  10.344  0.00  0.00    +0.000 C 
BRANCH  11  12
ATOM     12  C   UNL     1      44.757   3.177   8.952  0.00  0.00    +0.000 C 
ATOM     13  C   UNL     1      45.665   1.955   8.756  0.00  0.00    +0.000 C 
ATOM     14  C   UNL     1      46.383   2.021   7.412  0.00  0.00    +0.000 C 
ATOM     15  C   UNL     1      47.088   3.361   7.245  0.00  0.00    +0.000 C 
ATOM     16  O   UNL     1      46.158   4.430   7.389  0.00  0.00    +0.000 OA
ATOM     17  C   UNL     1      45.559   4.460   8.684  0.00  0.00    +0.000 C 
ENDBRANCH  11  12
ENDBRANCH  10  11
ENDBRANCH   8  10
ENDBRANCH   5   8
BRANCH   7  18
ATOM     18  O   UNL     1      45.478   9.270  11.356  0.00  0.00    +0.000 OA
BRANCH  18  19
ATOM     19  C   UNL     1      44.127   9.768  11.476  0.00  0.00    +0.000 C 
ATOM     20  C   UNL     1      43.290   9.987  10.207  0.00  0.00    +0.000 C 
ATOM     21  O   UNL     1      43.099  11.390  10.504  0.00  0.00    +0.000 OA
ATOM     22  C   UNL     1      44.011  11.295  11.620  0.00  0.00    +0.000 C 
ENDBRANCH  18  19
ENDBRANCH   7  18
TORSDOF 6
ENDMDL
MODEL 7
REMARK VINA RESULT:    -5.470      4.203      8.135
REMARK INTER + INTRA:          -8.159
REMARK INTER:                  -7.595
REMARK INTRA:                  -0.564
REMARK UNBOUND:                -0.770
REMARK  Name = 
REMARK  6 active torsions:
REMARK  status: ('A' for Active; 'I' for Inactive)
REMARK    1  A    between atoms: C_5  and  N_6
REMARK    2  A    between atoms: N_6  and  C_7
REMARK    3  A    between atoms: C_7  and  C_8
REMARK    4  A    between atoms: C_8  and  C_9
REMARK    5  A    between atoms: C_16  and  O_17
REMARK    6  A    between atoms: O_17  and  C_18
REMARK                            x       y       z     vdW  Elec       q    Type
REMARK                         _______ _______ _______ _____ _____    ______ ____
ROOT
ATOM      1 CL   UNL     1      46.000   5.854  10.478  0.00  0.00    +0.000 Cl
ATOM      2  C   UNL     1      46.366   5.595  12.145  0.00  0.00    +0.000 A 
ATOM      3  C   UNL     1      47.283   6.492  12.699  0.00  0.00    +0.000 A 
ATOM      4  C   UNL     1      47.747   6.326  14.008  0.00  0.00    +0.000 A 
ATOM      5  C   UNL     1      47.291   5.276  14.811  0.00  0.00    +0.000 A 
ATOM      6  C   UNL     1      46.364   4.388  14.240  0.00  0.00    +0.000 A 
ATOM      7  C   UNL     1      45.871   4.548  12.923  0.00  0.00    +0.000 A 
ENDROOT
BRANCH   5   8
ATOM      8  N   UNL     1      47.840   5.000  16.081  0.00  0.00    +0.000 N 
ATOM      9  H   UNL     1      48.843   4.836  16.035  0.00  0.00    +0.000 HD
BRANCH   8  10
ATOM     10  C   UNL     1      47.122   4.029  16.901  0.00  0.00    +0.000 C 
BRANCH  10  11
ATOM     11  C   UNL     1      48.029   3.357  17.931  0.00  0.00    +0.000 C 
BRANCH  11  12
ATOM     12  C   UNL     1      49.471   3.908  17.871  0.00  0.00    +0.000 C 
ATOM     13  C   UNL     1      50.476   2.778  17.609  0.00  0.00    +0.000 C 
ATOM     14  C   UNL     1      51.906   3.309  17.622  0.00  0.00    +0.000 C 
ATOM     15  C   UNL     1      52.171   4.104  18.894  0.00  0.00    +0.000 C 
ATOM     16  O   UNL     1      51.225   5.161  19.024  0.00  0.00    +0.000 OA
ATOM     17  C   UNL     1      49.886   4.681  19.133  0.00  0.00    +0.000 C 
ENDBRANCH  11  12
ENDBRANCH  10  11
ENDBRANCH   8  10
ENDBRANCH   5   8
BRANCH   7  18
ATOM     18  O   UNL     1      44.993   3.544  12.567  0.00  0.00    +0.000 OA
BRANCH  18  19
ATOM     19  C   UNL     1      43.567   3.763  12.494  0.00  0.00    +0.000 C 
ATOM     20  C   UNL     1      42.957   4.326  11.203  0.00  0.00    +0.000 C 
ATOM     21  O   UNL     1      42.402   5.469  11.894  0.00  0.00    +0.000 OA
ATOM     22  C   UNL     1      43.084   5.087  13.108  0.00  0.00    +0.000 C 
ENDBRANCH  18  19
ENDBRANCH   7  18
TORSDOF 6
ENDMDL
MODEL 8
REMARK VINA RESULT:    -5.422      2.226      3.337
REMARK INTER + INTRA:          -8.094
REMARK INTER:                  -7.441
REMARK INTRA:                  -0.653
REMARK UNBOUND:                -0.770
REMARK  Name = 
REMARK  6 active torsions:
REMARK  status: ('A' for Active; 'I' for Inactive)
REMARK    1  A    between atoms: C_5  and  N_6
REMARK    2  A    between atoms: N_6  and  C_7
REMARK    3  A    between atoms: C_7  and  C_8
REMARK    4  A    between atoms: C_8  and  C_9
REMARK    5  A    between atoms: C_16  and  O_17
REMARK    6  A    between atoms: O_17  and  C_18
REMARK                            x       y       z     vdW  Elec       q    Type
REMARK                         _______ _______ _______ _____ _____    ______ ____
ROOT
ATOM      1 CL   UNL     1      50.606   8.020  12.615  0.00  0.00    +0.000 Cl
ATOM      2  C   UNL     1      49.032   7.327  12.761  0.00  0.00    +0.000 A 
ATOM      3  C   UNL     1      48.158   7.608  11.707  0.00  0.00    +0.000 A 
ATOM      4  C   UNL     1      46.822   7.199  11.755  0.00  0.00    +0.000 A 
ATOM      5  C   UNL     1      46.324   6.477  12.843  0.00  0.00    +0.000 A 
ATOM      6  C   UNL     1      47.217   6.197  13.891  0.00  0.00    +0.000 A 
ATOM      7  C   UNL     1      48.577   6.588  13.854  0.00  0.00    +0.000 A 
ENDROOT
BRANCH   5   8
ATOM      8  N   UNL     1      44.953   6.171  12.987  0.00  0.00    +0.000 N 
ATOM      9  H   UNL     1      44.789   5.499  13.733  0.00  0.00    +0.000 HD
BRANCH   8  10
ATOM     10  C   UNL     1      44.223   5.875  11.758  0.00  0.00    +0.000 C 
BRANCH  10  11
ATOM     11  C   UNL     1      44.178   4.378  11.457  0.00  0.00    +0.000 C 
BRANCH  11  12
ATOM     12  C   UNL     1      44.418   4.087   9.959  0.00  0.00    +0.000 C 
ATOM     13  C   UNL     1      44.731   2.601   9.736  0.00  0.00    +0.000 C 
ATOM     14  C   UNL     1      45.041   2.326   8.267  0.00  0.00    +0.000 C 
ATOM     15  C   UNL     1      46.115   3.277   7.758  0.00  0.00    +0.000 C 
ATOM     16  O   UNL     1      45.714   4.629   7.958  0.00  0.00    +0.000 OA
ATOM     17  C   UNL     1      45.532   4.945   9.338  0.00  0.00    +0.000 C 
ENDBRANCH  11  12
ENDBRANCH  10  11
ENDBRANCH   8  10
ENDBRANCH   5   8
BRANCH   7  18
ATOM     18  O   UNL     1      49.256   6.231  15.001  0.00  0.00    +0.000 OA
BRANCH  18  19
ATOM     19  C   UNL     1      48.587   6.083  16.273  0.00  0.00    +0.000 C 
ATOM     20  C   UNL     1      49.316   6.496  17.559  0.00  0.00    +0.000 C 
ATOM     21  O   UNL     1      49.198   5.169  18.122  0.00  0.00    +0.000 OA
ATOM     22  C   UNL     1      48.657   4.671  16.879  0.00  0.00    +0.000 C 
ENDBRANCH  18  19
ENDBRANCH   7  18
TORSDOF 6
ENDMDL
MODEL 9
REMARK VINA RESULT:    -5.329      4.000      7.487
REMARK INTER + INTRA:          -7.968
REMARK INTER:                  -7.072
REMARK INTRA:                  -0.896
REMARK UNBOUND:                -0.770
REMARK  Name = 
REMARK  6 active torsions:
REMARK  status: ('A' for Active; 'I' for Inactive)
REMARK    1  A    between atoms: C_5  and  N_6
REMARK    2  A    between atoms: N_6  and  C_7
REMARK    3  A    between atoms: C_7  and  C_8
REMARK    4  A    between atoms: C_8  and  C_9
REMARK    5  A    between atoms: C_16  and  O_17
REMARK    6  A    between atoms: O_17  and  C_18
REMARK                            x       y       z     vdW  Elec       q    Type
REMARK                         _______ _______ _______ _____ _____    ______ ____
ROOT
ATOM      1 CL   UNL     1      44.401   8.443  11.139  0.00  0.00    +0.000 Cl
ATOM      2  C   UNL     1      45.669   7.907  12.180  0.00  0.00    +0.000 A 
ATOM      3  C   UNL     1      46.181   8.879  13.044  0.00  0.00    +0.000 A 
ATOM      4  C   UNL     1      47.282   8.605  13.861  0.00  0.00    +0.000 A 
ATOM      5  C   UNL     1      47.890   7.346  13.857  0.00  0.00    +0.000 A 
ATOM      6  C   UNL     1      47.359   6.378  12.988  0.00  0.00    +0.000 A 
ATOM      7  C   UNL     1      46.236   6.632  12.166  0.00  0.00    +0.000 A 
ENDROOT
BRANCH   5   8
ATOM      8  N   UNL     1      49.084   7.079  14.562  0.00  0.00    +0.000 N 
ATOM      9  H   UNL     1      49.273   6.082  14.626  0.00  0.00    +0.000 HD
BRANCH   8  10
ATOM     10  C   UNL     1      49.267   7.795  15.822  0.00  0.00    +0.000 C 
BRANCH  10  11
ATOM     11  C   UNL     1      49.037   6.898  17.036  0.00  0.00    +0.000 C 
BRANCH  11  12
ATOM     12  C   UNL     1      49.123   5.400  16.668  0.00  0.00    +0.000 C 
ATOM     13  C   UNL     1      47.791   4.692  16.949  0.00  0.00    +0.000 C 
ATOM     14  C   UNL     1      47.897   3.199  16.655  0.00  0.00    +0.000 C 
ATOM     15  C   UNL     1      49.094   2.594  17.375  0.00  0.00    +0.000 C 
ATOM     16  O   UNL     1      50.289   3.279  17.010  0.00  0.00    +0.000 OA
ATOM     17  C   UNL     1      50.261   4.656  17.384  0.00  0.00    +0.000 C 
ENDBRANCH  11  12
ENDBRANCH  10  11
ENDBRANCH   8  10
ENDBRANCH   5   8
BRANCH   7  18
ATOM     18  O   UNL     1      45.909   5.548  11.377  0.00  0.00    +0.000 OA
BRANCH  18  19
ATOM     19  C   UNL     1      44.687   4.800  11.570  0.00  0.00    +0.000 C 
ATOM     20  C   UNL     1      43.907   4.958  12.883  0.00  0.00    +0.000 C 
ATOM     21  O   UNL     1      44.006   3.546  13.180  0.00  0.00    +0.000 OA
ATOM     22  C   UNL     1      44.884   3.353  12.050  0.00  0.00    +0.000 C 
ENDBRANCH  18  19
ENDBRANCH   7  18
TORSDOF 6
ENDMDL
