MODEL 1
REMARK VINA RESULT:    -8.112      0.000      0.000
REMARK INTER + INTRA:         -12.773
REMARK INTER:                 -11.906
REMARK INTRA:                  -0.867
REMARK UNBOUND:                -0.867
REMARK  Name = 
REMARK  9 active torsions:
REMARK  status: ('A' for Active; 'I' for Inactive)
REMARK    1  A    between atoms: C_1  and  O_2
REMARK    2  A    between atoms: O_2  and  C_3
REMARK    3  A    between atoms: C_8  and  C_9
REMARK    4  A    between atoms: C_9  and  N_10
REMARK    5  A    between atoms: N_10  and  C_11
REMARK    6  A    between atoms: C_11  and  C_12
REMARK    7  A    between atoms: C_15  and  C_16
REMARK    8  A    between atoms: C_16  and  N_17
REMARK    9  A    between atoms: C_18  and  C_20
REMARK                            x       y       z     vdW  Elec       q    Type
REMARK                         _______ _______ _______ _____ _____    ______ ____
ROOT
ATOM      1  C   UNL     1      44.315   4.688  11.597  0.00  0.00    +0.000 A 
ATOM      2  C   UNL     1      44.002   6.037  11.440  0.00  0.00    +0.000 A 
ATOM      3  C   UNL     1      44.869   6.999  11.957  0.00  0.00    +0.000 A 
ATOM      4  C   UNL     1      46.032   6.600  12.617  0.00  0.00    +0.000 A 
ATOM      5  C   UNL     1      46.240   5.232  12.764  0.00  0.00    +0.000 A 
ATOM      6  N   UNL     1      45.420   4.275  12.269  0.00  0.00    +0.000 NA
ENDROOT
BRANCH   1   7
ATOM      7  C   UNL     1      43.433   3.618  10.975  0.00  0.00    +0.000 C 
BRANCH   7   8
ATOM      8  N   UNL     1      43.836   3.214   9.617  0.00  0.00    +0.000 NA
ATOM      9  H   UNL     1      43.036   2.777   9.158  0.00  0.00    +0.000 HD
BRANCH   8  10
ATOM     10  C   UNL     1      44.898   2.202   9.664  0.00  0.00    +0.000 C 
BRANCH  10  16
ATOM     11  C   UNL     1      45.981   3.446   7.706  0.00  0.00    +0.000 A 
ATOM     12  C   UNL     1      46.730   3.409   6.523  0.00  0.00    +0.000 A 
ATOM     13  C   UNL     1      47.287   2.210   6.068  0.00  0.00    +0.000 A 
ATOM     14  C   UNL     1      47.122   1.042   6.802  0.00  0.00    +0.000 A 
ATOM     15  C   UNL     1      46.375   1.066   7.979  0.00  0.00    +0.000 A 
ATOM     16  C   UNL     1      45.775   2.257   8.430  0.00  0.00    +0.000 A 
BRANCH  11  18
ATOM     17  C   UNL     1      46.359   5.521   8.808  0.00  0.00    +0.000 C 
ATOM     18  O   UNL     1      45.445   4.588   8.243  0.00  0.00    +0.000 OA
ENDBRANCH  11  18
ENDBRANCH  10  16
ENDBRANCH   8  10
ENDBRANCH   7   8
ENDBRANCH   1   7
BRANCH   4  19
ATOM     19  C   UNL     1      46.999   7.594  13.189  0.00  0.00    +0.000 C 
BRANCH  19  20
ATOM     20  N   UNL     1      47.453   7.175  14.488  0.00  0.00    +0.000 N 
ATOM     21  C   UNL     1      48.766   6.866  14.736  0.00  0.00    +0.000 C 
ATOM     22  O   UNL     1      49.639   6.993  13.884  0.00  0.00    +0.000 OA
ATOM     23  H   UNL     1      46.742   6.847  15.134  0.00  0.00    +0.000 HD
BRANCH  21  24
ATOM     24  C   UNL     1      49.078   6.433  16.105  0.00  0.00    +0.000 A 
ATOM     25  C   UNL     1      49.845   7.243  16.930  0.00  0.00    +0.000 A 
ATOM     26  S   UNL     1      50.041   6.621  18.507  0.00  0.00    +0.000 S 
ATOM     27  C   UNL     1      49.159   5.217  18.124  0.00  0.00    +0.000 A 
ATOM     28  N   UNL     1      48.960   4.239  19.047  0.00  0.00    +0.000 NA
ATOM     29  C   UNL     1      48.299   3.219  18.610  0.00  0.00    +0.000 A 
ATOM     30  N   UNL     1      47.817   3.088  17.336  0.00  0.00    +0.000 N 
ATOM     31  C   UNL     1      47.971   4.060  16.379  0.00  0.00    +0.000 A 
ATOM     32  O   UNL     1      47.497   3.927  15.252  0.00  0.00    +0.000 OA
ATOM     33  C   UNL     1      48.709   5.231  16.815  0.00  0.00    +0.000 A 
ATOM     34  H   UNL     1      47.303   2.266  17.055  0.00  0.00    +0.000 HD
ENDBRANCH  21  24
ENDBRANCH  19  20
ENDBRANCH   4  19
TORSDOF 8
ENDMDL
MODEL 2
REMARK VINA RESULT:    -7.781      1.940      2.438
REMARK INTER + INTRA:         -12.288
REMARK INTER:                 -11.309
REMARK INTRA:                  -0.979
REMARK UNBOUND:                -0.867
REMARK  Name = 
REMARK  9 active torsions:
REMARK  status: ('A' for Active; 'I' for Inactive)
REMARK    1  A    between atoms: C_1  and  O_2
REMARK    2  A    between atoms: O_2  and  C_3
REMARK    3  A    between atoms: C_8  and  C_9
REMARK    4  A    between atoms: C_9  and  N_10
REMARK    5  A    between atoms: N_10  and  C_11
REMARK    6  A    between atoms: C_11  and  C_12
REMARK    7  A    between atoms: C_15  and  C_16
REMARK    8  A    between atoms: C_16  and  N_17
REMARK    9  A    between atoms: C_18  and  C_20
REMARK                            x       y       z     vdW  Elec       q    Type
REMARK                         _______ _______ _______ _____ _____    ______ ____
ROOT
ATOM      1  C   UNL     1      45.080   4.484  12.130  0.00  0.00    +0.000 A 
ATOM      2  C   UNL     1      45.008   5.854  11.881  0.00  0.00    +0.000 A 
ATOM      3  C   UNL     1      45.942   6.701  12.472  0.00  0.00    +0.000 A 
ATOM      4  C   UNL     1      46.935   6.170  13.297  0.00  0.00    +0.000 A 
ATOM      5  C   UNL     1      46.904   4.798  13.523  0.00  0.00    +0.000 A 
ATOM      6  N   UNL     1      46.012   3.949  12.959  0.00  0.00    +0.000 NA
ENDROOT
BRANCH   1   7
ATOM      7  C   UNL     1      44.126   3.526  11.436  0.00  0.00    +0.000 C 
BRANCH   7   8
ATOM      8  N   UNL     1      44.789   2.424  10.718  0.00  0.00    +0.000 NA
ATOM      9  H   UNL     1      45.794   2.602  10.709  0.00  0.00    +0.000 HD
BRANCH   8  10
ATOM     10  C   UNL     1      44.358   2.376   9.316  0.00  0.00    +0.000 C 
BRANCH  10  16
ATOM     11  C   UNL     1      46.049   3.405   7.694  0.00  0.00    +0.000 A 
ATOM     12  C   UNL     1      47.085   3.234   6.766  0.00  0.00    +0.000 A 
ATOM     13  C   UNL     1      47.625   1.968   6.524  0.00  0.00    +0.000 A 
ATOM     14  C   UNL     1      47.153   0.864   7.224  0.00  0.00    +0.000 A 
ATOM     15  C   UNL     1      46.120   1.021   8.146  0.00  0.00    +0.000 A 
ATOM     16  C   UNL     1      45.539   2.283   8.372  0.00  0.00    +0.000 A 
BRANCH  11  18
ATOM     17  C   UNL     1      46.262   5.452   8.889  0.00  0.00    +0.000 C 
ATOM     18  O   UNL     1      45.501   4.618   8.021  0.00  0.00    +0.000 OA
ENDBRANCH  11  18
ENDBRANCH  10  16
ENDBRANCH   8  10
ENDBRANCH   7   8
ENDBRANCH   1   7
BRANCH   4  19
ATOM     19  C   UNL     1      47.967   7.038  13.955  0.00  0.00    +0.000 C 
BRANCH  19  20
ATOM     20  N   UNL     1      47.990   6.815  15.376  0.00  0.00    +0.000 N 
ATOM     21  C   UNL     1      49.143   6.488  16.043  0.00  0.00    +0.000 C 
ATOM     22  O   UNL     1      50.231   6.434  15.478  0.00  0.00    +0.000 OA
ATOM     23  H   UNL     1      47.097   6.630  15.822  0.00  0.00    +0.000 HD
BRANCH  21  24
ATOM     24  C   UNL     1      49.011   6.269  17.490  0.00  0.00    +0.000 A 
ATOM     25  C   UNL     1      49.414   5.064  18.047  0.00  0.00    +0.000 A 
ATOM     26  S   UNL     1      49.262   5.013  19.747  0.00  0.00    +0.000 S 
ATOM     27  C   UNL     1      48.595   6.577  19.790  0.00  0.00    +0.000 A 
ATOM     28  N   UNL     1      48.219   7.149  20.965  0.00  0.00    +0.000 NA
ATOM     29  C   UNL     1      47.702   8.326  20.846  0.00  0.00    +0.000 A 
ATOM     30  N   UNL     1      47.528   8.986  19.660  0.00  0.00    +0.000 N 
ATOM     31  C   UNL     1      47.916   8.461  18.452  0.00  0.00    +0.000 A 
ATOM     32  O   UNL     1      47.777   9.093  17.407  0.00  0.00    +0.000 OA
ATOM     33  C   UNL     1      48.503   7.135  18.527  0.00  0.00    +0.000 A 
ATOM     34  H   UNL     1      47.120   9.908  19.632  0.00  0.00    +0.000 HD
ENDBRANCH  21  24
ENDBRANCH  19  20
ENDBRANCH   4  19
TORSDOF 8
ENDMDL
MODEL 3
REMARK VINA RESULT:    -7.396      2.874      8.672
REMARK INTER + INTRA:         -11.723
REMARK INTER:                 -10.216
REMARK INTRA:                  -1.507
REMARK UNBOUND:                -0.867
REMARK  Name = 
REMARK  9 active torsions:
REMARK  status: ('A' for Active; 'I' for Inactive)
REMARK    1  A    between atoms: C_1  and  O_2
REMARK    2  A    between atoms: O_2  and  C_3
REMARK    3  A    between atoms: C_8  and  C_9
REMARK    4  A    between atoms: C_9  and  N_10
REMARK    5  A    between atoms: N_10  and  C_11
REMARK    6  A    between atoms: C_11  and  C_12
REMARK    7  A    between atoms: C_15  and  C_16
REMARK    8  A    between atoms: C_16  and  N_17
REMARK    9  A    between atoms: C_18  and  C_20
REMARK                            x       y       z     vdW  Elec       q    Type
REMARK                         _______ _______ _______ _____ _____    ______ ____
ROOT
ATOM      1  C   UNL     1      50.527   7.463  15.205  0.00  0.00    +0.000 A 
ATOM      2  C   UNL     1      50.864   8.354  14.186  0.00  0.00    +0.000 A 
ATOM      3  C   UNL     1      50.009   8.490  13.094  0.00  0.00    +0.000 A 
ATOM      4  C   UNL     1      48.833   7.741  13.038  0.00  0.00    +0.000 A 
ATOM      5  C   UNL     1      48.600   6.847  14.077  0.00  0.00    +0.000 A 
ATOM      6  N   UNL     1      49.408   6.696  15.153  0.00  0.00    +0.000 NA
ENDROOT
BRANCH   1   7
ATOM      7  C   UNL     1      51.397   7.352  16.445  0.00  0.00    +0.000 C 
BRANCH   7   8
ATOM      8  N   UNL     1      51.762   5.971  16.808  0.00  0.00    +0.000 NA
ATOM      9  H   UNL     1      51.332   5.336  16.136  0.00  0.00    +0.000 HD
BRANCH   8  10
ATOM     10  C   UNL     1      51.225   5.615  18.127  0.00  0.00    +0.000 C 
BRANCH  10  16
ATOM     11  C   UNL     1      49.592   3.793  17.376  0.00  0.00    +0.000 A 
ATOM     12  C   UNL     1      48.273   3.343  17.234  0.00  0.00    +0.000 A 
ATOM     13  C   UNL     1      47.205   4.089  17.741  0.00  0.00    +0.000 A 
ATOM     14  C   UNL     1      47.446   5.280  18.416  0.00  0.00    +0.000 A 
ATOM     15  C   UNL     1      48.754   5.740  18.560  0.00  0.00    +0.000 A 
ATOM     16  C   UNL     1      49.836   5.020  18.021  0.00  0.00    +0.000 A 
BRANCH  11  18
ATOM     17  C   UNL     1      50.765   1.723  17.318  0.00  0.00    +0.000 C 
ATOM     18  O   UNL     1      50.694   3.096  16.951  0.00  0.00    +0.000 OA
ENDBRANCH  11  18
ENDBRANCH  10  16
ENDBRANCH   8  10
ENDBRANCH   7   8
ENDBRANCH   1   7
BRANCH   4  19
ATOM     19  C   UNL     1      47.877   7.853  11.887  0.00  0.00    +0.000 C 
BRANCH  19  20
ATOM     20  N   UNL     1      47.113   6.643  11.739  0.00  0.00    +0.000 N 
ATOM     21  C   UNL     1      45.742   6.646  11.709  0.00  0.00    +0.000 C 
ATOM     22  O   UNL     1      45.091   7.686  11.740  0.00  0.00    +0.000 OA
ATOM     23  H   UNL     1      47.597   5.773  11.937  0.00  0.00    +0.000 HD
BRANCH  21  24
ATOM     24  C   UNL     1      45.097   5.333  11.574  0.00  0.00    +0.000 A 
ATOM     25  C   UNL     1      44.447   4.766  12.661  0.00  0.00    +0.000 A 
ATOM     26  S   UNL     1      43.690   3.279  12.303  0.00  0.00    +0.000 S 
ATOM     27  C   UNL     1      44.254   3.312  10.699  0.00  0.00    +0.000 A 
ATOM     28  N   UNL     1      43.969   2.305   9.832  0.00  0.00    +0.000 NA
ATOM     29  C   UNL     1      44.486   2.447   8.657  0.00  0.00    +0.000 A 
ATOM     30  N   UNL     1      45.261   3.505   8.269  0.00  0.00    +0.000 N 
ATOM     31  C   UNL     1      45.554   4.558   9.100  0.00  0.00    +0.000 A 
ATOM     32  O   UNL     1      46.226   5.511   8.711  0.00  0.00    +0.000 OA
ATOM     33  C   UNL     1      44.999   4.449  10.437  0.00  0.00    +0.000 A 
ATOM     34  H   UNL     1      45.635   3.562   7.333  0.00  0.00    +0.000 HD
ENDBRANCH  21  24
ENDBRANCH  19  20
ENDBRANCH   4  19
TORSDOF 8
ENDMDL
MODEL 4
REMARK VINA RESULT:    -7.395      2.879      8.702
REMARK INTER + INTRA:         -11.720
REMARK INTER:                 -10.454
REMARK INTRA:                  -1.266
REMARK UNBOUND:                -0.867
REMARK  Name = 
REMARK  9 active torsions:
REMARK  status: ('A' for Active; 'I' for Inactive)
REMARK    1  A    between atoms: C_1  and  O_2
REMARK    2  A    between atoms: O_2  and  C_3
REMARK    3  A    between atoms: C_8  and  C_9
REMARK    4  A    between atoms: C_9  and  N_10
REMARK    5  A    between atoms: N_10  and  C_11
REMARK    6  A    between atoms: C_11  and  C_12
REMARK    7  A    between atoms: C_15  and  C_16
REMARK    8  A    between atoms: C_16  and  N_17
REMARK    9  A    between atoms: C_18  and  C_20
REMARK                            x       y       z     vdW  Elec       q    Type
REMARK                         _______ _______ _______ _____ _____    ______ ____
ROOT
ATOM      1  C   UNL     1      49.288   7.529  15.878  0.00  0.00    +0.000 A 
ATOM      2  C   UNL     1      48.893   8.792  15.438  0.00  0.00    +0.000 A 
ATOM      3  C   UNL     1      48.219   8.906  14.223  0.00  0.00    +0.000 A 
ATOM      4  C   UNL     1      47.947   7.763  13.472  0.00  0.00    +0.000 A 
ATOM      5  C   UNL     1      48.416   6.551  13.968  0.00  0.00    +0.000 A 
ATOM      6  N   UNL     1      49.069   6.408  15.146  0.00  0.00    +0.000 NA
ENDROOT
BRANCH   1   7
ATOM      7  C   UNL     1      49.953   7.363  17.234  0.00  0.00    +0.000 C 
BRANCH   7   8
ATOM      8  N   UNL     1      51.006   6.334  17.272  0.00  0.00    +0.000 NA
ATOM      9  H   UNL     1      50.953   5.786  16.412  0.00  0.00    +0.000 HD
BRANCH   8  10
ATOM     10  C   UNL     1      50.788   5.399  18.382  0.00  0.00    +0.000 C 
BRANCH  10  16
ATOM     11  C   UNL     1      50.234   3.135  17.323  0.00  0.00    +0.000 A 
ATOM     12  C   UNL     1      50.591   1.804  17.073  0.00  0.00    +0.000 A 
ATOM     13  C   UNL     1      51.841   1.315  17.462  0.00  0.00    +0.000 A 
ATOM     14  C   UNL     1      52.756   2.156  18.084  0.00  0.00    +0.000 A 
ATOM     15  C   UNL     1      52.410   3.481  18.343  0.00  0.00    +0.000 A 
ATOM     16  C   UNL     1      51.141   3.978  17.992  0.00  0.00    +0.000 A 
BRANCH  11  18
ATOM     17  C   UNL     1      47.871   2.933  17.136  0.00  0.00    +0.000 C 
ATOM     18  O   UNL     1      49.050   3.702  16.929  0.00  0.00    +0.000 OA
ENDBRANCH  11  18
ENDBRANCH  10  16
ENDBRANCH   8  10
ENDBRANCH   7   8
ENDBRANCH   1   7
BRANCH   4  19
ATOM     19  C   UNL     1      47.221   7.830  12.160  0.00  0.00    +0.000 C 
BRANCH  19  20
ATOM     20  N   UNL     1      46.591   6.573  11.860  0.00  0.00    +0.000 N 
ATOM     21  C   UNL     1      45.238   6.465  11.661  0.00  0.00    +0.000 C 
ATOM     22  O   UNL     1      44.499   7.444  11.661  0.00  0.00    +0.000 OA
ATOM     23  H   UNL     1      47.122   5.735  12.075  0.00  0.00    +0.000 HD
BRANCH  21  24
ATOM     24  C   UNL     1      44.733   5.113  11.384  0.00  0.00    +0.000 A 
ATOM     25  C   UNL     1      43.998   4.438  12.348  0.00  0.00    +0.000 A 
ATOM     26  S   UNL     1      43.425   2.917  11.828  0.00  0.00    +0.000 S 
ATOM     27  C   UNL     1      44.191   3.082  10.318  0.00  0.00    +0.000 A 
ATOM     28  N   UNL     1      44.110   2.103   9.378  0.00  0.00    +0.000 NA
ATOM     29  C   UNL     1      44.763   2.349   8.291  0.00  0.00    +0.000 A 
ATOM     30  N   UNL     1      45.488   3.485   8.057  0.00  0.00    +0.000 N 
ATOM     31  C   UNL     1      45.577   4.512   8.965  0.00  0.00    +0.000 A 
ATOM     32  O   UNL     1      46.209   5.536   8.711  0.00  0.00    +0.000 OA
ATOM     33  C   UNL     1      44.862   4.287  10.208  0.00  0.00    +0.000 A 
ATOM     34  H   UNL     1      45.975   3.622   7.184  0.00  0.00    +0.000 HD
ENDBRANCH  21  24
ENDBRANCH  19  20
ENDBRANCH   4  19
TORSDOF 8
ENDMDL
MODEL 5
REMARK VINA RESULT:    -7.353      2.778      3.989
REMARK INTER + INTRA:         -11.658
REMARK INTER:                 -10.589
REMARK INTRA:                  -1.069
REMARK UNBOUND:                -0.867
REMARK  Name = 
REMARK  9 active torsions:
REMARK  status: ('A' for Active; 'I' for Inactive)
REMARK    1  A    between atoms: C_1  and  O_2
REMARK    2  A    between atoms: O_2  and  C_3
REMARK    3  A    between atoms: C_8  and  C_9
REMARK    4  A    between atoms: C_9  and  N_10
REMARK    5  A    between atoms: N_10  and  C_11
REMARK    6  A    between atoms: C_11  and  C_12
REMARK    7  A    between atoms: C_15  and  C_16
REMARK    8  A    between atoms: C_16  and  N_17
REMARK    9  A    between atoms: C_18  and  C_20
REMARK                            x       y       z     vdW  Elec       q    Type
REMARK                         _______ _______ _______ _____ _____    ______ ____
ROOT
ATOM      1  C   UNL     1      46.970   5.414  13.566  0.00  0.00    +0.000 A 
ATOM      2  C   UNL     1      47.567   6.638  13.268  0.00  0.00    +0.000 A 
ATOM      3  C   UNL     1      48.438   7.210  14.193  0.00  0.00    +0.000 A 
ATOM      4  C   UNL     1      48.702   6.553  15.395  0.00  0.00    +0.000 A 
ATOM      5  C   UNL     1      48.028   5.357  15.625  0.00  0.00    +0.000 A 
ATOM      6  N   UNL     1      47.181   4.774  14.744  0.00  0.00    +0.000 NA
ENDROOT
BRANCH   1   7
ATOM      7  C   UNL     1      46.080   4.726  12.544  0.00  0.00    +0.000 C 
BRANCH   7   8
ATOM      8  N   UNL     1      44.749   5.340  12.387  0.00  0.00    +0.000 NA
ATOM      9  H   UNL     1      44.041   4.624  12.550  0.00  0.00    +0.000 HD
BRANCH   8  10
ATOM     10  C   UNL     1      44.552   5.822  11.015  0.00  0.00    +0.000 C 
BRANCH  10  16
ATOM     11  C   UNL     1      44.154   3.483  10.056  0.00  0.00    +0.000 A 
ATOM     12  C   UNL     1      44.502   2.483   9.138  0.00  0.00    +0.000 A 
ATOM     13  C   UNL     1      45.472   2.718   8.159  0.00  0.00    +0.000 A 
ATOM     14  C   UNL     1      46.087   3.961   8.072  0.00  0.00    +0.000 A 
ATOM     15  C   UNL     1      45.752   4.962   8.983  0.00  0.00    +0.000 A 
ATOM     16  C   UNL     1      44.806   4.729   9.998  0.00  0.00    +0.000 A 
BRANCH  11  18
ATOM     17  C   UNL     1      43.308   2.246  11.904  0.00  0.00    +0.000 C 
ATOM     18  O   UNL     1      43.181   3.347  11.011  0.00  0.00    +0.000 OA
ENDBRANCH  11  18
ENDBRANCH  10  16
ENDBRANCH   8  10
ENDBRANCH   7   8
ENDBRANCH   1   7
BRANCH   4  19
ATOM     19  C   UNL     1      49.634   7.123  16.423  0.00  0.00    +0.000 C 
BRANCH  19  20
ATOM     20  N   UNL     1      50.621   6.152  16.812  0.00  0.00    +0.000 N 
ATOM     21  C   UNL     1      50.612   5.560  18.049  0.00  0.00    +0.000 C 
ATOM     22  O   UNL     1      49.724   5.774  18.869  0.00  0.00    +0.000 OA
ATOM     23  H   UNL     1      51.474   6.126  16.262  0.00  0.00    +0.000 HD
BRANCH  21  24
ATOM     24  C   UNL     1      51.695   4.603  18.313  0.00  0.00    +0.000 A 
ATOM     25  C   UNL     1      52.849   5.025  18.959  0.00  0.00    +0.000 A 
ATOM     26  S   UNL     1      53.965   3.767  19.253  0.00  0.00    +0.000 S 
ATOM     27  C   UNL     1      52.970   2.627  18.474  0.00  0.00    +0.000 A 
ATOM     28  N   UNL     1      53.349   1.326  18.359  0.00  0.00    +0.000 NA
ATOM     29  C   UNL     1      52.512   0.579  17.720  0.00  0.00    +0.000 A 
ATOM     30  N   UNL     1      51.329   1.013  17.186  0.00  0.00    +0.000 N 
ATOM     31  C   UNL     1      50.893   2.311  17.300  0.00  0.00    +0.000 A 
ATOM     32  O   UNL     1      49.809   2.662  16.838  0.00  0.00    +0.000 OA
ATOM     33  C   UNL     1      51.798   3.196  18.009  0.00  0.00    +0.000 A 
ATOM     34  H   UNL     1      50.714   0.379  16.699  0.00  0.00    +0.000 HD
ENDBRANCH  21  24
ENDBRANCH  19  20
ENDBRANCH   4  19
TORSDOF 8
ENDMDL
MODEL 6
REMARK VINA RESULT:    -7.223      5.102      9.551
REMARK INTER + INTRA:         -11.468
REMARK INTER:                 -10.232
REMARK INTRA:                  -1.236
REMARK UNBOUND:                -0.867
REMARK  Name = 
REMARK  9 active torsions:
REMARK  status: ('A' for Active; 'I' for Inactive)
REMARK    1  A    between atoms: C_1  and  O_2
REMARK    2  A    between atoms: O_2  and  C_3
REMARK    3  A    between atoms: C_8  and  C_9
REMARK    4  A    between atoms: C_9  and  N_10
REMARK    5  A    between atoms: N_10  and  C_11
REMARK    6  A    between atoms: C_11  and  C_12
REMARK    7  A    between atoms: C_15  and  C_16
REMARK    8  A    between atoms: C_16  and  N_17
REMARK    9  A    between atoms: C_18  and  C_20
REMARK                            x       y       z     vdW  Elec       q    Type
REMARK                         _______ _______ _______ _____ _____    ______ ____
ROOT
ATOM      1  C   UNL     1      51.137   2.331  17.413  0.00  0.00    +0.000 A 
ATOM      2  C   UNL     1      51.765   3.567  17.563  0.00  0.00    +0.000 A 
ATOM      3  C   UNL     1      50.996   4.728  17.516  0.00  0.00    +0.000 A 
ATOM      4  C   UNL     1      49.616   4.638  17.326  0.00  0.00    +0.000 A 
ATOM      5  C   UNL     1      49.083   3.366  17.143  0.00  0.00    +0.000 A 
ATOM      6  N   UNL     1      49.804   2.220  17.188  0.00  0.00    +0.000 NA
ENDROOT
BRANCH   1   7
ATOM      7  C   UNL     1      51.936   1.045  17.539  0.00  0.00    +0.000 C 
BRANCH   7   8
ATOM      8  N   UNL     1      52.993   1.085  18.566  0.00  0.00    +0.000 NA
ATOM      9  H   UNL     1      52.993   2.013  18.992  0.00  0.00    +0.000 HD
BRANCH   8  10
ATOM     10  C   UNL     1      54.317   0.897  17.963  0.00  0.00    +0.000 C 
BRANCH  10  16
ATOM     11  C   UNL     1      54.568  -1.588  18.524  0.00  0.00    +0.000 A 
ATOM     12  C   UNL     1      54.882  -2.889  18.110  0.00  0.00    +0.000 A 
ATOM     13  C   UNL     1      55.160  -3.165  16.769  0.00  0.00    +0.000 A 
ATOM     14  C   UNL     1      55.104  -2.148  15.822  0.00  0.00    +0.000 A 
ATOM     15  C   UNL     1      54.797  -0.849  16.222  0.00  0.00    +0.000 A 
ATOM     16  C   UNL     1      54.553  -0.548  17.575  0.00  0.00    +0.000 A 
BRANCH  11  18
ATOM     17  C   UNL     1      54.943  -1.911  20.851  0.00  0.00    +0.000 C 
ATOM     18  O   UNL     1      54.237  -1.247  19.809  0.00  0.00    +0.000 OA
ENDBRANCH  11  18
ENDBRANCH  10  16
ENDBRANCH   8  10
ENDBRANCH   7   8
ENDBRANCH   1   7
BRANCH   4  19
ATOM     19  C   UNL     1      48.743   5.857  17.272  0.00  0.00    +0.000 C 
BRANCH  19  20
ATOM     20  N   UNL     1      47.897   5.826  16.109  0.00  0.00    +0.000 N 
ATOM     21  C   UNL     1      48.322   6.279  14.886  0.00  0.00    +0.000 C 
ATOM     22  O   UNL     1      49.469   6.672  14.699  0.00  0.00    +0.000 OA
ATOM     23  H   UNL     1      46.900   5.726  16.274  0.00  0.00    +0.000 HD
BRANCH  21  24
ATOM     24  C   UNL     1      47.342   6.206  13.794  0.00  0.00    +0.000 A 
ATOM     25  C   UNL     1      46.953   7.362  13.134  0.00  0.00    +0.000 A 
ATOM     26  S   UNL     1      45.870   7.081  11.845  0.00  0.00    +0.000 S 
ATOM     27  C   UNL     1      45.836   5.411  12.164  0.00  0.00    +0.000 A 
ATOM     28  N   UNL     1      45.073   4.568  11.417  0.00  0.00    +0.000 NA
ATOM     29  C   UNL     1      45.121   3.332  11.789  0.00  0.00    +0.000 A 
ATOM     30  N   UNL     1      45.862   2.861  12.838  0.00  0.00    +0.000 N 
ATOM     31  C   UNL     1      46.667   3.669  13.603  0.00  0.00    +0.000 A 
ATOM     32  O   UNL     1      47.347   3.209  14.518  0.00  0.00    +0.000 OA
ATOM     33  C   UNL     1      46.651   5.071  13.230  0.00  0.00    +0.000 A 
ATOM     34  H   UNL     1      45.861   1.881  13.078  0.00  0.00    +0.000 HD
ENDBRANCH  21  24
ENDBRANCH  19  20
ENDBRANCH   4  19
TORSDOF 8
ENDMDL
MODEL 7
REMARK VINA RESULT:    -6.999      1.814      2.417
REMARK INTER + INTRA:         -11.139
REMARK INTER:                 -11.066
REMARK INTRA:                  -0.073
REMARK UNBOUND:                -0.867
REMARK  Name = 
REMARK  9 active torsions:
REMARK  status: ('A' for Active; 'I' for Inactive)
REMARK    1  A    between atoms: C_1  and  O_2
REMARK    2  A    between atoms: O_2  and  C_3
REMARK    3  A    between atoms: C_8  and  C_9
REMARK    4  A    between atoms: C_9  and  N_10
REMARK    5  A    between atoms: N_10  and  C_11
REMARK    6  A    between atoms: C_11  and  C_12
REMARK    7  A    between atoms: C_15  and  C_16
REMARK    8  A    between atoms: C_16  and  N_17
REMARK    9  A    between atoms: C_18  and  C_20
REMARK                            x       y       z     vdW  Elec       q    Type
REMARK                         _______ _______ _______ _____ _____    ______ ____
ROOT
ATOM      1  C   UNL     1      44.904   4.217  12.444  0.00  0.00    +0.000 A 
ATOM      2  C   UNL     1      44.879   5.583  12.161  0.00  0.00    +0.000 A 
ATOM      3  C   UNL     1      45.832   6.414  12.745  0.00  0.00    +0.000 A 
ATOM      4  C   UNL     1      46.796   5.872  13.597  0.00  0.00    +0.000 A 
ATOM      5  C   UNL     1      46.717   4.507  13.855  0.00  0.00    +0.000 A 
ATOM      6  N   UNL     1      45.807   3.673  13.299  0.00  0.00    +0.000 NA
ENDROOT
BRANCH   1   7
ATOM      7  C   UNL     1      43.929   3.274  11.760  0.00  0.00    +0.000 C 
BRANCH   7   8
ATOM      8  N   UNL     1      44.554   2.351  10.796  0.00  0.00    +0.000 NA
ATOM      9  H   UNL     1      45.566   2.396  10.915  0.00  0.00    +0.000 HD
BRANCH   8  10
ATOM     10  C   UNL     1      44.272   2.763   9.416  0.00  0.00    +0.000 C 
BRANCH  10  16
ATOM     11  C   UNL     1      46.081   3.522   7.772  0.00  0.00    +0.000 A 
ATOM     12  C   UNL     1      47.108   3.194   6.877  0.00  0.00    +0.000 A 
ATOM     13  C   UNL     1      47.523   1.869   6.720  0.00  0.00    +0.000 A 
ATOM     14  C   UNL     1      46.934   0.860   7.473  0.00  0.00    +0.000 A 
ATOM     15  C   UNL     1      45.908   1.173   8.363  0.00  0.00    +0.000 A 
ATOM     16  C   UNL     1      45.452   2.497   8.504  0.00  0.00    +0.000 A 
BRANCH  11  18
ATOM     17  C   UNL     1      46.288   5.497   9.082  0.00  0.00    +0.000 C 
ATOM     18  O   UNL     1      45.651   4.800   8.017  0.00  0.00    +0.000 OA
ENDBRANCH  11  18
ENDBRANCH  10  16
ENDBRANCH   8  10
ENDBRANCH   7   8
ENDBRANCH   1   7
BRANCH   4  19
ATOM     19  C   UNL     1      47.846   6.722  14.248  0.00  0.00    +0.000 C 
BRANCH  19  20
ATOM     20  N   UNL     1      48.071   6.303  15.606  0.00  0.00    +0.000 N 
ATOM     21  C   UNL     1      49.328   6.251  16.153  0.00  0.00    +0.000 C 
ATOM     22  O   UNL     1      50.323   6.620  15.539  0.00  0.00    +0.000 OA
ATOM     23  H   UNL     1      47.320   5.787  16.053  0.00  0.00    +0.000 HD
BRANCH  21  24
ATOM     24  C   UNL     1      49.406   5.784  17.544  0.00  0.00    +0.000 A 
ATOM     25  C   UNL     1      48.267   5.314  18.182  0.00  0.00    +0.000 A 
ATOM     26  S   UNL     1      48.557   4.741  19.763  0.00  0.00    +0.000 S 
ATOM     27  C   UNL     1      50.204   5.157  19.672  0.00  0.00    +0.000 A 
ATOM     28  N   UNL     1      51.043   4.940  20.721  0.00  0.00    +0.000 NA
ATOM     29  C   UNL     1      52.258   5.330  20.523  0.00  0.00    +0.000 A 
ATOM     30  N   UNL     1      52.712   5.916  19.373  0.00  0.00    +0.000 N 
ATOM     31  C   UNL     1      51.909   6.131  18.280  0.00  0.00    +0.000 A 
ATOM     32  O   UNL     1      52.356   6.630  17.248  0.00  0.00    +0.000 OA
ATOM     33  C   UNL     1      50.530   5.712  18.447  0.00  0.00    +0.000 A 
ATOM     34  H   UNL     1      53.676   6.197  19.278  0.00  0.00    +0.000 HD
ENDBRANCH  21  24
ENDBRANCH  19  20
ENDBRANCH   4  19
TORSDOF 8
ENDMDL
MODEL 8
REMARK VINA RESULT:    -6.819      3.296      8.843
REMARK INTER + INTRA:         -10.876
REMARK INTER:                  -9.596
REMARK INTRA:                  -1.280
REMARK UNBOUND:                -0.867
REMARK  Name = 
REMARK  9 active torsions:
REMARK  status: ('A' for Active; 'I' for Inactive)
REMARK    1  A    between atoms: C_1  and  O_2
REMARK    2  A    between atoms: O_2  and  C_3
REMARK    3  A    between atoms: C_8  and  C_9
REMARK    4  A    between atoms: C_9  and  N_10
REMARK    5  A    between atoms: N_10  and  C_11
REMARK    6  A    between atoms: C_11  and  C_12
REMARK    7  A    between atoms: C_15  and  C_16
REMARK    8  A    between atoms: C_16  and  N_17
REMARK    9  A    between atoms: C_18  and  C_20
REMARK                            x       y       z     vdW  Elec       q    Type
REMARK                         _______ _______ _______ _____ _____    ______ ____
ROOT
ATOM      1  C   UNL     1      50.219   6.818  15.591  0.00  0.00    +0.000 A 
ATOM      2  C   UNL     1      50.797   7.799  14.786  0.00  0.00    +0.000 A 
ATOM      3  C   UNL     1      50.114   8.234  13.652  0.00  0.00    +0.000 A 
ATOM      4  C   UNL     1      48.868   7.689  13.342  0.00  0.00    +0.000 A 
ATOM      5  C   UNL     1      48.389   6.685  14.178  0.00  0.00    +0.000 A 
ATOM      6  N   UNL     1      49.026   6.246  15.289  0.00  0.00    +0.000 NA
ENDROOT
BRANCH   1   7
ATOM      7  C   UNL     1      50.901   6.381  16.877  0.00  0.00    +0.000 C 
BRANCH   7   8
ATOM      8  N   UNL     1      50.909   4.924  17.094  0.00  0.00    +0.000 NA
ATOM      9  H   UNL     1      50.114   4.519  16.599  0.00  0.00    +0.000 HD
BRANCH   8  10
ATOM     10  C   UNL     1      50.729   4.604  18.515  0.00  0.00    +0.000 C 
BRANCH  10  16
ATOM     11  C   UNL     1      48.204   5.019  18.493  0.00  0.00    +0.000 A 
ATOM     12  C   UNL     1      47.092   5.703  19.003  0.00  0.00    +0.000 A 
ATOM     13  C   UNL     1      47.225   6.574  20.088  0.00  0.00    +0.000 A 
ATOM     14  C   UNL     1      48.465   6.753  20.689  0.00  0.00    +0.000 A 
ATOM     15  C   UNL     1      49.579   6.082  20.188  0.00  0.00    +0.000 A 
ATOM     16  C   UNL     1      49.469   5.232  19.072  0.00  0.00    +0.000 A 
BRANCH  11  18
ATOM     17  C   UNL     1      47.445   2.901  17.719  0.00  0.00    +0.000 C 
ATOM     18  O   UNL     1      48.146   4.113  17.466  0.00  0.00    +0.000 OA
ENDBRANCH  11  18
ENDBRANCH  10  16
ENDBRANCH   8  10
ENDBRANCH   7   8
ENDBRANCH   1   7
BRANCH   4  19
ATOM     19  C   UNL     1      48.090   8.125  12.135  0.00  0.00    +0.000 C 
BRANCH  19  20
ATOM     20  N   UNL     1      47.412   7.007  11.535  0.00  0.00    +0.000 N 
ATOM     21  C   UNL     1      46.052   6.989  11.360  0.00  0.00    +0.000 C 
ATOM     22  O   UNL     1      45.344   7.951  11.643  0.00  0.00    +0.000 OA
ATOM     23  H   UNL     1      47.922   6.130  11.502  0.00  0.00    +0.000 HD
BRANCH  21  24
ATOM     24  C   UNL     1      45.496   5.772  10.752  0.00  0.00    +0.000 A 
ATOM     25  C   UNL     1      45.688   5.524   9.401  0.00  0.00    +0.000 A 
ATOM     26  S   UNL     1      45.044   4.030   8.883  0.00  0.00    +0.000 S 
ATOM     27  C   UNL     1      44.433   3.692  10.435  0.00  0.00    +0.000 A 
ATOM     28  N   UNL     1      43.744   2.547  10.685  0.00  0.00    +0.000 NA
ATOM     29  C   UNL     1      43.315   2.435  11.898  0.00  0.00    +0.000 A 
ATOM     30  N   UNL     1      43.512   3.362  12.884  0.00  0.00    +0.000 N 
ATOM     31  C   UNL     1      44.224   4.520  12.686  0.00  0.00    +0.000 A 
ATOM     32  O   UNL     1      44.413   5.317  13.602  0.00  0.00    +0.000 OA
ATOM     33  C   UNL     1      44.729   4.698  11.337  0.00  0.00    +0.000 A 
ATOM     34  H   UNL     1      43.154   3.215  13.816  0.00  0.00    +0.000 HD
ENDBRANCH  21  24
ENDBRANCH  19  20
ENDBRANCH   4  19
TORSDOF 8
ENDMDL
MODEL 9
REMARK VINA RESULT:    -6.667      3.802      9.276
REMARK INTER + INTRA:         -10.653
REMARK INTER:                  -9.089
REMARK INTRA:                  -1.564
REMARK UNBOUND:                -0.867
REMARK  Name = 
REMARK  9 active torsions:
REMARK  status: ('A' for Active; 'I' for Inactive)
REMARK    1  A    between atoms: C_1  and  O_2
REMARK    2  A    between atoms: O_2  and  C_3
REMARK    3  A    between atoms: C_8  and  C_9
REMARK    4  A    between atoms: C_9  and  N_10
REMARK    5  A    between atoms: N_10  and  C_11
REMARK    6  A    between atoms: C_11  and  C_12
REMARK    7  A    between atoms: C_15  and  C_16
REMARK    8  A    between atoms: C_16  and  N_17
REMARK    9  A    between atoms: C_18  and  C_20
REMARK                            x       y       z     vdW  Elec       q    Type
REMARK                         _______ _______ _______ _____ _____    ______ ____
ROOT
ATOM      1  C   UNL     1      50.067   5.215  19.296  0.00  0.00    +0.000 A 
ATOM      2  C   UNL     1      48.712   5.538  19.354  0.00  0.00    +0.000 A 
ATOM      3  C   UNL     1      47.834   4.942  18.451  0.00  0.00    +0.000 A 
ATOM      4  C   UNL     1      48.319   4.033  17.509  0.00  0.00    +0.000 A 
ATOM      5  C   UNL     1      49.691   3.805  17.498  0.00  0.00    +0.000 A 
ATOM      6  N   UNL     1      50.568   4.364  18.365  0.00  0.00    +0.000 NA
ENDROOT
BRANCH   1   7
ATOM      7  C   UNL     1      51.036   5.785  20.318  0.00  0.00    +0.000 C 
BRANCH   7   8
ATOM      8  N   UNL     1      50.959   7.248  20.476  0.00  0.00    +0.000 NA
ATOM      9  H   UNL     1      49.999   7.498  20.717  0.00  0.00    +0.000 HD
BRANCH   8  10
ATOM     10  C   UNL     1      51.267   7.929  19.213  0.00  0.00    +0.000 C 
BRANCH  10  16
ATOM     11  C   UNL     1      49.695   8.608  17.311  0.00  0.00    +0.000 A 
ATOM     12  C   UNL     1      48.622   9.386  16.856  0.00  0.00    +0.000 A 
ATOM     13  C   UNL     1      47.904  10.198  17.738  0.00  0.00    +0.000 A 
ATOM     14  C   UNL     1      48.235  10.225  19.087  0.00  0.00    +0.000 A 
ATOM     15  C   UNL     1      49.304   9.459  19.551  0.00  0.00    +0.000 A 
ATOM     16  C   UNL     1      50.061   8.666  18.669  0.00  0.00    +0.000 A 
BRANCH  11  18
ATOM     17  C   UNL     1      49.673   6.927  15.627  0.00  0.00    +0.000 C 
ATOM     18  O   UNL     1      50.415   7.751  16.520  0.00  0.00    +0.000 OA
ENDBRANCH  11  18
ENDBRANCH  10  16
ENDBRANCH   8  10
ENDBRANCH   7   8
ENDBRANCH   1   7
BRANCH   4  19
ATOM     19  C   UNL     1      47.416   3.362  16.517  0.00  0.00    +0.000 C 
BRANCH  19  20
ATOM     20  N   UNL     1      46.813   4.329  15.640  0.00  0.00    +0.000 N 
ATOM     21  C   UNL     1      46.775   4.156  14.280  0.00  0.00    +0.000 C 
ATOM     22  O   UNL     1      47.192   3.136  13.741  0.00  0.00    +0.000 OA
ATOM     23  H   UNL     1      46.670   5.260  16.019  0.00  0.00    +0.000 HD
BRANCH  21  24
ATOM     24  C   UNL     1      46.146   5.237  13.510  0.00  0.00    +0.000 A 
ATOM     25  C   UNL     1      46.815   6.439  13.330  0.00  0.00    +0.000 A 
ATOM     26  S   UNL     1      45.972   7.549  12.345  0.00  0.00    +0.000 S 
ATOM     27  C   UNL     1      44.656   6.485  12.175  0.00  0.00    +0.000 A 
ATOM     28  N   UNL     1      43.560   6.832  11.447  0.00  0.00    +0.000 NA
ATOM     29  C   UNL     1      42.627   5.940  11.427  0.00  0.00    +0.000 A 
ATOM     30  N   UNL     1      42.688   4.732  12.067  0.00  0.00    +0.000 N 
ATOM     31  C   UNL     1      43.783   4.327  12.791  0.00  0.00    +0.000 A 
ATOM     32  O   UNL     1      43.820   3.221  13.326  0.00  0.00    +0.000 OA
ATOM     33  C   UNL     1      44.864   5.294  12.848  0.00  0.00    +0.000 A 
ATOM     34  H   UNL     1      41.925   4.074  12.011  0.00  0.00    +0.000 HD
ENDBRANCH  21  24
ENDBRANCH  19  20
ENDBRANCH   4  19
TORSDOF 8
ENDMDL
