MODEL 1
REMARK VINA RESULT:    -8.691      0.000      0.000
REMARK INTER + INTRA:         -12.818
REMARK INTER:                 -11.740
REMARK INTRA:                  -1.078
REMARK UNBOUND:                -1.078
REMARK  Name = 
REMARK  6 active torsions:
REMARK  status: ('A' for Active; 'I' for Inactive)
REMARK    1  A    between atoms: C_2  and  C_3
REMARK    2  A    between atoms: N_7  and  C_8
REMARK    3  A    between atoms: C_8  and  C_9
REMARK    4  A    between atoms: C_9  and  C_12
REMARK    5  A    between atoms: C_16  and  O_17
REMARK    6  A    between atoms: O_17  and  C_18
REMARK                            x       y       z     vdW  Elec       q    Type
REMARK                         _______ _______ _______ _____ _____    ______ ____
ROOT
ATOM      1  C   UNL     1      43.733   4.655  12.403  0.00  0.00    +0.000 C 
ATOM      2  F   UNL     1      42.794   5.514  12.898  0.00  0.00    +0.000 F 
ATOM      3  F   UNL     1      43.556   3.490  13.095  0.00  0.00    +0.000 F 
ENDROOT
BRANCH   1   4
ATOM      4  C   UNL     1      45.143   5.197  12.545  0.00  0.00    +0.000 A 
ATOM      5  C   UNL     1      45.643   6.136  11.631  0.00  0.00    +0.000 A 
ATOM      6  C   UNL     1      46.912   6.689  11.810  0.00  0.00    +0.000 A 
ATOM      7  C   UNL     1      47.701   6.313  12.901  0.00  0.00    +0.000 A 
ATOM      8  C   UNL     1      47.222   5.373  13.809  0.00  0.00    +0.000 A 
ATOM      9  C   UNL     1      45.949   4.822  13.632  0.00  0.00    +0.000 A 
BRANCH   8  10
ATOM     10  O   UNL     1      47.881   4.954  14.936  0.00  0.00    +0.000 OA
BRANCH  10  11
ATOM     11  C   UNL     1      47.253   4.000  15.819  0.00  0.00    +0.000 C 
ATOM     12  C   UNL     1      47.144   4.383  17.317  0.00  0.00    +0.000 C 
ATOM     13  C   UNL     1      47.593   2.956  17.674  0.00  0.00    +0.000 C 
ATOM     14  C   UNL     1      48.194   2.849  16.264  0.00  0.00    +0.000 C 
ENDBRANCH  10  11
ENDBRANCH   8  10
ENDBRANCH   1   4
BRANCH   1  15
ATOM     15  C   UNL     1      43.432   4.395  10.906  0.00  0.00    +0.000 C 
BRANCH  15  20
ATOM     16  C   UNL     1      46.654   2.466   7.398  0.00  0.00    +0.000 A 
ATOM     17  C   UNL     1      46.289   3.773   7.687  0.00  0.00    +0.000 A 
ATOM     18  C   UNL     1      45.366   4.013   8.706  0.00  0.00    +0.000 A 
ATOM     19  C   UNL     1      44.820   2.947   9.416  0.00  0.00    +0.000 A 
ATOM     20  N   UNL     1      43.894   3.102  10.410  0.00  0.00    +0.000 N 
ATOM     21  N   UNL     1      45.175   1.675   9.143  0.00  0.00    +0.000 NA
ATOM     22  C   UNL     1      46.077   1.459   8.152  0.00  0.00    +0.000 A 
ATOM     23  H   UNL     1      43.594   2.245  10.862  0.00  0.00    +0.000 HD
BRANCH  16  25
ATOM     24  N   UNL     1      48.342   1.916   5.515  0.00  0.00    +0.000 NA
ATOM     25  C   UNL     1      47.588   2.168   6.361  0.00  0.00    +0.000 C 
ENDBRANCH  16  25
ENDBRANCH  15  20
ENDBRANCH   1  15
TORSDOF 6
ENDMDL
MODEL 2
REMARK VINA RESULT:    -7.806      2.410      4.330
REMARK INTER + INTRA:         -11.622
REMARK INTER:                 -10.847
REMARK INTRA:                  -0.774
REMARK UNBOUND:                -1.078
REMARK  Name = 
REMARK  6 active torsions:
REMARK  status: ('A' for Active; 'I' for Inactive)
REMARK    1  A    between atoms: C_2  and  C_3
REMARK    2  A    between atoms: N_7  and  C_8
REMARK    3  A    between atoms: C_8  and  C_9
REMARK    4  A    between atoms: C_9  and  C_12
REMARK    5  A    between atoms: C_16  and  O_17
REMARK    6  A    between atoms: O_17  and  C_18
REMARK                            x       y       z     vdW  Elec       q    Type
REMARK                         _______ _______ _______ _____ _____    ______ ____
ROOT
ATOM      1  C   UNL     1      43.678   4.438  12.554  0.00  0.00    +0.000 C 
ATOM      2  F   UNL     1      42.672   4.661  13.450  0.00  0.00    +0.000 F 
ATOM      3  F   UNL     1      44.074   3.148  12.771  0.00  0.00    +0.000 F 
ENDROOT
BRANCH   1   4
ATOM      4  C   UNL     1      44.822   5.422  12.714  0.00  0.00    +0.000 A 
ATOM      5  C   UNL     1      46.150   4.973  12.749  0.00  0.00    +0.000 A 
ATOM      6  C   UNL     1      47.202   5.888  12.819  0.00  0.00    +0.000 A 
ATOM      7  C   UNL     1      46.946   7.261  12.857  0.00  0.00    +0.000 A 
ATOM      8  C   UNL     1      45.631   7.720  12.834  0.00  0.00    +0.000 A 
ATOM      9  C   UNL     1      44.577   6.804  12.760  0.00  0.00    +0.000 A 
BRANCH   8  10
ATOM     10  O   UNL     1      45.253   9.038  12.826  0.00  0.00    +0.000 OA
BRANCH  10  11
ATOM     11  C   UNL     1      45.314   9.790  11.595  0.00  0.00    +0.000 C 
ATOM     12  C   UNL     1      45.169  11.330  11.698  0.00  0.00    +0.000 C 
ATOM     13  C   UNL     1      44.221  11.282  10.488  0.00  0.00    +0.000 C 
ATOM     14  C   UNL     1      43.980   9.798  10.802  0.00  0.00    +0.000 C 
ENDBRANCH  10  11
ENDBRANCH   8  10
ENDBRANCH   1   4
BRANCH   1  15
ATOM     15  C   UNL     1      43.104   4.547  11.120  0.00  0.00    +0.000 C 
BRANCH  15  20
ATOM     16  C   UNL     1      46.493   2.720   7.716  0.00  0.00    +0.000 A 
ATOM     17  C   UNL     1      45.701   2.077   8.657  0.00  0.00    +0.000 A 
ATOM     18  C   UNL     1      44.863   2.837   9.474  0.00  0.00    +0.000 A 
ATOM     19  C   UNL     1      44.830   4.223   9.343  0.00  0.00    +0.000 A 
ATOM     20  N   UNL     1      44.053   5.033  10.122  0.00  0.00    +0.000 N 
ATOM     21  N   UNL     1      45.594   4.852   8.427  0.00  0.00    +0.000 NA
ATOM     22  C   UNL     1      46.401   4.099   7.637  0.00  0.00    +0.000 A 
ATOM     23  H   UNL     1      44.106   6.023   9.908  0.00  0.00    +0.000 HD
BRANCH  16  25
ATOM     24  N   UNL     1      48.096   1.398   6.174  0.00  0.00    +0.000 NA
ATOM     25  C   UNL     1      47.372   1.989   6.862  0.00  0.00    +0.000 C 
ENDBRANCH  16  25
ENDBRANCH  15  20
ENDBRANCH   1  15
TORSDOF 6
ENDMDL
MODEL 3
REMARK VINA RESULT:    -7.179      3.513      7.955
REMARK INTER + INTRA:         -10.775
REMARK INTER:                 -10.235
REMARK INTRA:                  -0.541
REMARK UNBOUND:                -1.078
REMARK  Name = 
REMARK  6 active torsions:
REMARK  status: ('A' for Active; 'I' for Inactive)
REMARK    1  A    between atoms: C_2  and  C_3
REMARK    2  A    between atoms: N_7  and  C_8
REMARK    3  A    between atoms: C_8  and  C_9
REMARK    4  A    between atoms: C_9  and  C_12
REMARK    5  A    between atoms: C_16  and  O_17
REMARK    6  A    between atoms: O_17  and  C_18
REMARK                            x       y       z     vdW  Elec       q    Type
REMARK                         _______ _______ _______ _____ _____    ______ ____
ROOT
ATOM      1  C   UNL     1      45.687   6.014  12.202  0.00  0.00    +0.000 C 
ATOM      2  F   UNL     1      44.743   6.351  13.129  0.00  0.00    +0.000 F 
ATOM      3  F   UNL     1      45.964   7.173  11.533  0.00  0.00    +0.000 F 
ENDROOT
BRANCH   1   4
ATOM      4  C   UNL     1      45.213   4.915  11.269  0.00  0.00    +0.000 A 
ATOM      5  C   UNL     1      44.378   3.890  11.739  0.00  0.00    +0.000 A 
ATOM      6  C   UNL     1      43.882   2.925  10.861  0.00  0.00    +0.000 A 
ATOM      7  C   UNL     1      44.213   2.966   9.504  0.00  0.00    +0.000 A 
ATOM      8  C   UNL     1      45.049   3.971   9.026  0.00  0.00    +0.000 A 
ATOM      9  C   UNL     1      45.543   4.941   9.905  0.00  0.00    +0.000 A 
BRANCH   8  10
ATOM     10  O   UNL     1      45.412   4.142   7.715  0.00  0.00    +0.000 OA
BRANCH  10  11
ATOM     11  C   UNL     1      46.679   3.631   7.251  0.00  0.00    +0.000 C 
ATOM     12  C   UNL     1      46.799   3.290   5.744  0.00  0.00    +0.000 C 
ATOM     13  C   UNL     1      47.517   1.987   6.135  0.00  0.00    +0.000 C 
ATOM     14  C   UNL     1      46.879   2.116   7.527  0.00  0.00    +0.000 C 
ENDBRANCH  10  11
ENDBRANCH   8  10
ENDBRANCH   1   4
BRANCH   1  15
ATOM     15  C   UNL     1      46.966   5.546  12.938  0.00  0.00    +0.000 C 
BRANCH  15  20
ATOM     16  C   UNL     1      48.193   4.606  17.840  0.00  0.00    +0.000 A 
ATOM     17  C   UNL     1      48.574   5.625  16.978  0.00  0.00    +0.000 A 
ATOM     18  C   UNL     1      48.088   5.628  15.670  0.00  0.00    +0.000 A 
ATOM     19  C   UNL     1      47.234   4.614  15.242  0.00  0.00    +0.000 A 
ATOM     20  N   UNL     1      46.738   4.538  13.970  0.00  0.00    +0.000 N 
ATOM     21  N   UNL     1      46.857   3.625  16.076  0.00  0.00    +0.000 NA
ATOM     22  C   UNL     1      47.334   3.638  17.346  0.00  0.00    +0.000 A 
ATOM     23  H   UNL     1      46.109   3.762  13.795  0.00  0.00    +0.000 HD
BRANCH  16  25
ATOM     24  N   UNL     1      49.046   4.519  20.281  0.00  0.00    +0.000 NA
ATOM     25  C   UNL     1      48.668   4.554  19.184  0.00  0.00    +0.000 C 
ENDBRANCH  16  25
ENDBRANCH  15  20
ENDBRANCH   1  15
TORSDOF 6
ENDMDL
MODEL 4
REMARK VINA RESULT:    -6.597      4.099      7.390
REMARK INTER + INTRA:          -9.988
REMARK INTER:                  -9.193
REMARK INTRA:                  -0.795
REMARK UNBOUND:                -1.078
REMARK  Name = 
REMARK  6 active torsions:
REMARK  status: ('A' for Active; 'I' for Inactive)
REMARK    1  A    between atoms: C_2  and  C_3
REMARK    2  A    between atoms: N_7  and  C_8
REMARK    3  A    between atoms: C_8  and  C_9
REMARK    4  A    between atoms: C_9  and  C_12
REMARK    5  A    between atoms: C_16  and  O_17
REMARK    6  A    between atoms: O_17  and  C_18
REMARK                            x       y       z     vdW  Elec       q    Type
REMARK                         _______ _______ _______ _____ _____    ______ ____
ROOT
ATOM      1  C   UNL     1      43.984   6.107  11.618  0.00  0.00    +0.000 C 
ATOM      2  F   UNL     1      43.961   5.870  12.963  0.00  0.00    +0.000 F 
ATOM      3  F   UNL     1      42.755   6.628  11.324  0.00  0.00    +0.000 F 
ENDROOT
BRANCH   1   4
ATOM      4  C   UNL     1      44.281   4.853  10.816  0.00  0.00    +0.000 A 
ATOM      5  C   UNL     1      43.825   3.601  11.253  0.00  0.00    +0.000 A 
ATOM      6  C   UNL     1      44.034   2.462  10.474  0.00  0.00    +0.000 A 
ATOM      7  C   UNL     1      44.701   2.555   9.249  0.00  0.00    +0.000 A 
ATOM      8  C   UNL     1      45.168   3.790   8.808  0.00  0.00    +0.000 A 
ATOM      9  C   UNL     1      44.955   4.932   9.587  0.00  0.00    +0.000 A 
BRANCH   8  10
ATOM     10  O   UNL     1      45.798   4.017   7.611  0.00  0.00    +0.000 OA
BRANCH  10  11
ATOM     11  C   UNL     1      46.188   2.898   6.786  0.00  0.00    +0.000 C 
ATOM     12  C   UNL     1      47.527   2.196   7.129  0.00  0.00    +0.000 C 
ATOM     13  C   UNL     1      47.852   2.172   5.626  0.00  0.00    +0.000 C 
ATOM     14  C   UNL     1      46.842   3.314   5.441  0.00  0.00    +0.000 C 
ENDBRANCH  10  11
ENDBRANCH   8  10
ENDBRANCH   1   4
BRANCH   1  15
ATOM     15  C   UNL     1      45.063   7.176  11.317  0.00  0.00    +0.000 C 
BRANCH  15  20
ATOM     16  C   UNL     1      49.524   8.027  13.724  0.00  0.00    +0.000 A 
ATOM     17  C   UNL     1      49.215   7.262  12.608  0.00  0.00    +0.000 A 
ATOM     18  C   UNL     1      47.891   7.200  12.169  0.00  0.00    +0.000 A 
ATOM     19  C   UNL     1      46.898   7.898  12.852  0.00  0.00    +0.000 A 
ATOM     20  N   UNL     1      45.579   7.866  12.496  0.00  0.00    +0.000 N 
ATOM     21  N   UNL     1      47.193   8.646  13.934  0.00  0.00    +0.000 NA
ATOM     22  C   UNL     1      48.485   8.700  14.345  0.00  0.00    +0.000 A 
ATOM     23  H   UNL     1      44.961   8.437  13.064  0.00  0.00    +0.000 HD
BRANCH  16  25
ATOM     24  N   UNL     1      51.944   8.183  14.626  0.00  0.00    +0.000 NA
ATOM     25  C   UNL     1      50.860   8.117  14.217  0.00  0.00    +0.000 C 
ENDBRANCH  16  25
ENDBRANCH  15  20
ENDBRANCH   1  15
TORSDOF 6
ENDMDL
MODEL 5
REMARK VINA RESULT:    -6.370      4.167      8.049
REMARK INTER + INTRA:          -9.682
REMARK INTER:                  -8.915
REMARK INTRA:                  -0.767
REMARK UNBOUND:                -1.078
REMARK  Name = 
REMARK  6 active torsions:
REMARK  status: ('A' for Active; 'I' for Inactive)
REMARK    1  A    between atoms: C_2  and  C_3
REMARK    2  A    between atoms: N_7  and  C_8
REMARK    3  A    between atoms: C_8  and  C_9
REMARK    4  A    between atoms: C_9  and  C_12
REMARK    5  A    between atoms: C_16  and  O_17
REMARK    6  A    between atoms: O_17  and  C_18
REMARK                            x       y       z     vdW  Elec       q    Type
REMARK                         _______ _______ _______ _____ _____    ______ ____
ROOT
ATOM      1  C   UNL     1      45.514   5.913  12.695  0.00  0.00    +0.000 C 
ATOM      2  F   UNL     1      45.758   5.354  13.917  0.00  0.00    +0.000 F 
ATOM      3  F   UNL     1      44.552   6.859  12.918  0.00  0.00    +0.000 F 
ENDROOT
BRANCH   1   4
ATOM      4  C   UNL     1      45.079   4.886  11.667  0.00  0.00    +0.000 A 
ATOM      5  C   UNL     1      44.176   3.869  12.010  0.00  0.00    +0.000 A 
ATOM      6  C   UNL     1      43.719   2.974  11.042  0.00  0.00    +0.000 A 
ATOM      7  C   UNL     1      44.158   3.077   9.719  0.00  0.00    +0.000 A 
ATOM      8  C   UNL     1      45.063   4.074   9.367  0.00  0.00    +0.000 A 
ATOM      9  C   UNL     1      45.517   4.974  10.336  0.00  0.00    +0.000 A 
BRANCH   8  10
ATOM     10  O   UNL     1      45.535   4.303   8.100  0.00  0.00    +0.000 OA
BRANCH  10  11
ATOM     11  C   UNL     1      45.728   3.193   7.198  0.00  0.00    +0.000 C 
ATOM     12  C   UNL     1      46.709   2.079   7.643  0.00  0.00    +0.000 C 
ATOM     13  C   UNL     1      47.294   2.080   6.220  0.00  0.00    +0.000 C 
ATOM     14  C   UNL     1      46.719   3.493   6.041  0.00  0.00    +0.000 C 
ENDBRANCH  10  11
ENDBRANCH   8  10
ENDBRANCH   1   4
BRANCH   1  15
ATOM     15  C   UNL     1      46.801   6.619  12.203  0.00  0.00    +0.000 C 
BRANCH  15  20
ATOM     16  C   UNL     1      49.564   8.716  15.995  0.00  0.00    +0.000 A 
ATOM     17  C   UNL     1      48.459   9.184  15.299  0.00  0.00    +0.000 A 
ATOM     18  C   UNL     1      47.906   8.395  14.289  0.00  0.00    +0.000 A 
ATOM     19  C   UNL     1      48.464   7.154  13.990  0.00  0.00    +0.000 A 
ATOM     20  N   UNL     1      47.991   6.337  13.002  0.00  0.00    +0.000 N 
ATOM     21  N   UNL     1      49.533   6.692  14.667  0.00  0.00    +0.000 NA
ATOM     22  C   UNL     1      50.058   7.470  15.649  0.00  0.00    +0.000 A 
ATOM     23  H   UNL     1      48.475   5.451  12.902  0.00  0.00    +0.000 HD
BRANCH  16  25
ATOM     24  N   UNL     1      50.675  10.116  17.866  0.00  0.00    +0.000 NA
ATOM     25  C   UNL     1      50.172   9.488  17.030  0.00  0.00    +0.000 C 
ENDBRANCH  16  25
ENDBRANCH  15  20
ENDBRANCH   1  15
TORSDOF 6
ENDMDL
MODEL 6
REMARK VINA RESULT:    -6.171      4.005      7.862
REMARK INTER + INTRA:          -9.413
REMARK INTER:                  -8.573
REMARK INTRA:                  -0.839
REMARK UNBOUND:                -1.078
REMARK  Name = 
REMARK  6 active torsions:
REMARK  status: ('A' for Active; 'I' for Inactive)
REMARK    1  A    between atoms: C_2  and  C_3
REMARK    2  A    between atoms: N_7  and  C_8
REMARK    3  A    between atoms: C_8  and  C_9
REMARK    4  A    between atoms: C_9  and  C_12
REMARK    5  A    between atoms: C_16  and  O_17
REMARK    6  A    between atoms: O_17  and  C_18
REMARK                            x       y       z     vdW  Elec       q    Type
REMARK                         _______ _______ _______ _____ _____    ______ ____
ROOT
ATOM      1  C   UNL     1      46.485   5.027  13.474  0.00  0.00    +0.000 C 
ATOM      2  F   UNL     1      46.899   6.322  13.610  0.00  0.00    +0.000 F 
ATOM      3  F   UNL     1      47.543   4.368  12.912  0.00  0.00    +0.000 F 
ENDROOT
BRANCH   1   4
ATOM      4  C   UNL     1      45.226   4.909  12.636  0.00  0.00    +0.000 A 
ATOM      5  C   UNL     1      44.024   5.487  13.067  0.00  0.00    +0.000 A 
ATOM      6  C   UNL     1      42.888   5.442  12.257  0.00  0.00    +0.000 A 
ATOM      7  C   UNL     1      42.934   4.818  11.007  0.00  0.00    +0.000 A 
ATOM      8  C   UNL     1      44.118   4.230  10.572  0.00  0.00    +0.000 A 
ATOM      9  C   UNL     1      45.257   4.279  11.381  0.00  0.00    +0.000 A 
BRANCH   8  10
ATOM     10  O   UNL     1      44.300   3.626   9.354  0.00  0.00    +0.000 OA
BRANCH  10  11
ATOM     11  C   UNL     1      45.627   3.236   8.941  0.00  0.00    +0.000 C 
ATOM     12  C   UNL     1      46.028   3.528   7.473  0.00  0.00    +0.000 C 
ATOM     13  C   UNL     1      46.643   2.120   7.402  0.00  0.00    +0.000 C 
ATOM     14  C   UNL     1      45.753   1.729   8.592  0.00  0.00    +0.000 C 
ENDBRANCH  10  11
ENDBRANCH   8  10
ENDBRANCH   1   4
BRANCH   1  15
ATOM     15  C   UNL     1      46.222   4.436  14.881  0.00  0.00    +0.000 C 
BRANCH  15  20
ATOM     16  C   UNL     1      50.343   4.026  17.924  0.00  0.00    +0.000 A 
ATOM     17  C   UNL     1      49.561   5.121  17.583  0.00  0.00    +0.000 A 
ATOM     18  C   UNL     1      48.487   4.943  16.709  0.00  0.00    +0.000 A 
ATOM     19  C   UNL     1      48.213   3.681  16.188  0.00  0.00    +0.000 A 
ATOM     20  N   UNL     1      47.195   3.435  15.311  0.00  0.00    +0.000 N 
ATOM     21  N   UNL     1      48.967   2.614  16.521  0.00  0.00    +0.000 NA
ATOM     22  C   UNL     1      50.005   2.801  17.375  0.00  0.00    +0.000 A 
ATOM     23  H   UNL     1      47.090   2.468  15.025  0.00  0.00    +0.000 HD
BRANCH  16  25
ATOM     24  N   UNL     1      52.356   4.258  19.533  0.00  0.00    +0.000 NA
ATOM     25  C   UNL     1      51.457   4.157  18.807  0.00  0.00    +0.000 C 
ENDBRANCH  16  25
ENDBRANCH  15  20
ENDBRANCH   1  15
TORSDOF 6
ENDMDL
MODEL 7
REMARK VINA RESULT:    -5.977      4.052      6.998
REMARK INTER + INTRA:          -9.151
REMARK INTER:                  -8.500
REMARK INTRA:                  -0.651
REMARK UNBOUND:                -1.078
REMARK  Name = 
REMARK  6 active torsions:
REMARK  status: ('A' for Active; 'I' for Inactive)
REMARK    1  A    between atoms: C_2  and  C_3
REMARK    2  A    between atoms: N_7  and  C_8
REMARK    3  A    between atoms: C_8  and  C_9
REMARK    4  A    between atoms: C_9  and  C_12
REMARK    5  A    between atoms: C_16  and  O_17
REMARK    6  A    between atoms: O_17  and  C_18
REMARK                            x       y       z     vdW  Elec       q    Type
REMARK                         _______ _______ _______ _____ _____    ______ ____
ROOT
ATOM      1  C   UNL     1      46.615   4.739  13.833  0.00  0.00    +0.000 C 
ATOM      2  F   UNL     1      47.599   3.873  13.451  0.00  0.00    +0.000 F 
ATOM      3  F   UNL     1      46.333   4.412  15.130  0.00  0.00    +0.000 F 
ENDROOT
BRANCH   1   4
ATOM      4  C   UNL     1      45.390   4.651  12.942  0.00  0.00    +0.000 A 
ATOM      5  C   UNL     1      44.428   5.672  12.948  0.00  0.00    +0.000 A 
ATOM      6  C   UNL     1      43.343   5.624  12.071  0.00  0.00    +0.000 A 
ATOM      7  C   UNL     1      43.201   4.559  11.177  0.00  0.00    +0.000 A 
ATOM      8  C   UNL     1      44.143   3.534  11.168  0.00  0.00    +0.000 A 
ATOM      9  C   UNL     1      45.232   3.583  12.044  0.00  0.00    +0.000 A 
BRANCH   8  10
ATOM     10  O   UNL     1      44.137   2.461  10.314  0.00  0.00    +0.000 OA
BRANCH  10  11
ATOM     11  C   UNL     1      44.499   2.647   8.930  0.00  0.00    +0.000 C 
ATOM     12  C   UNL     1      45.804   1.969   8.440  0.00  0.00    +0.000 C 
ATOM     13  C   UNL     1      46.156   3.270   7.700  0.00  0.00    +0.000 C 
ATOM     14  C   UNL     1      45.193   4.006   8.644  0.00  0.00    +0.000 C 
ENDBRANCH  10  11
ENDBRANCH   8  10
ENDBRANCH   1   4
BRANCH   1  15
ATOM     15  C   UNL     1      47.176   6.182  13.794  0.00  0.00    +0.000 C 
BRANCH  15  20
ATOM     16  C   UNL     1      51.506   8.548  12.356  0.00  0.00    +0.000 A 
ATOM     17  C   UNL     1      50.921   8.384  13.604  0.00  0.00    +0.000 A 
ATOM     18  C   UNL     1      49.713   7.693  13.705  0.00  0.00    +0.000 A 
ATOM     19  C   UNL     1      49.106   7.180  12.561  0.00  0.00    +0.000 A 
ATOM     20  N   UNL     1      47.913   6.514  12.578  0.00  0.00    +0.000 N 
ATOM     21  N   UNL     1      49.672   7.332  11.347  0.00  0.00    +0.000 NA
ATOM     22  C   UNL     1      50.849   8.003  11.266  0.00  0.00    +0.000 A 
ATOM     23  H   UNL     1      47.592   6.173  11.678  0.00  0.00    +0.000 HD
BRANCH  16  25
ATOM     24  N   UNL     1      53.736   9.831  12.082  0.00  0.00    +0.000 NA
ATOM     25  C   UNL     1      52.736   9.253  12.199  0.00  0.00    +0.000 C 
ENDBRANCH  16  25
ENDBRANCH  15  20
ENDBRANCH   1  15
TORSDOF 6
ENDMDL
MODEL 8
REMARK VINA RESULT:    -5.869      4.274      7.952
REMARK INTER + INTRA:          -9.005
REMARK INTER:                  -8.215
REMARK INTRA:                  -0.790
REMARK UNBOUND:                -1.078
REMARK  Name = 
REMARK  6 active torsions:
REMARK  status: ('A' for Active; 'I' for Inactive)
REMARK    1  A    between atoms: C_2  and  C_3
REMARK    2  A    between atoms: N_7  and  C_8
REMARK    3  A    between atoms: C_8  and  C_9
REMARK    4  A    between atoms: C_9  and  C_12
REMARK    5  A    between atoms: C_16  and  O_17
REMARK    6  A    between atoms: O_17  and  C_18
REMARK                            x       y       z     vdW  Elec       q    Type
REMARK                         _______ _______ _______ _____ _____    ______ ____
ROOT
ATOM      1  C   UNL     1      47.070   6.323  12.344  0.00  0.00    +0.000 C 
ATOM      2  F   UNL     1      47.424   7.199  11.358  0.00  0.00    +0.000 F 
ATOM      3  F   UNL     1      48.166   5.528  12.530  0.00  0.00    +0.000 F 
ENDROOT
BRANCH   1   4
ATOM      4  C   UNL     1      45.834   5.519  11.985  0.00  0.00    +0.000 A 
ATOM      5  C   UNL     1      44.953   5.079  12.984  0.00  0.00    +0.000 A 
ATOM      6  C   UNL     1      43.778   4.407  12.643  0.00  0.00    +0.000 A 
ATOM      7  C   UNL     1      43.466   4.161  11.303  0.00  0.00    +0.000 A 
ATOM      8  C   UNL     1      44.337   4.582  10.302  0.00  0.00    +0.000 A 
ATOM      9  C   UNL     1      45.512   5.259  10.643  0.00  0.00    +0.000 A 
BRANCH   8  10
ATOM     10  O   UNL     1      44.124   4.437   8.956  0.00  0.00    +0.000 OA
BRANCH  10  11
ATOM     11  C   UNL     1      44.544   3.226   8.292  0.00  0.00    +0.000 C 
ATOM     12  C   UNL     1      45.253   2.152   9.156  0.00  0.00    +0.000 C 
ATOM     13  C   UNL     1      46.280   1.977   8.025  0.00  0.00    +0.000 C 
ATOM     14  C   UNL     1      45.882   3.371   7.518  0.00  0.00    +0.000 C 
ENDBRANCH  10  11
ENDBRANCH   8  10
ENDBRANCH   1   4
BRANCH   1  15
ATOM     15  C   UNL     1      46.804   7.118  13.646  0.00  0.00    +0.000 C 
BRANCH  15  20
ATOM     16  C   UNL     1      50.021   5.618  17.364  0.00  0.00    +0.000 A 
ATOM     17  C   UNL     1      48.850   5.051  16.880  0.00  0.00    +0.000 A 
ATOM     18  C   UNL     1      48.158   5.691  15.850  0.00  0.00    +0.000 A 
ATOM     19  C   UNL     1      48.643   6.885  15.323  0.00  0.00    +0.000 A 
ATOM     20  N   UNL     1      48.008   7.580  14.331  0.00  0.00    +0.000 N 
ATOM     21  N   UNL     1      49.782   7.438  15.785  0.00  0.00    +0.000 NA
ATOM     22  C   UNL     1      50.445   6.802  16.784  0.00  0.00    +0.000 A 
ATOM     23  H   UNL     1      48.478   8.424  14.022  0.00  0.00    +0.000 HD
BRANCH  16  25
ATOM     24  N   UNL     1      51.367   4.504  19.272  0.00  0.00    +0.000 NA
ATOM     25  C   UNL     1      50.760   5.007  18.420  0.00  0.00    +0.000 C 
ENDBRANCH  16  25
ENDBRANCH  15  20
ENDBRANCH   1  15
TORSDOF 6
ENDMDL
MODEL 9
REMARK VINA RESULT:    -5.748      3.654      5.215
REMARK INTER + INTRA:          -8.842
REMARK INTER:                  -7.691
REMARK INTRA:                  -1.151
REMARK UNBOUND:                -1.078
REMARK  Name = 
REMARK  6 active torsions:
REMARK  status: ('A' for Active; 'I' for Inactive)
REMARK    1  A    between atoms: C_2  and  C_3
REMARK    2  A    between atoms: N_7  and  C_8
REMARK    3  A    between atoms: C_8  and  C_9
REMARK    4  A    between atoms: C_9  and  C_12
REMARK    5  A    between atoms: C_16  and  O_17
REMARK    6  A    between atoms: O_17  and  C_18
REMARK                            x       y       z     vdW  Elec       q    Type
REMARK                         _______ _______ _______ _____ _____    ______ ____
ROOT
ATOM      1  C   UNL     1      48.674   8.226  12.754  0.00  0.00    +0.000 C 
ATOM      2  F   UNL     1      48.676   7.327  11.726  0.00  0.00    +0.000 F 
ATOM      3  F   UNL     1      49.187   9.378  12.226  0.00  0.00    +0.000 F 
ENDROOT
BRANCH   1   4
ATOM      4  C   UNL     1      49.474   7.738  13.948  0.00  0.00    +0.000 A 
ATOM      5  C   UNL     1      50.826   8.083  14.091  0.00  0.00    +0.000 A 
ATOM      6  C   UNL     1      51.536   7.697  15.229  0.00  0.00    +0.000 A 
ATOM      7  C   UNL     1      50.910   6.960  16.238  0.00  0.00    +0.000 A 
ATOM      8  C   UNL     1      49.572   6.601  16.104  0.00  0.00    +0.000 A 
ATOM      9  C   UNL     1      48.859   6.992  14.966  0.00  0.00    +0.000 A 
BRANCH   8  10
ATOM     10  O   UNL     1      48.838   5.918  17.039  0.00  0.00    +0.000 OA
BRANCH  10  11
ATOM     11  C   UNL     1      48.601   4.505  16.868  0.00  0.00    +0.000 C 
ATOM     12  C   UNL     1      47.141   4.057  16.601  0.00  0.00    +0.000 C 
ATOM     13  C   UNL     1      47.349   2.913  17.608  0.00  0.00    +0.000 C 
ATOM     14  C   UNL     1      48.512   3.721  18.205  0.00  0.00    +0.000 C 
ENDBRANCH  10  11
ENDBRANCH   8  10
ENDBRANCH   1   4
BRANCH   1  15
ATOM     15  C   UNL     1      47.211   8.486  13.189  0.00  0.00    +0.000 C 
BRANCH  15  20
ATOM     16  C   UNL     1      44.296   4.438  11.950  0.00  0.00    +0.000 A 
ATOM     17  C   UNL     1      45.274   4.601  12.921  0.00  0.00    +0.000 A 
ATOM     18  C   UNL     1      45.927   5.830  13.030  0.00  0.00    +0.000 A 
ATOM     19  C   UNL     1      45.596   6.873  12.170  0.00  0.00    +0.000 A 
ATOM     20  N   UNL     1      46.207   8.096  12.202  0.00  0.00    +0.000 N 
ATOM     21  N   UNL     1      44.643   6.722  11.229  0.00  0.00    +0.000 NA
ATOM     22  C   UNL     1      44.014   5.523  11.137  0.00  0.00    +0.000 A 
ATOM     23  H   UNL     1      45.857   8.775  11.535  0.00  0.00    +0.000 HD
BRANCH  16  25
ATOM     24  N   UNL     1      43.037   2.194  11.673  0.00  0.00    +0.000 NA
ATOM     25  C   UNL     1      43.606   3.199  11.792  0.00  0.00    +0.000 C 
ENDBRANCH  16  25
ENDBRANCH  15  20
ENDBRANCH   1  15
TORSDOF 6
ENDMDL
