MODEL 1
REMARK VINA RESULT:    -7.910      0.000      0.000
REMARK INTER + INTRA:          -9.495
REMARK INTER:                  -9.297
REMARK INTRA:                  -0.198
REMARK UNBOUND:                -0.198
REMARK  Name = 
REMARK  4 active torsions:
REMARK  status: ('A' for Active; 'I' for Inactive)
REMARK    1  A    between atoms: C_1  and  S_2
REMARK    2  A    between atoms: S_2  and  N_5
REMARK    3  A    between atoms: C_10  and  C_11
REMARK    4  A    between atoms: C_11  and  N_12
REMARK                            x       y       z     vdW  Elec       q    Type
REMARK                         _______ _______ _______ _____ _____    ______ ____
ROOT
ATOM      1  N   UNL     1      44.418   6.795  12.910  0.00  0.00    +0.000 N 
ATOM      2  C   UNL     1      44.807   5.465  12.726  0.00  0.00    +0.000 A 
ATOM      3  N   UNL     1      45.657   4.962  13.606  0.00  0.00    +0.000 NA
ATOM      4  C   UNL     1      45.972   3.697  13.350  0.00  0.00    +0.000 A 
ATOM      5  N   UNL     1      45.561   2.984  12.301  0.00  0.00    +0.000 NA
ATOM      6  C   UNL     1      44.728   3.624  11.469  0.00  0.00    +0.000 A 
ATOM      7  N   UNL     1      44.293   4.874  11.658  0.00  0.00    +0.000 NA
ATOM      8  H   UNL     1      43.512   6.956  12.476  0.00  0.00    +0.000 HD
ENDROOT
BRANCH   1  10
ATOM      9  C   UNL     1      44.475   8.952  11.285  0.00  0.00    +0.000 C 
ATOM     10  S   UNL     1      45.503   7.910  12.301  0.00  0.00    +0.000 S 
ATOM     11  O   UNL     1      46.368   7.164  11.411  0.00  0.00    +0.000 OA
ATOM     12  O   UNL     1      46.062   8.706  13.374  0.00  0.00    +0.000 OA
ENDBRANCH   1  10
BRANCH   6  13
ATOM     13  C   UNL     1      44.316   2.919  10.205  0.00  0.00    +0.000 C 
BRANCH  13  14
ATOM     14  N   UNL     1      45.182   3.268   9.086  0.00  0.00    +0.000 N 
ATOM     15  C   UNL     1      45.456   4.557   8.695  0.00  0.00    +0.000 A 
ATOM     16  C   UNL     1      46.396   4.506   7.692  0.00  0.00    +0.000 A 
ATOM     17  C   UNL     1      46.714   3.139   7.462  0.00  0.00    +0.000 A 
ATOM     18  C   UNL     1      47.592   2.477   6.595  0.00  0.00    +0.000 A 
ATOM     19  N   UNL     1      47.684   1.125   6.603  0.00  0.00    +0.000 NA
ATOM     20  C   UNL     1      46.907   0.427   7.458  0.00  0.00    +0.000 A 
ATOM     21  C   UNL     1      46.009   0.985   8.355  0.00  0.00    +0.000 A 
ATOM     22  C   UNL     1      45.932   2.380   8.340  0.00  0.00    +0.000 A 
ENDBRANCH  13  14
ENDBRANCH   6  13
TORSDOF 3
ENDMDL
MODEL 2
REMARK VINA RESULT:    -7.124      3.090      4.787
REMARK INTER + INTRA:          -8.571
REMARK INTER:                  -8.249
REMARK INTRA:                  -0.322
REMARK UNBOUND:                -0.198
REMARK  Name = 
REMARK  4 active torsions:
REMARK  status: ('A' for Active; 'I' for Inactive)
REMARK    1  A    between atoms: C_1  and  S_2
REMARK    2  A    between atoms: S_2  and  N_5
REMARK    3  A    between atoms: C_10  and  C_11
REMARK    4  A    between atoms: C_11  and  N_12
REMARK                            x       y       z     vdW  Elec       q    Type
REMARK                         _______ _______ _______ _____ _____    ______ ____
ROOT
ATOM      1  N   UNL     1      47.929   3.794  15.405  0.00  0.00    +0.000 N 
ATOM      2  C   UNL     1      47.478   4.865  14.628  0.00  0.00    +0.000 A 
ATOM      3  N   UNL     1      48.250   5.938  14.580  0.00  0.00    +0.000 NA
ATOM      4  C   UNL     1      47.741   6.904  13.824  0.00  0.00    +0.000 A 
ATOM      5  N   UNL     1      46.557   6.878  13.212  0.00  0.00    +0.000 NA
ATOM      6  C   UNL     1      45.859   5.744  13.368  0.00  0.00    +0.000 A 
ATOM      7  N   UNL     1      46.298   4.683  14.054  0.00  0.00    +0.000 NA
ATOM      8  H   UNL     1      47.518   2.925  15.071  0.00  0.00    +0.000 HD
ENDROOT
BRANCH   1  10
ATOM      9  C   UNL     1      48.926   3.048  17.801  0.00  0.00    +0.000 C 
ATOM     10  S   UNL     1      47.592   3.948  17.034  0.00  0.00    +0.000 S 
ATOM     11  O   UNL     1      46.380   3.186  17.254  0.00  0.00    +0.000 OA
ATOM     12  O   UNL     1      47.672   5.337  17.436  0.00  0.00    +0.000 OA
ENDBRANCH   1  10
BRANCH   6  13
ATOM     13  C   UNL     1      44.467   5.689  12.802  0.00  0.00    +0.000 C 
BRANCH  13  14
ATOM     14  N   UNL     1      44.256   4.488  12.004  0.00  0.00    +0.000 N 
ATOM     15  C   UNL     1      43.490   3.419  12.407  0.00  0.00    +0.000 A 
ATOM     16  C   UNL     1      43.420   2.529  11.361  0.00  0.00    +0.000 A 
ATOM     17  C   UNL     1      44.165   3.071  10.277  0.00  0.00    +0.000 A 
ATOM     18  C   UNL     1      44.439   2.640   8.973  0.00  0.00    +0.000 A 
ATOM     19  N   UNL     1      45.200   3.391   8.141  0.00  0.00    +0.000 NA
ATOM     20  C   UNL     1      45.695   4.562   8.596  0.00  0.00    +0.000 A 
ATOM     21  C   UNL     1      45.483   5.077   9.865  0.00  0.00    +0.000 A 
ATOM     22  C   UNL     1      44.689   4.295  10.707  0.00  0.00    +0.000 A 
ENDBRANCH  13  14
ENDBRANCH   6  13
TORSDOF 3
ENDMDL
MODEL 3
REMARK VINA RESULT:    -7.061      1.870      2.694
REMARK INTER + INTRA:          -8.498
REMARK INTER:                  -8.436
REMARK INTRA:                  -0.062
REMARK UNBOUND:                -0.198
REMARK  Name = 
REMARK  4 active torsions:
REMARK  status: ('A' for Active; 'I' for Inactive)
REMARK    1  A    between atoms: C_1  and  S_2
REMARK    2  A    between atoms: S_2  and  N_5
REMARK    3  A    between atoms: C_10  and  C_11
REMARK    4  A    between atoms: C_11  and  N_12
REMARK                            x       y       z     vdW  Elec       q    Type
REMARK                         _______ _______ _______ _____ _____    ______ ____
ROOT
ATOM      1  N   UNL     1      46.507   6.686  12.979  0.00  0.00    +0.000 N 
ATOM      2  C   UNL     1      45.477   5.928  12.414  0.00  0.00    +0.000 A 
ATOM      3  N   UNL     1      44.588   5.409  13.245  0.00  0.00    +0.000 NA
ATOM      4  C   UNL     1      43.652   4.704  12.621  0.00  0.00    +0.000 A 
ATOM      5  N   UNL     1      43.599   4.458  11.312  0.00  0.00    +0.000 NA
ATOM      6  C   UNL     1      44.578   5.017  10.586  0.00  0.00    +0.000 A 
ATOM      7  N   UNL     1      45.537   5.796  11.098  0.00  0.00    +0.000 NA
ATOM      8  H   UNL     1      46.868   7.347  12.295  0.00  0.00    +0.000 HD
ENDROOT
BRANCH   1  10
ATOM      9  C   UNL     1      48.041   6.447  15.189  0.00  0.00    +0.000 C 
ATOM     10  S   UNL     1      47.780   5.773  13.560  0.00  0.00    +0.000 S 
ATOM     11  O   UNL     1      48.925   6.146  12.754  0.00  0.00    +0.000 OA
ATOM     12  O   UNL     1      47.389   4.385  13.684  0.00  0.00    +0.000 OA
ENDBRANCH   1  10
BRANCH   6  13
ATOM     13  C   UNL     1      44.646   4.686   9.120  0.00  0.00    +0.000 C 
BRANCH  13  14
ATOM     14  N   UNL     1      45.060   3.308   8.897  0.00  0.00    +0.000 N 
ATOM     15  C   UNL     1      44.388   2.211   9.383  0.00  0.00    +0.000 A 
ATOM     16  C   UNL     1      44.992   1.084   8.879  0.00  0.00    +0.000 A 
ATOM     17  C   UNL     1      46.071   1.501   8.051  0.00  0.00    +0.000 A 
ATOM     18  C   UNL     1      47.019   0.824   7.274  0.00  0.00    +0.000 A 
ATOM     19  N   UNL     1      47.953   1.509   6.570  0.00  0.00    +0.000 NA
ATOM     20  C   UNL     1      47.955   2.857   6.636  0.00  0.00    +0.000 A 
ATOM     21  C   UNL     1      47.062   3.620   7.373  0.00  0.00    +0.000 A 
ATOM     22  C   UNL     1      46.101   2.899   8.086  0.00  0.00    +0.000 A 
ENDBRANCH  13  14
ENDBRANCH   6  13
TORSDOF 3
ENDMDL
MODEL 4
REMARK VINA RESULT:    -6.431      3.512      5.105
REMARK INTER + INTRA:          -7.757
REMARK INTER:                  -7.236
REMARK INTRA:                  -0.521
REMARK UNBOUND:                -0.198
REMARK  Name = 
REMARK  4 active torsions:
REMARK  status: ('A' for Active; 'I' for Inactive)
REMARK    1  A    between atoms: C_1  and  S_2
REMARK    2  A    between atoms: S_2  and  N_5
REMARK    3  A    between atoms: C_10  and  C_11
REMARK    4  A    between atoms: C_11  and  N_12
REMARK                            x       y       z     vdW  Elec       q    Type
REMARK                         _______ _______ _______ _____ _____    ______ ____
ROOT
ATOM      1  N   UNL     1      47.741   3.585  15.838  0.00  0.00    +0.000 N 
ATOM      2  C   UNL     1      47.661   4.779  15.116  0.00  0.00    +0.000 A 
ATOM      3  N   UNL     1      48.656   5.639  15.265  0.00  0.00    +0.000 NA
ATOM      4  C   UNL     1      48.494   6.743  14.545  0.00  0.00    +0.000 A 
ATOM      5  N   UNL     1      47.435   7.036  13.790  0.00  0.00    +0.000 NA
ATOM      6  C   UNL     1      46.483   6.093  13.751  0.00  0.00    +0.000 A 
ATOM      7  N   UNL     1      46.567   4.918  14.384  0.00  0.00    +0.000 NA
ATOM      8  H   UNL     1      47.196   2.861  15.376  0.00  0.00    +0.000 HD
ENDROOT
BRANCH   1  10
ATOM      9  C   UNL     1      48.725   3.527  18.353  0.00  0.00    +0.000 C 
ATOM     10  S   UNL     1      47.218   3.713  17.420  0.00  0.00    +0.000 S 
ATOM     11  O   UNL     1      46.416   2.531  17.661  0.00  0.00    +0.000 OA
ATOM     12  O   UNL     1      46.675   5.033  17.665  0.00  0.00    +0.000 OA
ENDBRANCH   1  10
BRANCH   6  13
ATOM     13  C   UNL     1      45.211   6.406  13.011  0.00  0.00    +0.000 C 
BRANCH  13  14
ATOM     14  N   UNL     1      45.154   5.727  11.723  0.00  0.00    +0.000 N 
ATOM     15  C   UNL     1      45.799   6.166  10.591  0.00  0.00    +0.000 A 
ATOM     16  C   UNL     1      45.621   5.221   9.607  0.00  0.00    +0.000 A 
ATOM     17  C   UNL     1      44.844   4.164  10.155  0.00  0.00    +0.000 A 
ATOM     18  C   UNL     1      44.365   2.948   9.652  0.00  0.00    +0.000 A 
ATOM     19  N   UNL     1      43.630   2.118  10.432  0.00  0.00    +0.000 NA
ATOM     20  C   UNL     1      43.364   2.489  11.703  0.00  0.00    +0.000 A 
ATOM     21  C   UNL     1      43.790   3.667  12.295  0.00  0.00    +0.000 A 
ATOM     22  C   UNL     1      44.554   4.508  11.480  0.00  0.00    +0.000 A 
ENDBRANCH  13  14
ENDBRANCH   6  13
TORSDOF 3
ENDMDL
MODEL 5
REMARK VINA RESULT:    -6.374      2.522      3.780
REMARK INTER + INTRA:          -7.691
REMARK INTER:                  -7.433
REMARK INTRA:                  -0.257
REMARK UNBOUND:                -0.198
REMARK  Name = 
REMARK  4 active torsions:
REMARK  status: ('A' for Active; 'I' for Inactive)
REMARK    1  A    between atoms: C_1  and  S_2
REMARK    2  A    between atoms: S_2  and  N_5
REMARK    3  A    between atoms: C_10  and  C_11
REMARK    4  A    between atoms: C_11  and  N_12
REMARK                            x       y       z     vdW  Elec       q    Type
REMARK                         _______ _______ _______ _____ _____    ______ ____
ROOT
ATOM      1  N   UNL     1      47.393   9.374  13.726  0.00  0.00    +0.000 N 
ATOM      2  C   UNL     1      47.026   8.048  13.482  0.00  0.00    +0.000 A 
ATOM      3  N   UNL     1      47.871   7.108  13.874  0.00  0.00    +0.000 NA
ATOM      4  C   UNL     1      47.441   5.882  13.597  0.00  0.00    +0.000 A 
ATOM      5  N   UNL     1      46.323   5.574  12.941  0.00  0.00    +0.000 NA
ATOM      6  C   UNL     1      45.572   6.621  12.571  0.00  0.00    +0.000 A 
ATOM      7  N   UNL     1      45.873   7.894  12.849  0.00  0.00    +0.000 NA
ATOM      8  H   UNL     1      46.565   9.961  13.776  0.00  0.00    +0.000 HD
ENDROOT
BRANCH   1  10
ATOM      9  C   UNL     1      49.941  10.241  13.496  0.00  0.00    +0.000 C 
ATOM     10  S   UNL     1      48.429  10.013  12.581  0.00  0.00    +0.000 S 
ATOM     11  O   UNL     1      47.908  11.331  12.279  0.00  0.00    +0.000 OA
ATOM     12  O   UNL     1      48.662   9.054  11.522  0.00  0.00    +0.000 OA
ENDBRANCH   1  10
BRANCH   6  13
ATOM     13  C   UNL     1      44.355   6.353  11.727  0.00  0.00    +0.000 C 
BRANCH  13  14
ATOM     14  N   UNL     1      44.228   4.940  11.397  0.00  0.00    +0.000 N 
ATOM     15  C   UNL     1      43.507   4.036  12.141  0.00  0.00    +0.000 A 
ATOM     16  C   UNL     1      43.511   2.835  11.470  0.00  0.00    +0.000 A 
ATOM     17  C   UNL     1      44.258   3.008  10.272  0.00  0.00    +0.000 A 
ATOM     18  C   UNL     1      44.590   2.166   9.204  0.00  0.00    +0.000 A 
ATOM     19  N   UNL     1      45.336   2.623   8.169  0.00  0.00    +0.000 NA
ATOM     20  C   UNL     1      45.758   3.905   8.190  0.00  0.00    +0.000 A 
ATOM     21  C   UNL     1      45.484   4.817   9.198  0.00  0.00    +0.000 A 
ATOM     22  C   UNL     1      44.707   4.332  10.253  0.00  0.00    +0.000 A 
ENDBRANCH  13  14
ENDBRANCH   6  13
TORSDOF 3
ENDMDL
MODEL 6
REMARK VINA RESULT:    -6.374      3.234      6.043
REMARK INTER + INTRA:          -7.690
REMARK INTER:                  -7.308
REMARK INTRA:                  -0.382
REMARK UNBOUND:                -0.198
REMARK  Name = 
REMARK  4 active torsions:
REMARK  status: ('A' for Active; 'I' for Inactive)
REMARK    1  A    between atoms: C_1  and  S_2
REMARK    2  A    between atoms: S_2  and  N_5
REMARK    3  A    between atoms: C_10  and  C_11
REMARK    4  A    between atoms: C_11  and  N_12
REMARK                            x       y       z     vdW  Elec       q    Type
REMARK                         _______ _______ _______ _____ _____    ______ ____
ROOT
ATOM      1  N   UNL     1      45.307   2.603   9.750  0.00  0.00    +0.000 N 
ATOM      2  C   UNL     1      44.727   3.304  10.811  0.00  0.00    +0.000 A 
ATOM      3  N   UNL     1      43.405   3.334  10.859  0.00  0.00    +0.000 NA
ATOM      4  C   UNL     1      42.945   4.024  11.897  0.00  0.00    +0.000 A 
ATOM      5  N   UNL     1      43.683   4.689  12.785  0.00  0.00    +0.000 NA
ATOM      6  C   UNL     1      45.009   4.604  12.603  0.00  0.00    +0.000 A 
ATOM      7  N   UNL     1      45.587   3.888  11.632  0.00  0.00    +0.000 NA
ATOM      8  H   UNL     1      46.242   2.295  10.006  0.00  0.00    +0.000 HD
ENDROOT
BRANCH   1  10
ATOM      9  C   UNL     1      46.778   2.715   7.487  0.00  0.00    +0.000 C 
ATOM     10  S   UNL     1      45.407   3.480   8.331  0.00  0.00    +0.000 S 
ATOM     11  O   UNL     1      45.833   4.808   8.724  0.00  0.00    +0.000 OA
ATOM     12  O   UNL     1      44.208   3.296   7.540  0.00  0.00    +0.000 OA
ENDBRANCH   1  10
BRANCH   6  13
ATOM     13  C   UNL     1      45.898   5.423  13.498  0.00  0.00    +0.000 C 
BRANCH  13  14
ATOM     14  N   UNL     1      46.177   6.734  12.928  0.00  0.00    +0.000 N 
ATOM     15  C   UNL     1      45.220   7.695  12.699  0.00  0.00    +0.000 A 
ATOM     16  C   UNL     1      45.858   8.836  12.271  0.00  0.00    +0.000 A 
ATOM     17  C   UNL     1      47.255   8.568  12.239  0.00  0.00    +0.000 A 
ATOM     18  C   UNL     1      48.384   9.327  11.907  0.00  0.00    +0.000 A 
ATOM     19  N   UNL     1      49.625   8.788  11.975  0.00  0.00    +0.000 NA
ATOM     20  C   UNL     1      49.753   7.501  12.362  0.00  0.00    +0.000 A 
ATOM     21  C   UNL     1      48.702   6.666  12.711  0.00  0.00    +0.000 A 
ATOM     22  C   UNL     1      47.430   7.240  12.644  0.00  0.00    +0.000 A 
ENDBRANCH  13  14
ENDBRANCH   6  13
TORSDOF 3
ENDMDL
MODEL 7
REMARK VINA RESULT:    -6.300      4.691      6.261
REMARK INTER + INTRA:          -7.604
REMARK INTER:                  -7.366
REMARK INTRA:                  -0.237
REMARK UNBOUND:                -0.198
REMARK  Name = 
REMARK  4 active torsions:
REMARK  status: ('A' for Active; 'I' for Inactive)
REMARK    1  A    between atoms: C_1  and  S_2
REMARK    2  A    between atoms: S_2  and  N_5
REMARK    3  A    between atoms: C_10  and  C_11
REMARK    4  A    between atoms: C_11  and  N_12
REMARK                            x       y       z     vdW  Elec       q    Type
REMARK                         _______ _______ _______ _____ _____    ______ ____
ROOT
ATOM      1  N   UNL     1      49.740   6.376  17.073  0.00  0.00    +0.000 N 
ATOM      2  C   UNL     1      48.665   5.511  16.851  0.00  0.00    +0.000 A 
ATOM      3  N   UNL     1      48.092   4.979  17.918  0.00  0.00    +0.000 NA
ATOM      4  C   UNL     1      47.085   4.169  17.611  0.00  0.00    +0.000 A 
ATOM      5  N   UNL     1      46.693   3.840  16.380  0.00  0.00    +0.000 NA
ATOM      6  C   UNL     1      47.378   4.425  15.387  0.00  0.00    +0.000 A 
ATOM      7  N   UNL     1      48.368   5.303  15.577  0.00  0.00    +0.000 NA
ATOM      8  H   UNL     1      49.837   7.019  16.291  0.00  0.00    +0.000 HD
ENDROOT
BRANCH   1  10
ATOM      9  C   UNL     1      51.551   5.918  19.023  0.00  0.00    +0.000 C 
ATOM     10  S   UNL     1      51.201   5.598  17.306  0.00  0.00    +0.000 S 
ATOM     11  O   UNL     1      52.167   6.345  16.526  0.00  0.00    +0.000 OA
ATOM     12  O   UNL     1      51.046   4.171  17.116  0.00  0.00    +0.000 OA
ENDBRANCH   1  10
BRANCH   6  13
ATOM     13  C   UNL     1      47.065   4.011  13.975  0.00  0.00    +0.000 C 
BRANCH  13  14
ATOM     14  N   UNL     1      46.094   4.903  13.355  0.00  0.00    +0.000 N 
ATOM     15  C   UNL     1      46.229   6.270  13.296  0.00  0.00    +0.000 A 
ATOM     16  C   UNL     1      45.194   6.768  12.540  0.00  0.00    +0.000 A 
ATOM     17  C   UNL     1      44.398   5.668  12.115  0.00  0.00    +0.000 A 
ATOM     18  C   UNL     1      43.246   5.549  11.328  0.00  0.00    +0.000 A 
ATOM     19  N   UNL     1      42.696   4.334  11.086  0.00  0.00    +0.000 NA
ATOM     20  C   UNL     1      43.277   3.241  11.624  0.00  0.00    +0.000 A 
ATOM     21  C   UNL     1      44.416   3.251  12.415  0.00  0.00    +0.000 A 
ATOM     22  C   UNL     1      44.975   4.510  12.648  0.00  0.00    +0.000 A 
ENDBRANCH  13  14
ENDBRANCH   6  13
TORSDOF 3
ENDMDL
MODEL 8
REMARK VINA RESULT:    -6.179      4.706      6.752
REMARK INTER + INTRA:          -7.460
REMARK INTER:                  -7.196
REMARK INTRA:                  -0.264
REMARK UNBOUND:                -0.198
REMARK  Name = 
REMARK  4 active torsions:
REMARK  status: ('A' for Active; 'I' for Inactive)
REMARK    1  A    between atoms: C_1  and  S_2
REMARK    2  A    between atoms: S_2  and  N_5
REMARK    3  A    between atoms: C_10  and  C_11
REMARK    4  A    between atoms: C_11  and  N_12
REMARK                            x       y       z     vdW  Elec       q    Type
REMARK                         _______ _______ _______ _____ _____    ______ ____
ROOT
ATOM      1  N   UNL     1      45.243   3.495  11.690  0.00  0.00    +0.000 N 
ATOM      2  C   UNL     1      46.072   4.027  12.682  0.00  0.00    +0.000 A 
ATOM      3  N   UNL     1      46.444   3.211  13.655  0.00  0.00    +0.000 NA
ATOM      4  C   UNL     1      47.225   3.804  14.551  0.00  0.00    +0.000 A 
ATOM      5  N   UNL     1      47.575   5.090  14.557  0.00  0.00    +0.000 NA
ATOM      6  C   UNL     1      47.105   5.813  13.531  0.00  0.00    +0.000 A 
ATOM      7  N   UNL     1      46.362   5.311  12.539  0.00  0.00    +0.000 NA
ATOM      8  H   UNL     1      45.346   4.025  10.828  0.00  0.00    +0.000 HD
ENDROOT
BRANCH   1  10
ATOM      9  C   UNL     1      42.978   4.907  11.280  0.00  0.00    +0.000 C 
ATOM     10  S   UNL     1      43.624   3.465  12.104  0.00  0.00    +0.000 S 
ATOM     11  O   UNL     1      43.582   3.730  13.527  0.00  0.00    +0.000 OA
ATOM     12  O   UNL     1      42.986   2.286  11.555  0.00  0.00    +0.000 OA
ENDBRANCH   1  10
BRANCH   6  13
ATOM     13  C   UNL     1      47.365   7.295  13.535  0.00  0.00    +0.000 C 
BRANCH  13  14
ATOM     14  N   UNL     1      48.664   7.616  12.960  0.00  0.00    +0.000 N 
ATOM     15  C   UNL     1      48.863   7.944  11.639  0.00  0.00    +0.000 A 
ATOM     16  C   UNL     1      50.183   8.299  11.483  0.00  0.00    +0.000 A 
ATOM     17  C   UNL     1      50.816   8.190  12.752  0.00  0.00    +0.000 A 
ATOM     18  C   UNL     1      52.116   8.426  13.214  0.00  0.00    +0.000 A 
ATOM     19  N   UNL     1      52.434   8.230  14.517  0.00  0.00    +0.000 NA
ATOM     20  C   UNL     1      51.474   7.797  15.361  0.00  0.00    +0.000 A 
ATOM     21  C   UNL     1      50.160   7.534  15.005  0.00  0.00    +0.000 A 
ATOM     22  C   UNL     1      49.847   7.749  13.660  0.00  0.00    +0.000 A 
ENDBRANCH  13  14
ENDBRANCH   6  13
TORSDOF 3
ENDMDL
MODEL 9
REMARK VINA RESULT:    -6.146      4.748      8.077
REMARK INTER + INTRA:          -7.421
REMARK INTER:                  -6.992
REMARK INTRA:                  -0.430
REMARK UNBOUND:                -0.198
REMARK  Name = 
REMARK  4 active torsions:
REMARK  status: ('A' for Active; 'I' for Inactive)
REMARK    1  A    between atoms: C_1  and  S_2
REMARK    2  A    between atoms: S_2  and  N_5
REMARK    3  A    between atoms: C_10  and  C_11
REMARK    4  A    between atoms: C_11  and  N_12
REMARK                            x       y       z     vdW  Elec       q    Type
REMARK                         _______ _______ _______ _____ _____    ______ ____
ROOT
ATOM      1  N   UNL     1      44.188   4.652  12.888  0.00  0.00    +0.000 N 
ATOM      2  C   UNL     1      45.463   4.938  13.384  0.00  0.00    +0.000 A 
ATOM      3  N   UNL     1      46.140   5.901  12.780  0.00  0.00    +0.000 NA
ATOM      4  C   UNL     1      47.339   6.100  13.315  0.00  0.00    +0.000 A 
ATOM      5  N   UNL     1      47.881   5.393  14.307  0.00  0.00    +0.000 NA
ATOM      6  C   UNL     1      47.102   4.424  14.809  0.00  0.00    +0.000 A 
ATOM      7  N   UNL     1      45.856   4.174  14.392  0.00  0.00    +0.000 NA
ATOM      8  H   UNL     1      43.618   4.229  13.617  0.00  0.00    +0.000 HD
ENDROOT
BRANCH   1  10
ATOM      9  C   UNL     1      43.861   4.755  10.210  0.00  0.00    +0.000 C 
ATOM     10  S   UNL     1      44.187   3.639  11.559  0.00  0.00    +0.000 S 
ATOM     11  O   UNL     1      43.017   2.798  11.712  0.00  0.00    +0.000 OA
ATOM     12  O   UNL     1      45.498   3.050  11.375  0.00  0.00    +0.000 OA
ENDBRANCH   1  10
BRANCH   6  13
ATOM     13  C   UNL     1      47.692   3.514  15.851  0.00  0.00    +0.000 C 
BRANCH  13  14
ATOM     14  N   UNL     1      48.039   4.240  17.066  0.00  0.00    +0.000 N 
ATOM     15  C   UNL     1      47.137   4.945  17.828  0.00  0.00    +0.000 A 
ATOM     16  C   UNL     1      47.790   5.394  18.953  0.00  0.00    +0.000 A 
ATOM     17  C   UNL     1      49.138   4.946  18.881  0.00  0.00    +0.000 A 
ATOM     18  C   UNL     1      50.252   5.076  19.720  0.00  0.00    +0.000 A 
ATOM     19  N   UNL     1      51.442   4.524  19.380  0.00  0.00    +0.000 NA
ATOM     20  C   UNL     1      51.536   3.852  18.213  0.00  0.00    +0.000 A 
ATOM     21  C   UNL     1      50.496   3.667  17.315  0.00  0.00    +0.000 A 
ATOM     22  C   UNL     1      49.274   4.234  17.684  0.00  0.00    +0.000 A 
ENDBRANCH  13  14
ENDBRANCH   6  13
TORSDOF 3
ENDMDL
