MODEL 1
REMARK VINA RESULT:    -8.304      0.000      0.000
REMARK INTER + INTRA:         -12.596
REMARK INTER:                 -11.459
REMARK INTRA:                  -1.136
REMARK UNBOUND:                -1.136
REMARK  Name = 
REMARK  8 active torsions:
REMARK  status: ('A' for Active; 'I' for Inactive)
REMARK    1  A    between atoms: C_1  and  C_2
REMARK    2  A    between atoms: N_7  and  C_8
REMARK    3  A    between atoms: C_12  and  C_13
REMARK    4  A    between atoms: C_13  and  C_14
REMARK    5  A    between atoms: C_14  and  N_15
REMARK    6  A    between atoms: N_15  and  C_16
REMARK    7  A    between atoms: C_19  and  C_20
REMARK    8  A    between atoms: C_20  and  O_22
REMARK                            x       y       z     vdW  Elec       q    Type
REMARK                         _______ _______ _______ _____ _____    ______ ____
ROOT
ATOM      1  C   UNL     1      43.441   5.336  12.294  0.00  0.00    +0.000 C 
ENDROOT
BRANCH   1   6
ATOM      2  C   UNL     1      47.022   6.397  13.220  0.00  0.00    +0.000 A 
ATOM      3  C   UNL     1      47.532   5.157  13.633  0.00  0.00    +0.000 A 
ATOM      4  C   UNL     1      46.758   3.992  13.594  0.00  0.00    +0.000 A 
ATOM      5  C   UNL     1      45.440   4.039  13.150  0.00  0.00    +0.000 A 
ATOM      6  C   UNL     1      44.887   5.250  12.730  0.00  0.00    +0.000 A 
ATOM      7  C   UNL     1      45.695   6.402  12.747  0.00  0.00    +0.000 A 
BRANCH   2  14
ATOM      8  C   UNL     1      50.067   7.999  14.018  0.00  0.00    +0.000 C 
ATOM      9  C   UNL     1      49.192   7.561  12.844  0.00  0.00    +0.000 C 
ATOM     10  C   UNL     1      49.383   8.491  11.622  0.00  0.00    +0.000 C 
ATOM     11  O   UNL     1      48.866   9.810  11.854  0.00  0.00    +0.000 OA
ATOM     12  C   UNL     1      47.457   9.745  12.126  0.00  0.00    +0.000 C 
ATOM     13  C   UNL     1      47.156   8.898  13.370  0.00  0.00    +0.000 C 
ATOM     14  N   UNL     1      47.770   7.564  13.264  0.00  0.00    +0.000 N 
ENDBRANCH   2  14
ENDBRANCH   1   6
BRANCH   1  15
ATOM     15  C   UNL     1      43.098   4.399  11.129  0.00  0.00    +0.000 C 
BRANCH  15  16
ATOM     16  N   UNL     1      43.765   4.825   9.895  0.00  0.00    +0.000 N 
ATOM     17  H   UNL     1      44.010   5.807   9.822  0.00  0.00    +0.000 HD
BRANCH  16  18
ATOM     18  C   UNL     1      44.549   3.948   9.154  0.00  0.00    +0.000 A 
ATOM     19  C   UNL     1      45.523   4.370   8.242  0.00  0.00    +0.000 A 
ATOM     20  C   UNL     1      46.386   3.466   7.603  0.00  0.00    +0.000 A 
ATOM     21  C   UNL     1      46.290   2.098   7.869  0.00  0.00    +0.000 A 
ATOM     22  C   UNL     1      45.331   1.659   8.789  0.00  0.00    +0.000 A 
ATOM     23  C   UNL     1      44.479   2.569   9.422  0.00  0.00    +0.000 A 
BRANCH  21  24
ATOM     24  C   UNL     1      47.208   1.088   7.282  0.00  0.00    +0.000 C 
ATOM     25  O   UNL     1      48.056   1.368   6.453  0.00  0.00    +0.000 OA
BRANCH  24  26
ATOM     26  O   UNL     1      47.050  -0.162   7.770  0.00  0.00    +0.000 OA
ATOM     27  H   UNL     1      46.322  -0.677   7.382  0.00  0.00    +0.000 HD
ENDBRANCH  24  26
ENDBRANCH  21  24
ENDBRANCH  16  18
ENDBRANCH  15  16
ENDBRANCH   1  15
TORSDOF 7
ENDMDL
MODEL 2
REMARK VINA RESULT:    -8.171      2.496      3.341
REMARK INTER + INTRA:         -12.413
REMARK INTER:                 -11.550
REMARK INTRA:                  -0.863
REMARK UNBOUND:                -1.136
REMARK  Name = 
REMARK  8 active torsions:
REMARK  status: ('A' for Active; 'I' for Inactive)
REMARK    1  A    between atoms: C_1  and  C_2
REMARK    2  A    between atoms: N_7  and  C_8
REMARK    3  A    between atoms: C_12  and  C_13
REMARK    4  A    between atoms: C_13  and  C_14
REMARK    5  A    between atoms: C_14  and  N_15
REMARK    6  A    between atoms: N_15  and  C_16
REMARK    7  A    between atoms: C_19  and  C_20
REMARK    8  A    between atoms: C_20  and  O_22
REMARK                            x       y       z     vdW  Elec       q    Type
REMARK                         _______ _______ _______ _____ _____    ______ ____
ROOT
ATOM      1  C   UNL     1      45.173   4.838  12.050  0.00  0.00    +0.000 C 
ENDROOT
BRANCH   1   6
ATOM      2  C   UNL     1      47.931   5.895  14.517  0.00  0.00    +0.000 A 
ATOM      3  C   UNL     1      48.547   6.903  13.758  0.00  0.00    +0.000 A 
ATOM      4  C   UNL     1      48.077   7.261  12.489  0.00  0.00    +0.000 A 
ATOM      5  C   UNL     1      46.981   6.608  11.936  0.00  0.00    +0.000 A 
ATOM      6  C   UNL     1      46.335   5.598  12.652  0.00  0.00    +0.000 A 
ATOM      7  C   UNL     1      46.804   5.278  13.940  0.00  0.00    +0.000 A 
BRANCH   2  14
ATOM      8  C   UNL     1      50.538   5.895  16.900  0.00  0.00    +0.000 C 
ATOM      9  C   UNL     1      49.153   6.474  16.609  0.00  0.00    +0.000 C 
ATOM     10  C   UNL     1      48.379   6.763  17.917  0.00  0.00    +0.000 C 
ATOM     11  O   UNL     1      48.018   5.561  18.615  0.00  0.00    +0.000 OA
ATOM     12  C   UNL     1      47.172   4.747  17.787  0.00  0.00    +0.000 C 
ATOM     13  C   UNL     1      47.872   4.340  16.485  0.00  0.00    +0.000 C 
ATOM     14  N   UNL     1      48.390   5.519  15.770  0.00  0.00    +0.000 N 
ENDBRANCH   2  14
ENDBRANCH   1   6
BRANCH   1  15
ATOM     15  C   UNL     1      44.398   5.640  10.998  0.00  0.00    +0.000 C 
BRANCH  15  16
ATOM     16  N   UNL     1      43.791   4.756   9.999  0.00  0.00    +0.000 N 
ATOM     17  H   UNL     1      42.926   5.072   9.572  0.00  0.00    +0.000 HD
BRANCH  16  18
ATOM     18  C   UNL     1      44.562   3.888   9.235  0.00  0.00    +0.000 A 
ATOM     19  C   UNL     1      45.551   4.319   8.343  0.00  0.00    +0.000 A 
ATOM     20  C   UNL     1      46.400   3.419   7.681  0.00  0.00    +0.000 A 
ATOM     21  C   UNL     1      46.274   2.045   7.901  0.00  0.00    +0.000 A 
ATOM     22  C   UNL     1      45.300   1.596   8.800  0.00  0.00    +0.000 A 
ATOM     23  C   UNL     1      44.462   2.502   9.457  0.00  0.00    +0.000 A 
BRANCH  21  24
ATOM     24  C   UNL     1      47.175   1.037   7.286  0.00  0.00    +0.000 C 
ATOM     25  O   UNL     1      48.033   1.326   6.471  0.00  0.00    +0.000 OA
BRANCH  24  26
ATOM     26  O   UNL     1      46.992  -0.225   7.735  0.00  0.00    +0.000 OA
ATOM     27  H   UNL     1      46.157  -0.387   8.207  0.00  0.00    +0.000 HD
ENDBRANCH  24  26
ENDBRANCH  21  24
ENDBRANCH  16  18
ENDBRANCH  15  16
ENDBRANCH   1  15
TORSDOF 7
ENDMDL
MODEL 3
REMARK VINA RESULT:    -7.812      2.865      4.066
REMARK INTER + INTRA:         -11.916
REMARK INTER:                 -11.031
REMARK INTRA:                  -0.885
REMARK UNBOUND:                -1.136
REMARK  Name = 
REMARK  8 active torsions:
REMARK  status: ('A' for Active; 'I' for Inactive)
REMARK    1  A    between atoms: C_1  and  C_2
REMARK    2  A    between atoms: N_7  and  C_8
REMARK    3  A    between atoms: C_12  and  C_13
REMARK    4  A    between atoms: C_13  and  C_14
REMARK    5  A    between atoms: C_14  and  N_15
REMARK    6  A    between atoms: N_15  and  C_16
REMARK    7  A    between atoms: C_19  and  C_20
REMARK    8  A    between atoms: C_20  and  O_22
REMARK                            x       y       z     vdW  Elec       q    Type
REMARK                         _______ _______ _______ _____ _____    ______ ____
ROOT
ATOM      1  C   UNL     1      45.030   3.977  12.462  0.00  0.00    +0.000 C 
ENDROOT
BRANCH   1   6
ATOM      2  C   UNL     1      47.581   5.062  15.132  0.00  0.00    +0.000 A 
ATOM      3  C   UNL     1      48.103   6.202  14.503  0.00  0.00    +0.000 A 
ATOM      4  C   UNL     1      47.634   6.638  13.258  0.00  0.00    +0.000 A 
ATOM      5  C   UNL     1      46.633   5.933  12.599  0.00  0.00    +0.000 A 
ATOM      6  C   UNL     1      46.082   4.791  13.184  0.00  0.00    +0.000 A 
ATOM      7  C   UNL     1      46.546   4.391  14.451  0.00  0.00    +0.000 A 
BRANCH   2  14
ATOM      8  C   UNL     1      47.189   2.881  17.883  0.00  0.00    +0.000 C 
ATOM      9  C   UNL     1      48.069   3.158  16.663  0.00  0.00    +0.000 C 
ATOM     10  C   UNL     1      49.526   2.697  16.904  0.00  0.00    +0.000 C 
ATOM     11  O   UNL     1      50.194   3.494  17.893  0.00  0.00    +0.000 OA
ATOM     12  C   UNL     1      50.244   4.865  17.468  0.00  0.00    +0.000 C 
ATOM     13  C   UNL     1      48.840   5.450  17.267  0.00  0.00    +0.000 C 
ATOM     14  N   UNL     1      48.041   4.609  16.359  0.00  0.00    +0.000 N 
ENDBRANCH   2  14
ENDBRANCH   1   6
BRANCH   1  15
ATOM     15  C   UNL     1      44.150   4.812  11.525  0.00  0.00    +0.000 C 
BRANCH  15  16
ATOM     16  N   UNL     1      43.806   4.061  10.313  0.00  0.00    +0.000 N 
ATOM     17  H   UNL     1      42.900   4.251   9.897  0.00  0.00    +0.000 HD
BRANCH  16  18
ATOM     18  C   UNL     1      44.787   3.600   9.443  0.00  0.00    +0.000 A 
ATOM     19  C   UNL     1      45.041   2.241   9.219  0.00  0.00    +0.000 A 
ATOM     20  C   UNL     1      45.949   1.804   8.243  0.00  0.00    +0.000 A 
ATOM     21  C   UNL     1      46.633   2.735   7.455  0.00  0.00    +0.000 A 
ATOM     22  C   UNL     1      46.381   4.097   7.655  0.00  0.00    +0.000 A 
ATOM     23  C   UNL     1      45.472   4.520   8.629  0.00  0.00    +0.000 A 
BRANCH  21  24
ATOM     24  C   UNL     1      47.560   2.348   6.361  0.00  0.00    +0.000 C 
ATOM     25  O   UNL     1      48.378   1.453   6.472  0.00  0.00    +0.000 OA
BRANCH  24  26
ATOM     26  O   UNL     1      47.395   3.047   5.216  0.00  0.00    +0.000 OA
ATOM     27  H   UNL     1      47.222   2.517   4.419  0.00  0.00    +0.000 HD
ENDBRANCH  24  26
ENDBRANCH  21  24
ENDBRANCH  16  18
ENDBRANCH  15  16
ENDBRANCH   1  15
TORSDOF 7
ENDMDL
MODEL 4
REMARK VINA RESULT:    -7.476      1.436      2.063
REMARK INTER + INTRA:         -11.454
REMARK INTER:                 -10.670
REMARK INTRA:                  -0.784
REMARK UNBOUND:                -1.136
REMARK  Name = 
REMARK  8 active torsions:
REMARK  status: ('A' for Active; 'I' for Inactive)
REMARK    1  A    between atoms: C_1  and  C_2
REMARK    2  A    between atoms: N_7  and  C_8
REMARK    3  A    between atoms: C_12  and  C_13
REMARK    4  A    between atoms: C_13  and  C_14
REMARK    5  A    between atoms: C_14  and  N_15
REMARK    6  A    between atoms: N_15  and  C_16
REMARK    7  A    between atoms: C_19  and  C_20
REMARK    8  A    between atoms: C_20  and  O_22
REMARK                            x       y       z     vdW  Elec       q    Type
REMARK                         _______ _______ _______ _____ _____    ______ ____
ROOT
ATOM      1  C   UNL     1      45.750   5.999  10.876  0.00  0.00    +0.000 C 
ENDROOT
BRANCH   1   6
ATOM      2  C   UNL     1      47.671   6.367  14.191  0.00  0.00    +0.000 A 
ATOM      3  C   UNL     1      47.384   5.119  14.765  0.00  0.00    +0.000 A 
ATOM      4  C   UNL     1      46.612   4.161  14.098  0.00  0.00    +0.000 A 
ATOM      5  C   UNL     1      46.092   4.432  12.837  0.00  0.00    +0.000 A 
ATOM      6  C   UNL     1      46.348   5.660  12.224  0.00  0.00    +0.000 A 
ATOM      7  C   UNL     1      47.155   6.595  12.900  0.00  0.00    +0.000 A 
BRANCH   2  14
ATOM      8  C   UNL     1      49.301   7.444  17.134  0.00  0.00    +0.000 C 
ATOM      9  C   UNL     1      49.557   6.941  15.713  0.00  0.00    +0.000 C 
ATOM     10  C   UNL     1      50.879   7.510  15.145  0.00  0.00    +0.000 C 
ATOM     11  O   UNL     1      50.809   8.925  14.912  0.00  0.00    +0.000 OA
ATOM     12  C   UNL     1      49.774   9.215  13.959  0.00  0.00    +0.000 C 
ATOM     13  C   UNL     1      48.398   8.754  14.456  0.00  0.00    +0.000 C 
ATOM     14  N   UNL     1      48.424   7.333  14.842  0.00  0.00    +0.000 N 
ENDBRANCH   2  14
ENDBRANCH   1   6
BRANCH   1  15
ATOM     15  C   UNL     1      44.231   5.799  10.815  0.00  0.00    +0.000 C 
BRANCH  15  16
ATOM     16  N   UNL     1      43.852   4.971   9.666  0.00  0.00    +0.000 N 
ATOM     17  H   UNL     1      43.227   5.391   8.985  0.00  0.00    +0.000 HD
BRANCH  16  18
ATOM     18  C   UNL     1      44.690   3.973   9.184  0.00  0.00    +0.000 A 
ATOM     19  C   UNL     1      44.579   2.628   9.556  0.00  0.00    +0.000 A 
ATOM     20  C   UNL     1      45.354   1.622   8.958  0.00  0.00    +0.000 A 
ATOM     21  C   UNL     1      46.273   1.949   7.957  0.00  0.00    +0.000 A 
ATOM     22  C   UNL     1      46.388   3.286   7.562  0.00  0.00    +0.000 A 
ATOM     23  C   UNL     1      45.608   4.279   8.162  0.00  0.00    +0.000 A 
BRANCH  21  24
ATOM     24  C   UNL     1      47.082   0.934   7.234  0.00  0.00    +0.000 C 
ATOM     25  O   UNL     1      47.857   1.221   6.339  0.00  0.00    +0.000 OA
BRANCH  24  26
ATOM     26  O   UNL     1      46.916  -0.332   7.677  0.00  0.00    +0.000 OA
ATOM     27  H   UNL     1      46.797  -0.431   8.637  0.00  0.00    +0.000 HD
ENDBRANCH  24  26
ENDBRANCH  21  24
ENDBRANCH  16  18
ENDBRANCH  15  16
ENDBRANCH   1  15
TORSDOF 7
ENDMDL
MODEL 5
REMARK VINA RESULT:    -7.475      1.482      2.456
REMARK INTER + INTRA:         -11.452
REMARK INTER:                 -10.472
REMARK INTRA:                  -0.979
REMARK UNBOUND:                -1.136
REMARK  Name = 
REMARK  8 active torsions:
REMARK  status: ('A' for Active; 'I' for Inactive)
REMARK    1  A    between atoms: C_1  and  C_2
REMARK    2  A    between atoms: N_7  and  C_8
REMARK    3  A    between atoms: C_12  and  C_13
REMARK    4  A    between atoms: C_13  and  C_14
REMARK    5  A    between atoms: C_14  and  N_15
REMARK    6  A    between atoms: N_15  and  C_16
REMARK    7  A    between atoms: C_19  and  C_20
REMARK    8  A    between atoms: C_20  and  O_22
REMARK                            x       y       z     vdW  Elec       q    Type
REMARK                         _______ _______ _______ _____ _____    ______ ____
ROOT
ATOM      1  C   UNL     1      43.694   4.185  12.831  0.00  0.00    +0.000 C 
ENDROOT
BRANCH   1   6
ATOM      2  C   UNL     1      46.493   6.821  12.672  0.00  0.00    +0.000 A 
ATOM      3  C   UNL     1      45.870   7.771  11.848  0.00  0.00    +0.000 A 
ATOM      4  C   UNL     1      44.568   7.591  11.369  0.00  0.00    +0.000 A 
ATOM      5  C   UNL     1      43.854   6.442  11.693  0.00  0.00    +0.000 A 
ATOM      6  C   UNL     1      44.431   5.467  12.509  0.00  0.00    +0.000 A 
ATOM      7  C   UNL     1      45.729   5.686  13.006  0.00  0.00    +0.000 A 
BRANCH   2  14
ATOM      8  C   UNL     1      49.901   7.449  11.986  0.00  0.00    +0.000 C 
ATOM      9  C   UNL     1      48.653   8.061  12.623  0.00  0.00    +0.000 C 
ATOM     10  C   UNL     1      49.026   9.036  13.765  0.00  0.00    +0.000 C 
ATOM     11  O   UNL     1      49.590   8.359  14.898  0.00  0.00    +0.000 OA
ATOM     12  C   UNL     1      48.645   7.418  15.430  0.00  0.00    +0.000 C 
ATOM     13  C   UNL     1      48.257   6.354  14.395  0.00  0.00    +0.000 C 
ATOM     14  N   UNL     1      47.787   6.978  13.146  0.00  0.00    +0.000 N 
ENDBRANCH   2  14
ENDBRANCH   1   6
BRANCH   1  15
ATOM     15  C   UNL     1      44.087   3.011  11.927  0.00  0.00    +0.000 C 
BRANCH  15  16
ATOM     16  N   UNL     1      43.846   3.327  10.516  0.00  0.00    +0.000 N 
ATOM     17  H   UNL     1      43.207   4.090  10.319  0.00  0.00    +0.000 HD
BRANCH  16  18
ATOM     18  C   UNL     1      44.806   3.075   9.542  0.00  0.00    +0.000 A 
ATOM     19  C   UNL     1      45.201   1.786   9.165  0.00  0.00    +0.000 A 
ATOM     20  C   UNL     1      46.077   1.559   8.093  0.00  0.00    +0.000 A 
ATOM     21  C   UNL     1      46.585   2.637   7.363  0.00  0.00    +0.000 A 
ATOM     22  C   UNL     1      46.192   3.933   7.717  0.00  0.00    +0.000 A 
ATOM     23  C   UNL     1      45.315   4.146   8.785  0.00  0.00    +0.000 A 
BRANCH  21  24
ATOM     24  C   UNL     1      47.466   2.474   6.178  0.00  0.00    +0.000 C 
ATOM     25  O   UNL     1      48.264   1.560   6.068  0.00  0.00    +0.000 OA
BRANCH  24  26
ATOM     26  O   UNL     1      47.283   3.402   5.213  0.00  0.00    +0.000 OA
ATOM     27  H   UNL     1      46.533   4.007   5.347  0.00  0.00    +0.000 HD
ENDBRANCH  24  26
ENDBRANCH  21  24
ENDBRANCH  16  18
ENDBRANCH  15  16
ENDBRANCH   1  15
TORSDOF 7
ENDMDL
MODEL 6
REMARK VINA RESULT:    -6.956      1.202      2.048
REMARK INTER + INTRA:         -10.736
REMARK INTER:                  -9.828
REMARK INTRA:                  -0.908
REMARK UNBOUND:                -1.136
REMARK  Name = 
REMARK  8 active torsions:
REMARK  status: ('A' for Active; 'I' for Inactive)
REMARK    1  A    between atoms: C_1  and  C_2
REMARK    2  A    between atoms: N_7  and  C_8
REMARK    3  A    between atoms: C_12  and  C_13
REMARK    4  A    between atoms: C_13  and  C_14
REMARK    5  A    between atoms: C_14  and  N_15
REMARK    6  A    between atoms: N_15  and  C_16
REMARK    7  A    between atoms: C_19  and  C_20
REMARK    8  A    between atoms: C_20  and  O_22
REMARK                            x       y       z     vdW  Elec       q    Type
REMARK                         _______ _______ _______ _____ _____    ______ ____
ROOT
ATOM      1  C   UNL     1      45.562   4.031  12.692  0.00  0.00    +0.000 C 
ENDROOT
BRANCH   1   6
ATOM      2  C   UNL     1      48.218   6.540  13.899  0.00  0.00    +0.000 A 
ATOM      3  C   UNL     1      48.367   6.101  15.224  0.00  0.00    +0.000 A 
ATOM      4  C   UNL     1      47.653   5.006  15.722  0.00  0.00    +0.000 A 
ATOM      5  C   UNL     1      46.755   4.324  14.907  0.00  0.00    +0.000 A 
ATOM      6  C   UNL     1      46.571   4.724  13.582  0.00  0.00    +0.000 A 
ATOM      7  C   UNL     1      47.325   5.807  13.093  0.00  0.00    +0.000 A 
BRANCH   2  14
ATOM      8  C   UNL     1      50.134   7.950  11.288  0.00  0.00    +0.000 C 
ATOM      9  C   UNL     1      48.766   8.016  11.968  0.00  0.00    +0.000 C 
ATOM     10  C   UNL     1      48.154   9.432  11.863  0.00  0.00    +0.000 C 
ATOM     11  O   UNL     1      48.877  10.399  12.639  0.00  0.00    +0.000 OA
ATOM     12  C   UNL     1      48.861  10.028  14.026  0.00  0.00    +0.000 C 
ATOM     13  C   UNL     1      49.514   8.659  14.257  0.00  0.00    +0.000 C 
ATOM     14  N   UNL     1      48.909   7.631  13.393  0.00  0.00    +0.000 N 
ENDBRANCH   2  14
ENDBRANCH   1   6
BRANCH   1  15
ATOM     15  C   UNL     1      44.684   5.003  11.894  0.00  0.00    +0.000 C 
BRANCH  15  16
ATOM     16  N   UNL     1      44.146   4.362  10.690  0.00  0.00    +0.000 N 
ATOM     17  H   UNL     1      43.241   4.687  10.364  0.00  0.00    +0.000 HD
BRANCH  16  18
ATOM     18  C   UNL     1      44.982   3.824   9.719  0.00  0.00    +0.000 A 
ATOM     19  C   UNL     1      45.098   2.450   9.479  0.00  0.00    +0.000 A 
ATOM     20  C   UNL     1      45.852   1.941   8.411  0.00  0.00    +0.000 A 
ATOM     21  C   UNL     1      46.516   2.813   7.545  0.00  0.00    +0.000 A 
ATOM     22  C   UNL     1      46.400   4.191   7.760  0.00  0.00    +0.000 A 
ATOM     23  C   UNL     1      45.643   4.686   8.826  0.00  0.00    +0.000 A 
BRANCH  21  24
ATOM     24  C   UNL     1      47.280   2.354   6.356  0.00  0.00    +0.000 C 
ATOM     25  O   UNL     1      47.947   1.335   6.352  0.00  0.00    +0.000 OA
BRANCH  24  26
ATOM     26  O   UNL     1      47.143   3.140   5.265  0.00  0.00    +0.000 OA
ATOM     27  H   UNL     1      46.240   3.219   4.913  0.00  0.00    +0.000 HD
ENDBRANCH  24  26
ENDBRANCH  21  24
ENDBRANCH  16  18
ENDBRANCH  15  16
ENDBRANCH   1  15
TORSDOF 7
ENDMDL
MODEL 7
REMARK VINA RESULT:    -6.938      1.567      2.519
REMARK INTER + INTRA:         -10.711
REMARK INTER:                  -9.810
REMARK INTRA:                  -0.901
REMARK UNBOUND:                -1.136
REMARK  Name = 
REMARK  8 active torsions:
REMARK  status: ('A' for Active; 'I' for Inactive)
REMARK    1  A    between atoms: C_1  and  C_2
REMARK    2  A    between atoms: N_7  and  C_8
REMARK    3  A    between atoms: C_12  and  C_13
REMARK    4  A    between atoms: C_13  and  C_14
REMARK    5  A    between atoms: C_14  and  N_15
REMARK    6  A    between atoms: N_15  and  C_16
REMARK    7  A    between atoms: C_19  and  C_20
REMARK    8  A    between atoms: C_20  and  O_22
REMARK                            x       y       z     vdW  Elec       q    Type
REMARK                         _______ _______ _______ _____ _____    ______ ____
ROOT
ATOM      1  C   UNL     1      43.347   6.010  11.247  0.00  0.00    +0.000 C 
ENDROOT
BRANCH   1   6
ATOM      2  C   UNL     1      46.152   8.373  12.412  0.00  0.00    +0.000 A 
ATOM      3  C   UNL     1      45.644   9.590  11.931  0.00  0.00    +0.000 A 
ATOM      4  C   UNL     1      44.414   9.665  11.268  0.00  0.00    +0.000 A 
ATOM      5  C   UNL     1      43.660   8.516  11.055  0.00  0.00    +0.000 A 
ATOM      6  C   UNL     1      44.123   7.281  11.513  0.00  0.00    +0.000 A 
ATOM      7  C   UNL     1      45.347   7.235  12.207  0.00  0.00    +0.000 A 
BRANCH   2  14
ATOM      8  C   UNL     1      48.273   6.593  14.604  0.00  0.00    +0.000 C 
ATOM      9  C   UNL     1      48.085   6.980  13.137  0.00  0.00    +0.000 C 
ATOM     10  C   UNL     1      49.444   7.079  12.404  0.00  0.00    +0.000 C 
ATOM     11  O   UNL     1      50.235   8.184  12.865  0.00  0.00    +0.000 OA
ATOM     12  C   UNL     1      49.535   9.418  12.638  0.00  0.00    +0.000 C 
ATOM     13  C   UNL     1      48.195   9.458  13.384  0.00  0.00    +0.000 C 
ATOM     14  N   UNL     1      47.374   8.278  13.060  0.00  0.00    +0.000 N 
ENDBRANCH   2  14
ENDBRANCH   1   6
BRANCH   1  15
ATOM     15  C   UNL     1      44.173   4.735  11.455  0.00  0.00    +0.000 C 
BRANCH  15  16
ATOM     16  N   UNL     1      43.839   3.719  10.452  0.00  0.00    +0.000 N 
ATOM     17  H   UNL     1      42.853   3.562  10.269  0.00  0.00    +0.000 HD
BRANCH  16  18
ATOM     18  C   UNL     1      44.704   3.422   9.405  0.00  0.00    +0.000 A 
ATOM     19  C   UNL     1      45.361   4.399   8.649  0.00  0.00    +0.000 A 
ATOM     20  C   UNL     1      46.325   4.071   7.683  0.00  0.00    +0.000 A 
ATOM     21  C   UNL     1      46.657   2.734   7.451  0.00  0.00    +0.000 A 
ATOM     22  C   UNL     1      46.020   1.743   8.207  0.00  0.00    +0.000 A 
ATOM     23  C   UNL     1      45.064   2.083   9.169  0.00  0.00    +0.000 A 
BRANCH  21  24
ATOM     24  C   UNL     1      47.710   2.311   6.492  0.00  0.00    +0.000 C 
ATOM     25  O   UNL     1      48.379   1.305   6.645  0.00  0.00    +0.000 OA
BRANCH  24  26
ATOM     26  O   UNL     1      47.840   3.116   5.414  0.00  0.00    +0.000 OA
ATOM     27  H   UNL     1      47.036   3.240   4.881  0.00  0.00    +0.000 HD
ENDBRANCH  24  26
ENDBRANCH  21  24
ENDBRANCH  16  18
ENDBRANCH  15  16
ENDBRANCH   1  15
TORSDOF 7
ENDMDL
MODEL 8
REMARK VINA RESULT:    -6.454      2.140      3.112
REMARK INTER + INTRA:         -10.043
REMARK INTER:                  -9.194
REMARK INTRA:                  -0.849
REMARK UNBOUND:                -1.136
REMARK  Name = 
REMARK  8 active torsions:
REMARK  status: ('A' for Active; 'I' for Inactive)
REMARK    1  A    between atoms: C_1  and  C_2
REMARK    2  A    between atoms: N_7  and  C_8
REMARK    3  A    between atoms: C_12  and  C_13
REMARK    4  A    between atoms: C_13  and  C_14
REMARK    5  A    between atoms: C_14  and  N_15
REMARK    6  A    between atoms: N_15  and  C_16
REMARK    7  A    between atoms: C_19  and  C_20
REMARK    8  A    between atoms: C_20  and  O_22
REMARK                            x       y       z     vdW  Elec       q    Type
REMARK                         _______ _______ _______ _____ _____    ______ ____
ROOT
ATOM      1  C   UNL     1      45.223   6.175  12.394  0.00  0.00    +0.000 C 
ENDROOT
BRANCH   1   6
ATOM      2  C   UNL     1      48.449   7.271  14.183  0.00  0.00    +0.000 A 
ATOM      3  C   UNL     1      49.249   7.556  13.066  0.00  0.00    +0.000 A 
ATOM      4  C   UNL     1      48.763   7.427  11.760  0.00  0.00    +0.000 A 
ATOM      5  C   UNL     1      47.460   6.995  11.535  0.00  0.00    +0.000 A 
ATOM      6  C   UNL     1      46.626   6.698  12.614  0.00  0.00    +0.000 A 
ATOM      7  C   UNL     1      47.126   6.867  13.919  0.00  0.00    +0.000 A 
BRANCH   2  14
ATOM      8  C   UNL     1      48.445   6.065  17.503  0.00  0.00    +0.000 C 
ATOM      9  C   UNL     1      49.310   6.172  16.247  0.00  0.00    +0.000 C 
ATOM     10  C   UNL     1      50.814   6.239  16.604  0.00  0.00    +0.000 C 
ATOM     11  O   UNL     1      51.165   7.463  17.266  0.00  0.00    +0.000 OA
ATOM     12  C   UNL     1      50.877   8.583  16.414  0.00  0.00    +0.000 C 
ATOM     13  C   UNL     1      49.387   8.656  16.054  0.00  0.00    +0.000 C 
ATOM     14  N   UNL     1      48.917   7.381  15.484  0.00  0.00    +0.000 N 
ENDBRANCH   2  14
ENDBRANCH   1   6
BRANCH   1  15
ATOM     15  C   UNL     1      45.175   4.684  12.042  0.00  0.00    +0.000 C 
BRANCH  15  16
ATOM     16  N   UNL     1      44.428   4.456  10.801  0.00  0.00    +0.000 N 
ATOM     17  H   UNL     1      43.614   5.041  10.643  0.00  0.00    +0.000 HD
BRANCH  16  18
ATOM     18  C   UNL     1      45.050   3.962   9.660  0.00  0.00    +0.000 A 
ATOM     19  C   UNL     1      45.716   4.773   8.734  0.00  0.00    +0.000 A 
ATOM     20  C   UNL     1      46.442   4.237   7.660  0.00  0.00    +0.000 A 
ATOM     21  C   UNL     1      46.519   2.852   7.489  0.00  0.00    +0.000 A 
ATOM     22  C   UNL     1      45.872   2.024   8.414  0.00  0.00    +0.000 A 
ATOM     23  C   UNL     1      45.154   2.571   9.482  0.00  0.00    +0.000 A 
BRANCH  21  24
ATOM     24  C   UNL     1      47.320   2.208   6.416  0.00  0.00    +0.000 C 
ATOM     25  O   UNL     1      47.803   1.095   6.528  0.00  0.00    +0.000 OA
BRANCH  24  26
ATOM     26  O   UNL     1      47.438   2.944   5.289  0.00  0.00    +0.000 OA
ATOM     27  H   UNL     1      47.083   2.535   4.480  0.00  0.00    +0.000 HD
ENDBRANCH  24  26
ENDBRANCH  21  24
ENDBRANCH  16  18
ENDBRANCH  15  16
ENDBRANCH   1  15
TORSDOF 7
ENDMDL
MODEL 9
REMARK VINA RESULT:    -6.278      3.520      7.528
REMARK INTER + INTRA:          -9.799
REMARK INTER:                  -8.624
REMARK INTRA:                  -1.176
REMARK UNBOUND:                -1.136
REMARK  Name = 
REMARK  8 active torsions:
REMARK  status: ('A' for Active; 'I' for Inactive)
REMARK    1  A    between atoms: C_1  and  C_2
REMARK    2  A    between atoms: N_7  and  C_8
REMARK    3  A    between atoms: C_12  and  C_13
REMARK    4  A    between atoms: C_13  and  C_14
REMARK    5  A    between atoms: C_14  and  N_15
REMARK    6  A    between atoms: N_15  and  C_16
REMARK    7  A    between atoms: C_19  and  C_20
REMARK    8  A    between atoms: C_20  and  O_22
REMARK                            x       y       z     vdW  Elec       q    Type
REMARK                         _______ _______ _______ _____ _____    ______ ____
ROOT
ATOM      1  C   UNL     1      49.098   8.591  12.351  0.00  0.00    +0.000 C 
ENDROOT
BRANCH   1   6
ATOM      2  C   UNL     1      45.838   6.655  11.692  0.00  0.00    +0.000 A 
ATOM      3  C   UNL     1      44.918   7.710  11.787  0.00  0.00    +0.000 A 
ATOM      4  C   UNL     1      45.328   9.026  12.032  0.00  0.00    +0.000 A 
ATOM      5  C   UNL     1      46.677   9.320  12.202  0.00  0.00    +0.000 A 
ATOM      6  C   UNL     1      47.631   8.304  12.117  0.00  0.00    +0.000 A 
ATOM      7  C   UNL     1      47.197   6.995  11.837  0.00  0.00    +0.000 A 
BRANCH   2  14
ATOM      8  C   UNL     1      45.804   3.287  12.757  0.00  0.00    +0.000 C 
ATOM      9  C   UNL     1      44.912   4.514  12.567  0.00  0.00    +0.000 C 
ATOM     10  C   UNL     1      43.452   4.105  12.258  0.00  0.00    +0.000 C 
ATOM     11  O   UNL     1      43.319   3.485  10.970  0.00  0.00    +0.000 OA
ATOM     12  C   UNL     1      43.735   4.396   9.941  0.00  0.00    +0.000 C 
ATOM     13  C   UNL     1      45.201   4.814  10.110  0.00  0.00    +0.000 C 
ATOM     14  N   UNL     1      45.449   5.344  11.462  0.00  0.00    +0.000 N 
ENDBRANCH   2  14
ENDBRANCH   1   6
BRANCH   1  15
ATOM     15  C   UNL     1      49.466   8.718  13.834  0.00  0.00    +0.000 C 
BRANCH  15  16
ATOM     16  N   UNL     1      50.056   7.475  14.341  0.00  0.00    +0.000 N 
ATOM     17  H   UNL     1      51.066   7.455  14.440  0.00  0.00    +0.000 HD
BRANCH  16  18
ATOM     18  C   UNL     1      49.347   6.626  15.182  0.00  0.00    +0.000 A 
ATOM     19  C   UNL     1      48.146   6.007  14.816  0.00  0.00    +0.000 A 
ATOM     20  C   UNL     1      47.518   5.056  15.636  0.00  0.00    +0.000 A 
ATOM     21  C   UNL     1      48.090   4.699  16.859  0.00  0.00    +0.000 A 
ATOM     22  C   UNL     1      49.299   5.297  17.236  0.00  0.00    +0.000 A 
ATOM     23  C   UNL     1      49.916   6.240  16.409  0.00  0.00    +0.000 A 
BRANCH  21  24
ATOM     24  C   UNL     1      47.519   3.657  17.751  0.00  0.00    +0.000 C 
ATOM     25  O   UNL     1      46.637   2.895  17.397  0.00  0.00    +0.000 OA
BRANCH  24  26
ATOM     26  O   UNL     1      48.086   3.597  18.976  0.00  0.00    +0.000 OA
ATOM     27  H   UNL     1      47.672   4.153  19.659  0.00  0.00    +0.000 HD
ENDBRANCH  24  26
ENDBRANCH  21  24
ENDBRANCH  16  18
ENDBRANCH  15  16
ENDBRANCH   1  15
TORSDOF 7
ENDMDL
