MODEL 1
REMARK VINA RESULT:    -8.102      0.000      0.000
REMARK INTER + INTRA:         -11.619
REMARK INTER:                 -10.944
REMARK INTRA:                  -0.675
REMARK UNBOUND:                -0.675
REMARK  Name = 
REMARK  6 active torsions:
REMARK  status: ('A' for Active; 'I' for Inactive)
REMARK    1  A    between atoms: C_2  and  C_25
REMARK    2  A    between atoms: N_3  and  C_4
REMARK    3  A    between atoms: C_4  and  C_5
REMARK    4  A    between atoms: C_8  and  C_9
REMARK    5  A    between atoms: C_9  and  N_10
REMARK    6  A    between atoms: C_11  and  C_13
REMARK                            x       y       z     vdW  Elec       q    Type
REMARK                         _______ _______ _______ _____ _____    ______ ____
ROOT
ATOM      1  C   UNL     1      44.586   5.425  11.076  0.00  0.00    +0.000 A 
ATOM      2  C   UNL     1      44.312   6.798  11.138  0.00  0.00    +0.000 A 
ATOM      3  C   UNL     1      45.097   7.646  11.926  0.00  0.00    +0.000 A 
ATOM      4  C   UNL     1      46.183   7.137  12.651  0.00  0.00    +0.000 A 
ATOM      5  C   UNL     1      46.449   5.763  12.598  0.00  0.00    +0.000 A 
ATOM      6  C   UNL     1      45.667   4.918  11.809  0.00  0.00    +0.000 A 
ENDROOT
BRANCH   1   7
ATOM      7  C   UNL     1      43.736   4.513  10.236  0.00  0.00    +0.000 C 
BRANCH   7  10
ATOM      8  O   UNL     1      45.521   4.805   8.108  0.00  0.00    +0.000 OA
ATOM      9  C   UNL     1      45.350   3.686   8.588  0.00  0.00    +0.000 C 
ATOM     10  N   UNL     1      44.496   3.449   9.639  0.00  0.00    +0.000 N 
ATOM     11  H   UNL     1      44.485   2.510  10.029  0.00  0.00    +0.000 HD
BRANCH   9  12
ATOM     12  C   UNL     1      46.046   2.511   8.103  0.00  0.00    +0.000 A 
ATOM     13  N   UNL     1      45.797   1.264   8.467  0.00  0.00    +0.000 NA
ATOM     14  C   UNL     1      46.683   0.492   7.757  0.00  0.00    +0.000 A 
ATOM     15  C   UNL     1      47.493   1.273   6.968  0.00  0.00    +0.000 A 
ATOM     16  N   UNL     1      47.067   2.553   7.185  0.00  0.00    +0.000 N 
ATOM     17  H   UNL     1      47.426   3.402   6.768  0.00  0.00    +0.000 HD
ENDBRANCH   9  12
ENDBRANCH   7  10
ENDBRANCH   1   7
BRANCH   4  18
ATOM     18  C   UNL     1      47.049   8.032  13.495  0.00  0.00    +0.000 C 
BRANCH  18  19
ATOM     19  N   UNL     1      47.531   7.352  14.667  0.00  0.00    +0.000 N 
ATOM     20  C   UNL     1      48.799   6.842  14.779  0.00  0.00    +0.000 C 
ATOM     21  O   UNL     1      49.634   6.936  13.885  0.00  0.00    +0.000 OA
ATOM     22  H   UNL     1      46.820   7.047  15.321  0.00  0.00    +0.000 HD
BRANCH  20  23
ATOM     23  C   UNL     1      49.129   6.245  16.080  0.00  0.00    +0.000 A 
ATOM     24  C   UNL     1      50.126   6.803  16.868  0.00  0.00    +0.000 A 
ATOM     25  S   UNL     1      50.322   6.025  18.374  0.00  0.00    +0.000 S 
ATOM     26  C   UNL     1      49.117   4.882  18.003  0.00  0.00    +0.000 A 
ATOM     27  N   UNL     1      48.792   3.895  18.881  0.00  0.00    +0.000 NA
ATOM     28  C   UNL     1      47.887   3.079  18.454  0.00  0.00    +0.000 A 
ATOM     29  N   UNL     1      47.271   3.163  17.234  0.00  0.00    +0.000 N 
ATOM     30  C   UNL     1      47.522   4.178  16.337  0.00  0.00    +0.000 A 
ATOM     31  O   UNL     1      46.867   4.280  15.305  0.00  0.00    +0.000 OA
ATOM     32  C   UNL     1      48.558   5.104  16.756  0.00  0.00    +0.000 A 
ATOM     33  H   UNL     1      46.551   2.506  16.969  0.00  0.00    +0.000 HD
ENDBRANCH  20  23
ENDBRANCH  18  19
ENDBRANCH   4  18
TORSDOF 6
ENDMDL
MODEL 2
REMARK VINA RESULT:    -7.803      4.608      9.327
REMARK INTER + INTRA:         -11.215
REMARK INTER:                 -10.415
REMARK INTRA:                  -0.800
REMARK UNBOUND:                -0.675
REMARK  Name = 
REMARK  6 active torsions:
REMARK  status: ('A' for Active; 'I' for Inactive)
REMARK    1  A    between atoms: C_2  and  C_25
REMARK    2  A    between atoms: N_3  and  C_4
REMARK    3  A    between atoms: C_4  and  C_5
REMARK    4  A    between atoms: C_8  and  C_9
REMARK    5  A    between atoms: C_9  and  N_10
REMARK    6  A    between atoms: C_11  and  C_13
REMARK                            x       y       z     vdW  Elec       q    Type
REMARK                         _______ _______ _______ _____ _____    ______ ____
ROOT
ATOM      1  C   UNL     1      51.345   2.988  17.771  0.00  0.00    +0.000 A 
ATOM      2  C   UNL     1      50.574   1.977  17.181  0.00  0.00    +0.000 A 
ATOM      3  C   UNL     1      49.215   2.179  16.921  0.00  0.00    +0.000 A 
ATOM      4  C   UNL     1      48.608   3.404  17.230  0.00  0.00    +0.000 A 
ATOM      5  C   UNL     1      49.376   4.408  17.831  0.00  0.00    +0.000 A 
ATOM      6  C   UNL     1      50.733   4.207  18.088  0.00  0.00    +0.000 A 
ENDROOT
BRANCH   1   7
ATOM      7  C   UNL     1      52.805   2.766  18.058  0.00  0.00    +0.000 C 
BRANCH   7  10
ATOM      8  O   UNL     1      54.628   1.015  16.871  0.00  0.00    +0.000 OA
ATOM      9  C   UNL     1      53.995   0.634  17.853  0.00  0.00    +0.000 C 
ATOM     10  N   UNL     1      53.080   1.428  18.504  0.00  0.00    +0.000 N 
ATOM     11  H   UNL     1      52.670   1.062  19.359  0.00  0.00    +0.000 HD
BRANCH   9  12
ATOM     12  C   UNL     1      54.162  -0.685  18.428  0.00  0.00    +0.000 A 
ATOM     13  N   UNL     1      55.312  -1.322  18.573  0.00  0.00    +0.000 NA
ATOM     14  C   UNL     1      54.994  -2.522  19.161  0.00  0.00    +0.000 A 
ATOM     15  C   UNL     1      53.638  -2.628  19.360  0.00  0.00    +0.000 A 
ATOM     16  N   UNL     1      53.122  -1.448  18.904  0.00  0.00    +0.000 N 
ATOM     17  H   UNL     1      52.152  -1.161  18.894  0.00  0.00    +0.000 HD
ENDBRANCH   9  12
ENDBRANCH   7  10
ENDBRANCH   1   7
BRANCH   4  18
ATOM     18  C   UNL     1      47.150   3.647  16.948  0.00  0.00    +0.000 C 
BRANCH  18  19
ATOM     19  N   UNL     1      46.967   4.606  15.892  0.00  0.00    +0.000 N 
ATOM     20  C   UNL     1      47.035   4.288  14.561  0.00  0.00    +0.000 C 
ATOM     21  O   UNL     1      47.246   3.147  14.160  0.00  0.00    +0.000 OA
ATOM     22  H   UNL     1      47.028   5.579  16.168  0.00  0.00    +0.000 HD
BRANCH  20  23
ATOM     23  C   UNL     1      46.749   5.389  13.631  0.00  0.00    +0.000 A 
ATOM     24  C   UNL     1      47.745   6.298  13.301  0.00  0.00    +0.000 A 
ATOM     25  S   UNL     1      47.255   7.462  12.155  0.00  0.00    +0.000 S 
ATOM     26  C   UNL     1      45.678   6.825  12.099  0.00  0.00    +0.000 A 
ATOM     27  N   UNL     1      44.724   7.382  11.305  0.00  0.00    +0.000 NA
ATOM     28  C   UNL     1      43.566   6.819  11.388  0.00  0.00    +0.000 A 
ATOM     29  N   UNL     1      43.275   5.744  12.187  0.00  0.00    +0.000 N 
ATOM     30  C   UNL     1      44.220   5.109  12.960  0.00  0.00    +0.000 A 
ATOM     31  O   UNL     1      43.944   4.082  13.572  0.00  0.00    +0.000 OA
ATOM     32  C   UNL     1      45.533   5.726  12.927  0.00  0.00    +0.000 A 
ATOM     33  H   UNL     1      42.352   5.333  12.188  0.00  0.00    +0.000 HD
ENDBRANCH  20  23
ENDBRANCH  18  19
ENDBRANCH   4  18
TORSDOF 6
ENDMDL
MODEL 3
REMARK VINA RESULT:    -7.650      1.101      1.568
REMARK INTER + INTRA:         -11.008
REMARK INTER:                 -10.151
REMARK INTRA:                  -0.857
REMARK UNBOUND:                -0.675
REMARK  Name = 
REMARK  6 active torsions:
REMARK  status: ('A' for Active; 'I' for Inactive)
REMARK    1  A    between atoms: C_2  and  C_25
REMARK    2  A    between atoms: N_3  and  C_4
REMARK    3  A    between atoms: C_4  and  C_5
REMARK    4  A    between atoms: C_8  and  C_9
REMARK    5  A    between atoms: C_9  and  N_10
REMARK    6  A    between atoms: C_11  and  C_13
REMARK                            x       y       z     vdW  Elec       q    Type
REMARK                         _______ _______ _______ _____ _____    ______ ____
ROOT
ATOM      1  C   UNL     1      45.070   6.183  11.348  0.00  0.00    +0.000 A 
ATOM      2  C   UNL     1      46.216   5.663  11.964  0.00  0.00    +0.000 A 
ATOM      3  C   UNL     1      47.013   6.469  12.782  0.00  0.00    +0.000 A 
ATOM      4  C   UNL     1      46.664   7.807  13.016  0.00  0.00    +0.000 A 
ATOM      5  C   UNL     1      45.526   8.329  12.391  0.00  0.00    +0.000 A 
ATOM      6  C   UNL     1      44.730   7.523  11.575  0.00  0.00    +0.000 A 
ENDROOT
BRANCH   1   7
ATOM      7  C   UNL     1      44.220   5.317  10.460  0.00  0.00    +0.000 C 
BRANCH   7  10
ATOM      8  O   UNL     1      44.425   2.586   9.916  0.00  0.00    +0.000 OA
ATOM      9  C   UNL     1      45.014   3.380   9.186  0.00  0.00    +0.000 C 
ATOM     10  N   UNL     1      44.967   4.741   9.375  0.00  0.00    +0.000 N 
ATOM     11  H   UNL     1      45.411   5.326   8.671  0.00  0.00    +0.000 HD
BRANCH   9  12
ATOM     12  C   UNL     1      45.805   2.959   8.047  0.00  0.00    +0.000 A 
ATOM     13  N   UNL     1      46.026   3.675   6.957  0.00  0.00    +0.000 NA
ATOM     14  C   UNL     1      46.822   2.890   6.159  0.00  0.00    +0.000 A 
ATOM     15  C   UNL     1      47.073   1.678   6.756  0.00  0.00    +0.000 A 
ATOM     16  N   UNL     1      46.434   1.741   7.962  0.00  0.00    +0.000 N 
ATOM     17  H   UNL     1      46.402   1.031   8.683  0.00  0.00    +0.000 HD
ENDBRANCH   9  12
ENDBRANCH   7  10
ENDBRANCH   1   7
BRANCH   4  18
ATOM     18  C   UNL     1      47.499   8.689  13.903  0.00  0.00    +0.000 C 
BRANCH  18  19
ATOM     19  N   UNL     1      47.847   8.028  15.132  0.00  0.00    +0.000 N 
ATOM     20  C   UNL     1      49.066   7.444  15.359  0.00  0.00    +0.000 C 
ATOM     21  O   UNL     1      49.970   7.449  14.529  0.00  0.00    +0.000 OA
ATOM     22  H   UNL     1      47.070   7.795  15.740  0.00  0.00    +0.000 HD
BRANCH  20  23
ATOM     23  C   UNL     1      49.259   6.880  16.702  0.00  0.00    +0.000 A 
ATOM     24  C   UNL     1      49.880   7.632  17.690  0.00  0.00    +0.000 A 
ATOM     25  S   UNL     1      49.951   6.847  19.202  0.00  0.00    +0.000 S 
ATOM     26  C   UNL     1      49.201   5.453  18.577  0.00  0.00    +0.000 A 
ATOM     27  N   UNL     1      48.971   4.367  19.363  0.00  0.00    +0.000 NA
ATOM     28  C   UNL     1      48.429   3.370  18.750  0.00  0.00    +0.000 A 
ATOM     29  N   UNL     1      48.087   3.360  17.423  0.00  0.00    +0.000 N 
ATOM     30  C   UNL     1      48.243   4.455  16.602  0.00  0.00    +0.000 A 
ATOM     31  O   UNL     1      47.821   4.442  15.451  0.00  0.00    +0.000 OA
ATOM     32  C   UNL     1      48.882   5.593  17.237  0.00  0.00    +0.000 A 
ATOM     33  H   UNL     1      47.641   2.554  17.007  0.00  0.00    +0.000 HD
ENDBRANCH  20  23
ENDBRANCH  18  19
ENDBRANCH   4  18
TORSDOF 6
ENDMDL
MODEL 4
REMARK VINA RESULT:    -7.383      4.669      9.358
REMARK INTER + INTRA:         -10.648
REMARK INTER:                  -9.577
REMARK INTRA:                  -1.071
REMARK UNBOUND:                -0.675
REMARK  Name = 
REMARK  6 active torsions:
REMARK  status: ('A' for Active; 'I' for Inactive)
REMARK    1  A    between atoms: C_2  and  C_25
REMARK    2  A    between atoms: N_3  and  C_4
REMARK    3  A    between atoms: C_4  and  C_5
REMARK    4  A    between atoms: C_8  and  C_9
REMARK    5  A    between atoms: C_9  and  N_10
REMARK    6  A    between atoms: C_11  and  C_13
REMARK                            x       y       z     vdW  Elec       q    Type
REMARK                         _______ _______ _______ _____ _____    ______ ____
ROOT
ATOM      1  C   UNL     1      51.463   2.777  17.691  0.00  0.00    +0.000 A 
ATOM      2  C   UNL     1      50.655   1.820  17.062  0.00  0.00    +0.000 A 
ATOM      3  C   UNL     1      49.301   2.076  16.827  0.00  0.00    +0.000 A 
ATOM      4  C   UNL     1      48.735   3.304  17.200  0.00  0.00    +0.000 A 
ATOM      5  C   UNL     1      49.540   4.254  17.839  0.00  0.00    +0.000 A 
ATOM      6  C   UNL     1      50.893   3.999  18.071  0.00  0.00    +0.000 A 
ENDROOT
BRANCH   1   7
ATOM      7  C   UNL     1      52.917   2.497  17.952  0.00  0.00    +0.000 C 
BRANCH   7  10
ATOM      8  O   UNL     1      54.596   0.542  16.873  0.00  0.00    +0.000 OA
ATOM      9  C   UNL     1      53.978   0.288  17.905  0.00  0.00    +0.000 C 
ATOM     10  N   UNL     1      53.134   1.189  18.510  0.00  0.00    +0.000 N 
ATOM     11  H   UNL     1      52.735   0.926  19.407  0.00  0.00    +0.000 HD
BRANCH   9  12
ATOM     12  C   UNL     1      54.092  -0.982  18.593  0.00  0.00    +0.000 A 
ATOM     13  N   UNL     1      54.300  -1.139  19.890  0.00  0.00    +0.000 NA
ATOM     14  C   UNL     1      54.331  -2.497  20.094  0.00  0.00    +0.000 A 
ATOM     15  C   UNL     1      54.160  -3.175  18.911  0.00  0.00    +0.000 A 
ATOM     16  N   UNL     1      53.994  -2.201  17.967  0.00  0.00    +0.000 N 
ATOM     17  H   UNL     1      53.836  -2.323  16.975  0.00  0.00    +0.000 HD
ENDBRANCH   9  12
ENDBRANCH   7  10
ENDBRANCH   1   7
BRANCH   4  18
ATOM     18  C   UNL     1      47.284   3.605  16.945  0.00  0.00    +0.000 C 
BRANCH  18  19
ATOM     19  N   UNL     1      47.119   4.555  15.878  0.00  0.00    +0.000 N 
ATOM     20  C   UNL     1      47.124   4.211  14.551  0.00  0.00    +0.000 C 
ATOM     21  O   UNL     1      47.258   3.054  14.165  0.00  0.00    +0.000 OA
ATOM     22  H   UNL     1      47.242   5.528  16.134  0.00  0.00    +0.000 HD
BRANCH  20  23
ATOM     23  C   UNL     1      46.869   5.311  13.610  0.00  0.00    +0.000 A 
ATOM     24  C   UNL     1      45.768   5.264  12.767  0.00  0.00    +0.000 A 
ATOM     25  S   UNL     1      45.590   6.657  11.798  0.00  0.00    +0.000 S 
ATOM     26  C   UNL     1      47.008   7.349  12.435  0.00  0.00    +0.000 A 
ATOM     27  N   UNL     1      47.448   8.564  12.010  0.00  0.00    +0.000 NA
ATOM     28  C   UNL     1      48.554   8.950  12.551  0.00  0.00    +0.000 A 
ATOM     29  N   UNL     1      49.258   8.236  13.485  0.00  0.00    +0.000 N 
ATOM     30  C   UNL     1      48.823   7.032  13.991  0.00  0.00    +0.000 A 
ATOM     31  O   UNL     1      49.425   6.481  14.907  0.00  0.00    +0.000 OA
ATOM     32  C   UNL     1      47.599   6.538  13.389  0.00  0.00    +0.000 A 
ATOM     33  H   UNL     1      50.107   8.606  13.890  0.00  0.00    +0.000 HD
ENDBRANCH  20  23
ENDBRANCH  18  19
ENDBRANCH   4  18
TORSDOF 6
ENDMDL
MODEL 5
REMARK VINA RESULT:    -7.152      1.632      1.875
REMARK INTER + INTRA:         -10.336
REMARK INTER:                  -9.459
REMARK INTRA:                  -0.877
REMARK UNBOUND:                -0.675
REMARK  Name = 
REMARK  6 active torsions:
REMARK  status: ('A' for Active; 'I' for Inactive)
REMARK    1  A    between atoms: C_2  and  C_25
REMARK    2  A    between atoms: N_3  and  C_4
REMARK    3  A    between atoms: C_4  and  C_5
REMARK    4  A    between atoms: C_8  and  C_9
REMARK    5  A    between atoms: C_9  and  N_10
REMARK    6  A    between atoms: C_11  and  C_13
REMARK                            x       y       z     vdW  Elec       q    Type
REMARK                         _______ _______ _______ _____ _____    ______ ____
ROOT
ATOM      1  C   UNL     1      45.369   6.488  11.611  0.00  0.00    +0.000 A 
ATOM      2  C   UNL     1      45.024   7.763  12.078  0.00  0.00    +0.000 A 
ATOM      3  C   UNL     1      45.855   8.443  12.974  0.00  0.00    +0.000 A 
ATOM      4  C   UNL     1      47.059   7.866  13.402  0.00  0.00    +0.000 A 
ATOM      5  C   UNL     1      47.398   6.587  12.944  0.00  0.00    +0.000 A 
ATOM      6  C   UNL     1      46.568   5.910  12.048  0.00  0.00    +0.000 A 
ENDROOT
BRANCH   1   7
ATOM      7  C   UNL     1      44.470   5.754  10.655  0.00  0.00    +0.000 C 
BRANCH   7  10
ATOM      8  O   UNL     1      44.116   3.086   9.911  0.00  0.00    +0.000 OA
ATOM      9  C   UNL     1      44.963   3.756   9.324  0.00  0.00    +0.000 C 
ATOM     10  N   UNL     1      45.203   5.077   9.620  0.00  0.00    +0.000 N 
ATOM     11  H   UNL     1      45.858   5.577   9.025  0.00  0.00    +0.000 HD
BRANCH   9  12
ATOM     12  C   UNL     1      45.781   3.223   8.254  0.00  0.00    +0.000 A 
ATOM     13  N   UNL     1      46.243   3.910   7.222  0.00  0.00    +0.000 NA
ATOM     14  C   UNL     1      46.963   3.010   6.476  0.00  0.00    +0.000 A 
ATOM     15  C   UNL     1      46.925   1.759   7.044  0.00  0.00    +0.000 A 
ATOM     16  N   UNL     1      46.183   1.911   8.181  0.00  0.00    +0.000 N 
ATOM     17  H   UNL     1      45.946   1.202   8.864  0.00  0.00    +0.000 HD
ENDBRANCH   9  12
ENDBRANCH   7  10
ENDBRANCH   1   7
BRANCH   4  18
ATOM     18  C   UNL     1      47.975   8.584  14.355  0.00  0.00    +0.000 C 
BRANCH  18  19
ATOM     19  N   UNL     1      48.932   7.688  14.948  0.00  0.00    +0.000 N 
ATOM     20  C   UNL     1      49.080   7.527  16.301  0.00  0.00    +0.000 C 
ATOM     21  O   UNL     1      48.395   8.130  17.121  0.00  0.00    +0.000 OA
ATOM     22  H   UNL     1      49.664   7.357  14.330  0.00  0.00    +0.000 HD
BRANCH  20  23
ATOM     23  C   UNL     1      50.061   6.513  16.714  0.00  0.00    +0.000 A 
ATOM     24  C   UNL     1      51.398   6.856  16.858  0.00  0.00    +0.000 A 
ATOM     25  S   UNL     1      52.375   5.573  17.413  0.00  0.00    +0.000 S 
ATOM     26  C   UNL     1      51.054   4.500  17.429  0.00  0.00    +0.000 A 
ATOM     27  N   UNL     1      51.211   3.200  17.800  0.00  0.00    +0.000 NA
ATOM     28  C   UNL     1      50.133   2.493  17.731  0.00  0.00    +0.000 A 
ATOM     29  N   UNL     1      48.911   2.967  17.333  0.00  0.00    +0.000 N 
ATOM     30  C   UNL     1      48.690   4.286  17.007  0.00  0.00    +0.000 A 
ATOM     31  O   UNL     1      47.558   4.692  16.766  0.00  0.00    +0.000 OA
ATOM     32  C   UNL     1      49.879   5.117  17.036  0.00  0.00    +0.000 A 
ATOM     33  H   UNL     1      48.099   2.366  17.325  0.00  0.00    +0.000 HD
ENDBRANCH  20  23
ENDBRANCH  18  19
ENDBRANCH   4  18
TORSDOF 6
ENDMDL
MODEL 6
REMARK VINA RESULT:    -7.072      3.838      8.238
REMARK INTER + INTRA:         -10.228
REMARK INTER:                  -9.267
REMARK INTRA:                  -0.961
REMARK UNBOUND:                -0.675
REMARK  Name = 
REMARK  6 active torsions:
REMARK  status: ('A' for Active; 'I' for Inactive)
REMARK    1  A    between atoms: C_2  and  C_25
REMARK    2  A    between atoms: N_3  and  C_4
REMARK    3  A    between atoms: C_4  and  C_5
REMARK    4  A    between atoms: C_8  and  C_9
REMARK    5  A    between atoms: C_9  and  N_10
REMARK    6  A    between atoms: C_11  and  C_13
REMARK                            x       y       z     vdW  Elec       q    Type
REMARK                         _______ _______ _______ _____ _____    ______ ____
ROOT
ATOM      1  C   UNL     1      50.333   4.560  17.829  0.00  0.00    +0.000 A 
ATOM      2  C   UNL     1      48.994   4.656  17.427  0.00  0.00    +0.000 A 
ATOM      3  C   UNL     1      48.578   5.687  16.580  0.00  0.00    +0.000 A 
ATOM      4  C   UNL     1      49.499   6.631  16.104  0.00  0.00    +0.000 A 
ATOM      5  C   UNL     1      50.834   6.541  16.516  0.00  0.00    +0.000 A 
ATOM      6  C   UNL     1      51.250   5.510  17.360  0.00  0.00    +0.000 A 
ENDROOT
BRANCH   1   7
ATOM      7  C   UNL     1      50.778   3.455  18.747  0.00  0.00    +0.000 C 
BRANCH   7  10
ATOM      8  O   UNL     1      50.971   1.033  17.370  0.00  0.00    +0.000 OA
ATOM      9  C   UNL     1      52.003   1.642  17.644  0.00  0.00    +0.000 C 
ATOM     10  N   UNL     1      52.005   2.842  18.315  0.00  0.00    +0.000 N 
ATOM     11  H   UNL     1      52.897   3.317  18.420  0.00  0.00    +0.000 HD
BRANCH   9  12
ATOM     12  C   UNL     1      53.318   1.160  17.274  0.00  0.00    +0.000 A 
ATOM     13  N   UNL     1      54.440   1.858  17.336  0.00  0.00    +0.000 NA
ATOM     14  C   UNL     1      55.425   1.008  16.898  0.00  0.00    +0.000 A 
ATOM     15  C   UNL     1      54.900  -0.213  16.546  0.00  0.00    +0.000 A 
ATOM     16  N   UNL     1      53.563  -0.108  16.804  0.00  0.00    +0.000 N 
ATOM     17  H   UNL     1      52.851  -0.816  16.674  0.00  0.00    +0.000 HD
ENDBRANCH   9  12
ENDBRANCH   7  10
ENDBRANCH   1   7
BRANCH   4  18
ATOM     18  C   UNL     1      49.076   7.742  15.182  0.00  0.00    +0.000 C 
BRANCH  18  19
ATOM     19  N   UNL     1      47.892   7.394  14.441  0.00  0.00    +0.000 N 
ATOM     20  C   UNL     1      47.915   6.683  13.269  0.00  0.00    +0.000 C 
ATOM     21  O   UNL     1      48.953   6.274  12.760  0.00  0.00    +0.000 OA
ATOM     22  H   UNL     1      47.053   7.903  14.691  0.00  0.00    +0.000 HD
BRANCH  20  23
ATOM     23  C   UNL     1      46.599   6.363  12.698  0.00  0.00    +0.000 A 
ATOM     24  C   UNL     1      45.827   7.364  12.126  0.00  0.00    +0.000 A 
ATOM     25  S   UNL     1      44.367   6.797  11.450  0.00  0.00    +0.000 S 
ATOM     26  C   UNL     1      44.692   5.202  11.945  0.00  0.00    +0.000 A 
ATOM     27  N   UNL     1      43.814   4.195  11.689  0.00  0.00    +0.000 NA
ATOM     28  C   UNL     1      44.172   3.045  12.152  0.00  0.00    +0.000 A 
ATOM     29  N   UNL     1      45.332   2.806  12.840  0.00  0.00    +0.000 N 
ATOM     30  C   UNL     1      46.279   3.778  13.070  0.00  0.00    +0.000 A 
ATOM     31  O   UNL     1      47.354   3.497  13.591  0.00  0.00    +0.000 OA
ATOM     32  C   UNL     1      45.908   5.099  12.598  0.00  0.00    +0.000 A 
ATOM     33  H   UNL     1      45.567   1.875  13.156  0.00  0.00    +0.000 HD
ENDBRANCH  20  23
ENDBRANCH  18  19
ENDBRANCH   4  18
TORSDOF 6
ENDMDL
MODEL 7
REMARK VINA RESULT:    -6.882      4.715      7.375
REMARK INTER + INTRA:          -9.970
REMARK INTER:                  -9.026
REMARK INTRA:                  -0.945
REMARK UNBOUND:                -0.675
REMARK  Name = 
REMARK  6 active torsions:
REMARK  status: ('A' for Active; 'I' for Inactive)
REMARK    1  A    between atoms: C_2  and  C_25
REMARK    2  A    between atoms: N_3  and  C_4
REMARK    3  A    between atoms: C_4  and  C_5
REMARK    4  A    between atoms: C_8  and  C_9
REMARK    5  A    between atoms: C_9  and  N_10
REMARK    6  A    between atoms: C_11  and  C_13
REMARK                            x       y       z     vdW  Elec       q    Type
REMARK                         _______ _______ _______ _____ _____    ______ ____
ROOT
ATOM      1  C   UNL     1      50.397   8.735  11.322  0.00  0.00    +0.000 A 
ATOM      2  C   UNL     1      49.528   9.828  11.438  0.00  0.00    +0.000 A 
ATOM      3  C   UNL     1      48.225   9.654  11.916  0.00  0.00    +0.000 A 
ATOM      4  C   UNL     1      47.776   8.385  12.306  0.00  0.00    +0.000 A 
ATOM      5  C   UNL     1      48.642   7.292  12.179  0.00  0.00    +0.000 A 
ATOM      6  C   UNL     1      49.943   7.467  11.704  0.00  0.00    +0.000 A 
ENDROOT
BRANCH   1   7
ATOM      7  C   UNL     1      51.795   8.923  10.799  0.00  0.00    +0.000 C 
BRANCH   7  10
ATOM      8  O   UNL     1      52.635   8.940   8.136  0.00  0.00    +0.000 OA
ATOM      9  C   UNL     1      52.657   7.880   8.756  0.00  0.00    +0.000 C 
ATOM     10  N   UNL     1      52.267   7.776  10.071  0.00  0.00    +0.000 N 
ATOM     11  H   UNL     1      52.403   6.879  10.529  0.00  0.00    +0.000 HD
BRANCH   9  12
ATOM     12  C   UNL     1      53.111   6.637   8.166  0.00  0.00    +0.000 A 
ATOM     13  N   UNL     1      52.782   6.189   6.965  0.00  0.00    +0.000 NA
ATOM     14  C   UNL     1      53.442   4.992   6.828  0.00  0.00    +0.000 A 
ATOM     15  C   UNL     1      54.164   4.696   7.959  0.00  0.00    +0.000 A 
ATOM     16  N   UNL     1      53.958   5.756   8.796  0.00  0.00    +0.000 N 
ATOM     17  H   UNL     1      54.337   5.894   9.724  0.00  0.00    +0.000 HD
ENDBRANCH   9  12
ENDBRANCH   7  10
ENDBRANCH   1   7
BRANCH   4  18
ATOM     18  C   UNL     1      46.384   8.176  12.836  0.00  0.00    +0.000 C 
BRANCH  18  19
ATOM     19  N   UNL     1      45.889   6.862  12.522  0.00  0.00    +0.000 N 
ATOM     20  C   UNL     1      44.791   6.635  11.734  0.00  0.00    +0.000 C 
ATOM     21  O   UNL     1      44.144   7.542  11.217  0.00  0.00    +0.000 OA
ATOM     22  H   UNL     1      46.238   6.112  13.107  0.00  0.00    +0.000 HD
BRANCH  20  23
ATOM     23  C   UNL     1      44.483   5.223  11.469  0.00  0.00    +0.000 A 
ATOM     24  C   UNL     1      43.725   4.495  12.376  0.00  0.00    +0.000 A 
ATOM     25  S   UNL     1      43.406   2.897  11.870  0.00  0.00    +0.000 S 
ATOM     26  C   UNL     1      44.313   3.107  10.446  0.00  0.00    +0.000 A 
ATOM     27  N   UNL     1      44.462   2.092   9.552  0.00  0.00    +0.000 NA
ATOM     28  C   UNL     1      45.204   2.380   8.537  0.00  0.00    +0.000 A 
ATOM     29  N   UNL     1      45.806   3.593   8.327  0.00  0.00    +0.000 N 
ATOM     30  C   UNL     1      45.636   4.668   9.170  0.00  0.00    +0.000 A 
ATOM     31  O   UNL     1      46.100   5.768   8.887  0.00  0.00    +0.000 OA
ATOM     32  C   UNL     1      44.836   4.385  10.347  0.00  0.00    +0.000 A 
ATOM     33  H   UNL     1      46.356   3.763   7.497  0.00  0.00    +0.000 HD
ENDBRANCH  20  23
ENDBRANCH  18  19
ENDBRANCH   4  18
TORSDOF 6
ENDMDL
MODEL 8
REMARK VINA RESULT:    -6.694      2.493      3.554
REMARK INTER + INTRA:          -9.716
REMARK INTER:                  -8.713
REMARK INTRA:                  -1.003
REMARK UNBOUND:                -0.675
REMARK  Name = 
REMARK  6 active torsions:
REMARK  status: ('A' for Active; 'I' for Inactive)
REMARK    1  A    between atoms: C_2  and  C_25
REMARK    2  A    between atoms: N_3  and  C_4
REMARK    3  A    between atoms: C_4  and  C_5
REMARK    4  A    between atoms: C_8  and  C_9
REMARK    5  A    between atoms: C_9  and  N_10
REMARK    6  A    between atoms: C_11  and  C_13
REMARK                            x       y       z     vdW  Elec       q    Type
REMARK                         _______ _______ _______ _____ _____    ______ ____
ROOT
ATOM      1  C   UNL     1      46.105   7.559  12.218  0.00  0.00    +0.000 A 
ATOM      2  C   UNL     1      46.086   8.537  13.222  0.00  0.00    +0.000 A 
ATOM      3  C   UNL     1      47.207   8.750  14.029  0.00  0.00    +0.000 A 
ATOM      4  C   UNL     1      48.376   8.001  13.833  0.00  0.00    +0.000 A 
ATOM      5  C   UNL     1      48.390   7.016  12.838  0.00  0.00    +0.000 A 
ATOM      6  C   UNL     1      47.271   6.805  12.031  0.00  0.00    +0.000 A 
ENDROOT
BRANCH   1   7
ATOM      7  C   UNL     1      44.895   7.324  11.357  0.00  0.00    +0.000 C 
BRANCH   7  10
ATOM      8  O   UNL     1      43.938   4.729  11.742  0.00  0.00    +0.000 OA
ATOM      9  C   UNL     1      44.570   4.981  10.719  0.00  0.00    +0.000 C 
ATOM     10  N   UNL     1      45.075   6.229  10.443  0.00  0.00    +0.000 N 
ATOM     11  H   UNL     1      45.507   6.367   9.533  0.00  0.00    +0.000 HD
BRANCH   9  12
ATOM     12  C   UNL     1      44.833   3.988   9.697  0.00  0.00    +0.000 A 
ATOM     13  N   UNL     1      45.037   4.239   8.414  0.00  0.00    +0.000 NA
ATOM     14  C   UNL     1      45.247   3.014   7.830  0.00  0.00    +0.000 A 
ATOM     15  C   UNL     1      45.152   2.004   8.758  0.00  0.00    +0.000 A 
ATOM     16  N   UNL     1      44.904   2.638   9.943  0.00  0.00    +0.000 N 
ATOM     17  H   UNL     1      44.779   2.217  10.855  0.00  0.00    +0.000 HD
ENDBRANCH   9  12
ENDBRANCH   7  10
ENDBRANCH   1   7
BRANCH   4  18
ATOM     18  C   UNL     1      49.599   8.222  14.681  0.00  0.00    +0.000 C 
BRANCH  18  19
ATOM     19  N   UNL     1      50.010   7.014  15.345  0.00  0.00    +0.000 N 
ATOM     20  C   UNL     1      49.517   6.612  16.559  0.00  0.00    +0.000 C 
ATOM     21  O   UNL     1      48.670   7.249  17.177  0.00  0.00    +0.000 OA
ATOM     22  H   UNL     1      50.860   6.589  14.994  0.00  0.00    +0.000 HD
BRANCH  20  23
ATOM     23  C   UNL     1      50.005   5.312  17.041  0.00  0.00    +0.000 A 
ATOM     24  C   UNL     1      49.114   4.268  17.248  0.00  0.00    +0.000 A 
ATOM     25  S   UNL     1      49.866   2.817  17.737  0.00  0.00    +0.000 S 
ATOM     26  C   UNL     1      51.402   3.548  17.740  0.00  0.00    +0.000 A 
ATOM     27  N   UNL     1      52.513   2.845  18.091  0.00  0.00    +0.000 NA
ATOM     28  C   UNL     1      53.604   3.534  18.083  0.00  0.00    +0.000 A 
ATOM     29  N   UNL     1      53.689   4.860  17.749  0.00  0.00    +0.000 N 
ATOM     30  C   UNL     1      52.605   5.597  17.330  0.00  0.00    +0.000 A 
ATOM     31  O   UNL     1      52.744   6.749  16.932  0.00  0.00    +0.000 OA
ATOM     32  C   UNL     1      51.346   4.876  17.354  0.00  0.00    +0.000 A 
ATOM     33  H   UNL     1      54.580   5.338  17.739  0.00  0.00    +0.000 HD
ENDBRANCH  20  23
ENDBRANCH  18  19
ENDBRANCH   4  18
TORSDOF 6
ENDMDL
MODEL 9
REMARK VINA RESULT:    -6.681      3.190      8.644
REMARK INTER + INTRA:          -9.700
REMARK INTER:                  -8.787
REMARK INTRA:                  -0.913
REMARK UNBOUND:                -0.675
REMARK  Name = 
REMARK  6 active torsions:
REMARK  status: ('A' for Active; 'I' for Inactive)
REMARK    1  A    between atoms: C_2  and  C_25
REMARK    2  A    between atoms: N_3  and  C_4
REMARK    3  A    between atoms: C_4  and  C_5
REMARK    4  A    between atoms: C_8  and  C_9
REMARK    5  A    between atoms: C_9  and  N_10
REMARK    6  A    between atoms: C_11  and  C_13
REMARK                            x       y       z     vdW  Elec       q    Type
REMARK                         _______ _______ _______ _____ _____    ______ ____
ROOT
ATOM      1  C   UNL     1      50.123   6.656  16.367  0.00  0.00    +0.000 A 
ATOM      2  C   UNL     1      48.860   6.076  16.185  0.00  0.00    +0.000 A 
ATOM      3  C   UNL     1      48.131   6.309  15.014  0.00  0.00    +0.000 A 
ATOM      4  C   UNL     1      48.664   7.111  13.995  0.00  0.00    +0.000 A 
ATOM      5  C   UNL     1      49.920   7.699  14.182  0.00  0.00    +0.000 A 
ATOM      6  C   UNL     1      50.648   7.465  15.350  0.00  0.00    +0.000 A 
ENDROOT
BRANCH   1   7
ATOM      7  C   UNL     1      50.901   6.412  17.630  0.00  0.00    +0.000 C 
BRANCH   7  10
ATOM      8  O   UNL     1      50.007   3.982  18.675  0.00  0.00    +0.000 OA
ATOM      9  C   UNL     1      51.113   4.025  18.140  0.00  0.00    +0.000 C 
ATOM     10  N   UNL     1      51.633   5.175  17.594  0.00  0.00    +0.000 N 
ATOM     11  H   UNL     1      52.514   5.097  17.094  0.00  0.00    +0.000 HD
BRANCH   9  12
ATOM     12  C   UNL     1      51.970   2.863  18.019  0.00  0.00    +0.000 A 
ATOM     13  N   UNL     1      53.287   2.860  18.152  0.00  0.00    +0.000 NA
ATOM     14  C   UNL     1      53.671   1.555  17.964  0.00  0.00    +0.000 A 
ATOM     15  C   UNL     1      52.584   0.757  17.695  0.00  0.00    +0.000 A 
ATOM     16  N   UNL     1      51.508   1.597  17.748  0.00  0.00    +0.000 N 
ATOM     17  H   UNL     1      50.534   1.363  17.608  0.00  0.00    +0.000 HD
ENDBRANCH   9  12
ENDBRANCH   7  10
ENDBRANCH   1   7
BRANCH   4  18
ATOM     18  C   UNL     1      47.903   7.364  12.722  0.00  0.00    +0.000 C 
BRANCH  18  19
ATOM     19  N   UNL     1      47.086   6.237  12.359  0.00  0.00    +0.000 N 
ATOM     20  C   UNL     1      45.716   6.266  12.353  0.00  0.00    +0.000 C 
ATOM     21  O   UNL     1      45.071   7.267  12.647  0.00  0.00    +0.000 OA
ATOM     22  H   UNL     1      47.559   5.341  12.341  0.00  0.00    +0.000 HD
BRANCH  20  23
ATOM     23  C   UNL     1      45.059   5.038  11.884  0.00  0.00    +0.000 A 
ATOM     24  C   UNL     1      44.308   4.270  12.764  0.00  0.00    +0.000 A 
ATOM     25  S   UNL     1      43.561   2.924  12.029  0.00  0.00    +0.000 S 
ATOM     26  C   UNL     1      44.257   3.291  10.520  0.00  0.00    +0.000 A 
ATOM     27  N   UNL     1      44.030   2.505   9.433  0.00  0.00    +0.000 NA
ATOM     28  C   UNL     1      44.649   2.881   8.364  0.00  0.00    +0.000 A 
ATOM     29  N   UNL     1      45.469   3.976   8.280  0.00  0.00    +0.000 N 
ATOM     30  C   UNL     1      45.681   4.835   9.335  0.00  0.00    +0.000 A 
ATOM     31  O   UNL     1      46.331   5.864   9.185  0.00  0.00    +0.000 OA
ATOM     32  C   UNL     1      45.033   4.436  10.571  0.00  0.00    +0.000 A 
ATOM     33  H   UNL     1      45.906   4.231   7.406  0.00  0.00    +0.000 HD
ENDBRANCH  20  23
ENDBRANCH  18  19
ENDBRANCH   4  18
TORSDOF 6
ENDMDL
