MODEL 1
REMARK VINA RESULT:    -7.537      0.000      0.000
REMARK INTER + INTRA:         -11.847
REMARK INTER:                 -10.621
REMARK INTRA:                  -1.226
REMARK UNBOUND:                -1.226
REMARK  Name = 
REMARK  7 active torsions:
REMARK  status: ('A' for Active; 'I' for Inactive)
REMARK    1  A    between atoms: C_2  and  C_3
REMARK    2  A    between atoms: C_8  and  C_9
REMARK    3  A    between atoms: N_11  and  C_12
REMARK    4  A    between atoms: C_12  and  C_13
REMARK    5  A    between atoms: C_16  and  C_17
REMARK    6  A    between atoms: C_17  and  N_18
REMARK    7  A    between atoms: C_19  and  C_21
REMARK                            x       y       z     vdW  Elec       q    Type
REMARK                         _______ _______ _______ _____ _____    ______ ____
ROOT
ATOM      1  C   UNL     1      50.057   7.087  15.693  0.00  0.00    +0.000 A 
ATOM      2  C   UNL     1      50.557   7.779  14.582  0.00  0.00    +0.000 A 
ATOM      3  C   UNL     1      49.788   7.921  13.421  0.00  0.00    +0.000 A 
ATOM      4  C   UNL     1      48.490   7.399  13.354  0.00  0.00    +0.000 A 
ATOM      5  C   UNL     1      47.991   6.704  14.464  0.00  0.00    +0.000 A 
ATOM      6  C   UNL     1      48.762   6.555  15.624  0.00  0.00    +0.000 A 
ENDROOT
BRANCH   1   7
ATOM      7  C   UNL     1      50.900   6.919  16.934  0.00  0.00    +0.000 C 
BRANCH   7  10
ATOM      8  C   UNL     1      51.078   4.683  17.955  0.00  0.00    +0.000 C 
ATOM      9  O   UNL     1      50.160   4.902  18.740  0.00  0.00    +0.000 OA
ATOM     10  N   UNL     1      51.497   5.601  17.018  0.00  0.00    +0.000 N 
ATOM     11  H   UNL     1      52.163   5.358  16.299  0.00  0.00    +0.000 HD
BRANCH   8  17
ATOM     12  C   UNL     1      51.253   2.176  17.401  0.00  0.00    +0.000 A 
ATOM     13  C   UNL     1      52.027   1.001  17.433  0.00  0.00    +0.000 A 
ATOM     14  C   UNL     1      53.276   0.984  18.053  0.00  0.00    +0.000 A 
ATOM     15  C   UNL     1      53.766   2.139  18.651  0.00  0.00    +0.000 A 
ATOM     16  C   UNL     1      53.011   3.314  18.616  0.00  0.00    +0.000 A 
ATOM     17  C   UNL     1      51.748   3.349  18.000  0.00  0.00    +0.000 A 
BRANCH  12  19
ATOM     18  N   UNL     1      48.983   2.026  16.162  0.00  0.00    +0.000 NA
ATOM     19  C   UNL     1      49.987   2.117  16.737  0.00  0.00    +0.000 C 
ENDBRANCH  12  19
ENDBRANCH   8  17
ENDBRANCH   7  10
ENDBRANCH   1   7
BRANCH   4  20
ATOM     20  C   UNL     1      47.657   7.558  12.107  0.00  0.00    +0.000 C 
BRANCH  20  21
ATOM     21  N   UNL     1      46.927   6.354  11.794  0.00  0.00    +0.000 N 
ATOM     22  C   UNL     1      45.557   6.313  11.855  0.00  0.00    +0.000 C 
ATOM     23  O   UNL     1      44.889   7.306  12.133  0.00  0.00    +0.000 OA
ATOM     24  H   UNL     1      47.454   5.486  11.785  0.00  0.00    +0.000 HD
BRANCH  22  25
ATOM     25  C   UNL     1      44.919   5.035  11.509  0.00  0.00    +0.000 A 
ATOM     26  C   UNL     1      44.162   4.362  12.459  0.00  0.00    +0.000 A 
ATOM     27  S   UNL     1      43.454   2.923  11.879  0.00  0.00    +0.000 S 
ATOM     28  C   UNL     1      44.176   3.120  10.351  0.00  0.00    +0.000 A 
ATOM     29  N   UNL     1      43.992   2.199   9.367  0.00  0.00    +0.000 NA
ATOM     30  C   UNL     1      44.621   2.458   8.269  0.00  0.00    +0.000 A 
ATOM     31  N   UNL     1      45.412   3.560   8.065  0.00  0.00    +0.000 N 
ATOM     32  C   UNL     1      45.603   4.528   9.019  0.00  0.00    +0.000 A 
ATOM     33  O   UNL     1      46.290   5.521   8.791  0.00  0.00    +0.000 OA
ATOM     34  C   UNL     1      44.930   4.279  10.279  0.00  0.00    +0.000 A 
ATOM     35  H   UNL     1      45.871   3.708   7.179  0.00  0.00    +0.000 HD
ENDBRANCH  22  25
ENDBRANCH  20  21
ENDBRANCH   4  20
TORSDOF 7
ENDMDL
MODEL 2
REMARK VINA RESULT:    -7.361      1.321      1.950
REMARK INTER + INTRA:         -11.600
REMARK INTER:                 -10.497
REMARK INTRA:                  -1.102
REMARK UNBOUND:                -1.226
REMARK  Name = 
REMARK  7 active torsions:
REMARK  status: ('A' for Active; 'I' for Inactive)
REMARK    1  A    between atoms: C_2  and  C_3
REMARK    2  A    between atoms: C_8  and  C_9
REMARK    3  A    between atoms: N_11  and  C_12
REMARK    4  A    between atoms: C_12  and  C_13
REMARK    5  A    between atoms: C_16  and  C_17
REMARK    6  A    between atoms: C_17  and  N_18
REMARK    7  A    between atoms: C_19  and  C_21
REMARK                            x       y       z     vdW  Elec       q    Type
REMARK                         _______ _______ _______ _____ _____    ______ ____
ROOT
ATOM      1  C   UNL     1      49.787   7.126  16.085  0.00  0.00    +0.000 A 
ATOM      2  C   UNL     1      50.380   8.124  15.300  0.00  0.00    +0.000 A 
ATOM      3  C   UNL     1      49.891   8.415  14.022  0.00  0.00    +0.000 A 
ATOM      4  C   UNL     1      48.779   7.734  13.509  0.00  0.00    +0.000 A 
ATOM      5  C   UNL     1      48.188   6.733  14.292  0.00  0.00    +0.000 A 
ATOM      6  C   UNL     1      48.680   6.437  15.569  0.00  0.00    +0.000 A 
ENDROOT
BRANCH   1   7
ATOM      7  C   UNL     1      50.333   6.803  17.454  0.00  0.00    +0.000 C 
BRANCH   7  10
ATOM      8  C   UNL     1      50.772   4.502  18.220  0.00  0.00    +0.000 C 
ATOM      9  O   UNL     1      49.754   4.472  18.906  0.00  0.00    +0.000 OA
ATOM     10  N   UNL     1      51.128   5.591  17.457  0.00  0.00    +0.000 N 
ATOM     11  H   UNL     1      51.896   5.551  16.802  0.00  0.00    +0.000 HD
BRANCH   8  17
ATOM     12  C   UNL     1      51.373   2.117  17.465  0.00  0.00    +0.000 A 
ATOM     13  C   UNL     1      52.323   1.079  17.442  0.00  0.00    +0.000 A 
ATOM     14  C   UNL     1      53.529   1.198  18.134  0.00  0.00    +0.000 A 
ATOM     15  C   UNL     1      53.798   2.354  18.858  0.00  0.00    +0.000 A 
ATOM     16  C   UNL     1      52.867   3.394  18.878  0.00  0.00    +0.000 A 
ATOM     17  C   UNL     1      51.645   3.291  18.191  0.00  0.00    +0.000 A 
BRANCH  12  19
ATOM     18  N   UNL     1      49.219   1.737  16.078  0.00  0.00    +0.000 NA
ATOM     19  C   UNL     1      50.165   1.924  16.722  0.00  0.00    +0.000 C 
ENDBRANCH  12  19
ENDBRANCH   8  17
ENDBRANCH   7  10
ENDBRANCH   1   7
BRANCH   4  20
ATOM     20  C   UNL     1      48.245   8.051  12.134  0.00  0.00    +0.000 C 
BRANCH  20  21
ATOM     21  N   UNL     1      47.561   6.922  11.552  0.00  0.00    +0.000 N 
ATOM     22  C   UNL     1      46.199   6.923  11.382  0.00  0.00    +0.000 C 
ATOM     23  O   UNL     1      45.509   7.896  11.673  0.00  0.00    +0.000 OA
ATOM     24  H   UNL     1      48.070   6.045  11.517  0.00  0.00    +0.000 HD
BRANCH  22  25
ATOM     25  C   UNL     1      45.610   5.722  10.773  0.00  0.00    +0.000 A 
ATOM     26  C   UNL     1      45.776   5.485   9.415  0.00  0.00    +0.000 A 
ATOM     27  S   UNL     1      45.070   4.027   8.882  0.00  0.00    +0.000 S 
ATOM     28  C   UNL     1      44.472   3.684  10.437  0.00  0.00    +0.000 A 
ATOM     29  N   UNL     1      43.737   2.565  10.673  0.00  0.00    +0.000 NA
ATOM     30  C   UNL     1      43.322   2.444  11.890  0.00  0.00    +0.000 A 
ATOM     31  N   UNL     1      43.585   3.341  12.895  0.00  0.00    +0.000 N 
ATOM     32  C   UNL     1      44.345   4.468  12.710  0.00  0.00    +0.000 A 
ATOM     33  O   UNL     1      44.590   5.231  13.641  0.00  0.00    +0.000 OA
ATOM     34  C   UNL     1      44.825   4.660  11.355  0.00  0.00    +0.000 A 
ATOM     35  H   UNL     1      43.237   3.184  13.829  0.00  0.00    +0.000 HD
ENDBRANCH  22  25
ENDBRANCH  20  21
ENDBRANCH   4  20
TORSDOF 7
ENDMDL
MODEL 3
REMARK VINA RESULT:    -6.995      4.495     10.173
REMARK INTER + INTRA:         -11.084
REMARK INTER:                  -9.951
REMARK INTRA:                  -1.132
REMARK UNBOUND:                -1.226
REMARK  Name = 
REMARK  7 active torsions:
REMARK  status: ('A' for Active; 'I' for Inactive)
REMARK    1  A    between atoms: C_2  and  C_3
REMARK    2  A    between atoms: C_8  and  C_9
REMARK    3  A    between atoms: N_11  and  C_12
REMARK    4  A    between atoms: C_12  and  C_13
REMARK    5  A    between atoms: C_16  and  C_17
REMARK    6  A    between atoms: C_17  and  N_18
REMARK    7  A    between atoms: C_19  and  C_21
REMARK                            x       y       z     vdW  Elec       q    Type
REMARK                         _______ _______ _______ _____ _____    ______ ____
ROOT
ATOM      1  C   UNL     1      48.896   3.405  17.278  0.00  0.00    +0.000 A 
ATOM      2  C   UNL     1      49.427   2.136  17.012  0.00  0.00    +0.000 A 
ATOM      3  C   UNL     1      50.787   1.873  17.208  0.00  0.00    +0.000 A 
ATOM      4  C   UNL     1      51.644   2.866  17.702  0.00  0.00    +0.000 A 
ATOM      5  C   UNL     1      51.114   4.136  17.965  0.00  0.00    +0.000 A 
ATOM      6  C   UNL     1      49.754   4.402  17.763  0.00  0.00    +0.000 A 
ENDROOT
BRANCH   1   7
ATOM      7  C   UNL     1      47.432   3.686  17.044  0.00  0.00    +0.000 C 
BRANCH   7  10
ATOM      8  C   UNL     1      47.133   4.268  14.667  0.00  0.00    +0.000 C 
ATOM      9  O   UNL     1      47.185   3.093  14.312  0.00  0.00    +0.000 OA
ATOM     10  N   UNL     1      47.221   4.654  15.985  0.00  0.00    +0.000 N 
ATOM     11  H   UNL     1      47.047   5.607  16.271  0.00  0.00    +0.000 HD
BRANCH   8  17
ATOM     12  C   UNL     1      45.744   5.521  12.901  0.00  0.00    +0.000 A 
ATOM     13  C   UNL     1      45.651   6.608  12.011  0.00  0.00    +0.000 A 
ATOM     14  C   UNL     1      46.723   7.483  11.836  0.00  0.00    +0.000 A 
ATOM     15  C   UNL     1      47.902   7.281  12.545  0.00  0.00    +0.000 A 
ATOM     16  C   UNL     1      48.001   6.212  13.438  0.00  0.00    +0.000 A 
ATOM     17  C   UNL     1      46.934   5.318  13.625  0.00  0.00    +0.000 A 
BRANCH  12  19
ATOM     18  N   UNL     1      43.676   3.991  13.201  0.00  0.00    +0.000 NA
ATOM     19  C   UNL     1      44.598   4.675  13.034  0.00  0.00    +0.000 C 
ENDBRANCH  12  19
ENDBRANCH   8  17
ENDBRANCH   7  10
ENDBRANCH   1   7
BRANCH   4  20
ATOM     20  C   UNL     1      53.109   2.583  17.922  0.00  0.00    +0.000 C 
BRANCH  20  21
ATOM     21  N   UNL     1      53.417   1.185  17.746  0.00  0.00    +0.000 N 
ATOM     22  C   UNL     1      54.175   0.501  18.663  0.00  0.00    +0.000 C 
ATOM     23  O   UNL     1      54.586   1.031  19.692  0.00  0.00    +0.000 OA
ATOM     24  H   UNL     1      53.284   0.798  16.818  0.00  0.00    +0.000 HD
BRANCH  22  25
ATOM     25  C   UNL     1      54.420  -0.922  18.386  0.00  0.00    +0.000 A 
ATOM     26  C   UNL     1      54.183  -1.868  19.374  0.00  0.00    +0.000 A 
ATOM     27  S   UNL     1      54.473  -3.472  18.872  0.00  0.00    +0.000 S 
ATOM     28  C   UNL     1      54.976  -2.956  17.331  0.00  0.00    +0.000 A 
ATOM     29  N   UNL     1      55.393  -3.851  16.395  0.00  0.00    +0.000 NA
ATOM     30  C   UNL     1      55.774  -3.321  15.282  0.00  0.00    +0.000 A 
ATOM     31  N   UNL     1      55.769  -1.975  15.017  0.00  0.00    +0.000 N 
ATOM     32  C   UNL     1      55.331  -1.039  15.920  0.00  0.00    +0.000 A 
ATOM     33  O   UNL     1      55.306   0.157  15.637  0.00  0.00    +0.000 OA
ATOM     34  C   UNL     1      54.904  -1.580  17.195  0.00  0.00    +0.000 A 
ATOM     35  H   UNL     1      56.073  -1.624  14.121  0.00  0.00    +0.000 HD
ENDBRANCH  22  25
ENDBRANCH  20  21
ENDBRANCH   4  20
TORSDOF 7
ENDMDL
MODEL 4
REMARK VINA RESULT:    -6.946      2.092      2.616
REMARK INTER + INTRA:         -11.015
REMARK INTER:                  -9.921
REMARK INTRA:                  -1.094
REMARK UNBOUND:                -1.226
REMARK  Name = 
REMARK  7 active torsions:
REMARK  status: ('A' for Active; 'I' for Inactive)
REMARK    1  A    between atoms: C_2  and  C_3
REMARK    2  A    between atoms: C_8  and  C_9
REMARK    3  A    between atoms: N_11  and  C_12
REMARK    4  A    between atoms: C_12  and  C_13
REMARK    5  A    between atoms: C_16  and  C_17
REMARK    6  A    between atoms: C_17  and  N_18
REMARK    7  A    between atoms: C_19  and  C_21
REMARK                            x       y       z     vdW  Elec       q    Type
REMARK                         _______ _______ _______ _____ _____    ______ ____
ROOT
ATOM      1  C   UNL     1      49.557   5.910  18.086  0.00  0.00    +0.000 A 
ATOM      2  C   UNL     1      49.837   7.259  17.833  0.00  0.00    +0.000 A 
ATOM      3  C   UNL     1      49.440   7.860  16.633  0.00  0.00    +0.000 A 
ATOM      4  C   UNL     1      48.730   7.133  15.669  0.00  0.00    +0.000 A 
ATOM      5  C   UNL     1      48.453   5.782  15.920  0.00  0.00    +0.000 A 
ATOM      6  C   UNL     1      48.855   5.178  17.118  0.00  0.00    +0.000 A 
ENDROOT
BRANCH   1   7
ATOM      7  C   UNL     1      50.006   5.263  19.374  0.00  0.00    +0.000 C 
BRANCH   7  10
ATOM      8  C   UNL     1      52.059   4.044  18.761  0.00  0.00    +0.000 C 
ATOM      9  O   UNL     1      52.706   5.079  18.628  0.00  0.00    +0.000 OA
ATOM     10  N   UNL     1      50.737   4.033  19.145  0.00  0.00    +0.000 N 
ATOM     11  H   UNL     1      50.259   3.173  19.373  0.00  0.00    +0.000 HD
BRANCH   8  17
ATOM     12  C   UNL     1      52.263   1.712  17.694  0.00  0.00    +0.000 A 
ATOM     13  C   UNL     1      53.053   0.567  17.476  0.00  0.00    +0.000 A 
ATOM     14  C   UNL     1      54.307   0.439  18.074  0.00  0.00    +0.000 A 
ATOM     15  C   UNL     1      54.785   1.451  18.898  0.00  0.00    +0.000 A 
ATOM     16  C   UNL     1      54.014   2.595  19.113  0.00  0.00    +0.000 A 
ATOM     17  C   UNL     1      52.747   2.740  18.523  0.00  0.00    +0.000 A 
BRANCH  12  19
ATOM     18  N   UNL     1      49.938   1.815  16.558  0.00  0.00    +0.000 NA
ATOM     19  C   UNL     1      50.993   1.773  17.037  0.00  0.00    +0.000 C 
ENDBRANCH  12  19
ENDBRANCH   8  17
ENDBRANCH   7  10
ENDBRANCH   1   7
BRANCH   4  20
ATOM     20  C   UNL     1      48.294   7.780  14.378  0.00  0.00    +0.000 C 
BRANCH  20  21
ATOM     21  N   UNL     1      47.069   7.205  13.878  0.00  0.00    +0.000 N 
ATOM     22  C   UNL     1      46.845   7.063  12.532  0.00  0.00    +0.000 C 
ATOM     23  O   UNL     1      47.689   7.375  11.695  0.00  0.00    +0.000 OA
ATOM     24  H   UNL     1      46.288   7.154  14.524  0.00  0.00    +0.000 HD
BRANCH  22  25
ATOM     25  C   UNL     1      45.565   6.460  12.136  0.00  0.00    +0.000 A 
ATOM     26  C   UNL     1      44.571   7.253  11.578  0.00  0.00    +0.000 A 
ATOM     27  S   UNL     1      43.171   6.387  11.133  0.00  0.00    +0.000 S 
ATOM     28  C   UNL     1      43.821   4.928  11.718  0.00  0.00    +0.000 A 
ATOM     29  N   UNL     1      43.107   3.771  11.663  0.00  0.00    +0.000 NA
ATOM     30  C   UNL     1      43.709   2.747  12.168  0.00  0.00    +0.000 A 
ATOM     31  N   UNL     1      44.966   2.774  12.717  0.00  0.00    +0.000 N 
ATOM     32  C   UNL     1      45.733   3.911  12.769  0.00  0.00    +0.000 A 
ATOM     33  O   UNL     1      46.870   3.892  13.236  0.00  0.00    +0.000 OA
ATOM     34  C   UNL     1      45.098   5.097  12.227  0.00  0.00    +0.000 A 
ATOM     35  H   UNL     1      45.384   1.935  13.089  0.00  0.00    +0.000 HD
ENDBRANCH  22  25
ENDBRANCH  20  21
ENDBRANCH   4  20
TORSDOF 7
ENDMDL
MODEL 5
REMARK VINA RESULT:    -6.862      2.838      9.134
REMARK INTER + INTRA:         -10.895
REMARK INTER:                  -9.733
REMARK INTRA:                  -1.162
REMARK UNBOUND:                -1.226
REMARK  Name = 
REMARK  7 active torsions:
REMARK  status: ('A' for Active; 'I' for Inactive)
REMARK    1  A    between atoms: C_2  and  C_3
REMARK    2  A    between atoms: C_8  and  C_9
REMARK    3  A    between atoms: N_11  and  C_12
REMARK    4  A    between atoms: C_12  and  C_13
REMARK    5  A    between atoms: C_16  and  C_17
REMARK    6  A    between atoms: C_17  and  N_18
REMARK    7  A    between atoms: C_19  and  C_21
REMARK                            x       y       z     vdW  Elec       q    Type
REMARK                         _______ _______ _______ _____ _____    ______ ____
ROOT
ATOM      1  C   UNL     1      47.692   7.707  13.394  0.00  0.00    +0.000 A 
ATOM      2  C   UNL     1      47.959   6.434  13.917  0.00  0.00    +0.000 A 
ATOM      3  C   UNL     1      48.428   6.283  15.227  0.00  0.00    +0.000 A 
ATOM      4  C   UNL     1      48.614   7.398  16.054  0.00  0.00    +0.000 A 
ATOM      5  C   UNL     1      48.351   8.671  15.529  0.00  0.00    +0.000 A 
ATOM      6  C   UNL     1      47.887   8.824  14.217  0.00  0.00    +0.000 A 
ENDROOT
BRANCH   1   7
ATOM      7  C   UNL     1      47.206   7.863  11.973  0.00  0.00    +0.000 C 
BRANCH   7  10
ATOM      8  C   UNL     1      45.566   6.307  10.993  0.00  0.00    +0.000 C 
ATOM      9  O   UNL     1      44.645   7.111  11.107  0.00  0.00    +0.000 OA
ATOM     10  N   UNL     1      46.859   6.593  11.368  0.00  0.00    +0.000 N 
ATOM     11  H   UNL     1      47.624   5.971  11.150  0.00  0.00    +0.000 HD
BRANCH   8  17
ATOM     12  C   UNL     1      44.555   3.941  11.027  0.00  0.00    +0.000 A 
ATOM     13  C   UNL     1      44.261   2.761  10.318  0.00  0.00    +0.000 A 
ATOM     14  C   UNL     1      44.676   2.599   8.996  0.00  0.00    +0.000 A 
ATOM     15  C   UNL     1      45.391   3.613   8.368  0.00  0.00    +0.000 A 
ATOM     16  C   UNL     1      45.678   4.792   9.059  0.00  0.00    +0.000 A 
ATOM     17  C   UNL     1      45.273   4.971  10.392  0.00  0.00    +0.000 A 
BRANCH  12  19
ATOM     18  N   UNL     1      43.686   4.056  13.465  0.00  0.00    +0.000 NA
ATOM     19  C   UNL     1      44.085   4.036  12.376  0.00  0.00    +0.000 C 
ENDBRANCH  12  19
ENDBRANCH   8  17
ENDBRANCH   7  10
ENDBRANCH   1   7
BRANCH   4  20
ATOM     20  C   UNL     1      49.113   7.237  17.469  0.00  0.00    +0.000 C 
BRANCH  20  21
ATOM     21  N   UNL     1      50.151   6.240  17.560  0.00  0.00    +0.000 N 
ATOM     22  C   UNL     1      50.548   5.733  18.772  0.00  0.00    +0.000 C 
ATOM     23  O   UNL     1      50.011   6.069  19.825  0.00  0.00    +0.000 OA
ATOM     24  H   UNL     1      50.747   6.121  16.748  0.00  0.00    +0.000 HD
BRANCH  22  25
ATOM     25  C   UNL     1      51.610   4.717  18.746  0.00  0.00    +0.000 A 
ATOM     26  C   UNL     1      52.830   4.978  19.355  0.00  0.00    +0.000 A 
ATOM     27  S   UNL     1      53.930   3.677  19.273  0.00  0.00    +0.000 S 
ATOM     28  C   UNL     1      52.834   2.736  18.376  0.00  0.00    +0.000 A 
ATOM     29  N   UNL     1      53.168   1.488  17.950  0.00  0.00    +0.000 NA
ATOM     30  C   UNL     1      52.255   0.897  17.255  0.00  0.00    +0.000 A 
ATOM     31  N   UNL     1      51.031   1.441  16.954  0.00  0.00    +0.000 N 
ATOM     32  C   UNL     1      50.641   2.684  17.385  0.00  0.00    +0.000 A 
ATOM     33  O   UNL     1      49.524   3.126  17.127  0.00  0.00    +0.000 OA
ATOM     34  C   UNL     1      51.637   3.398  18.159  0.00  0.00    +0.000 A 
ATOM     35  H   UNL     1      50.357   0.923  16.412  0.00  0.00    +0.000 HD
ENDBRANCH  22  25
ENDBRANCH  20  21
ENDBRANCH   4  20
TORSDOF 7
ENDMDL
MODEL 6
REMARK VINA RESULT:    -6.716      2.535      9.372
REMARK INTER + INTRA:         -10.690
REMARK INTER:                  -9.583
REMARK INTRA:                  -1.106
REMARK UNBOUND:                -1.226
REMARK  Name = 
REMARK  7 active torsions:
REMARK  status: ('A' for Active; 'I' for Inactive)
REMARK    1  A    between atoms: C_2  and  C_3
REMARK    2  A    between atoms: C_8  and  C_9
REMARK    3  A    between atoms: N_11  and  C_12
REMARK    4  A    between atoms: C_12  and  C_13
REMARK    5  A    between atoms: C_16  and  C_17
REMARK    6  A    between atoms: C_17  and  N_18
REMARK    7  A    between atoms: C_19  and  C_21
REMARK                            x       y       z     vdW  Elec       q    Type
REMARK                         _______ _______ _______ _____ _____    ______ ____
ROOT
ATOM      1  C   UNL     1      47.567   7.602  13.374  0.00  0.00    +0.000 A 
ATOM      2  C   UNL     1      47.968   8.698  14.149  0.00  0.00    +0.000 A 
ATOM      3  C   UNL     1      48.557   8.511  15.404  0.00  0.00    +0.000 A 
ATOM      4  C   UNL     1      48.785   7.222  15.903  0.00  0.00    +0.000 A 
ATOM      5  C   UNL     1      48.380   6.125  15.130  0.00  0.00    +0.000 A 
ATOM      6  C   UNL     1      47.785   6.311  13.876  0.00  0.00    +0.000 A 
ENDROOT
BRANCH   1   7
ATOM      7  C   UNL     1      46.913   7.812  12.030  0.00  0.00    +0.000 C 
BRANCH   7  10
ATOM      8  C   UNL     1      45.363   6.163  11.053  0.00  0.00    +0.000 C 
ATOM      9  O   UNL     1      44.377   6.849  11.310  0.00  0.00    +0.000 OA
ATOM     10  N   UNL     1      46.647   6.562  11.347  0.00  0.00    +0.000 N 
ATOM     11  H   UNL     1      47.451   6.048  11.015  0.00  0.00    +0.000 HD
BRANCH   8  17
ATOM     12  C   UNL     1      44.511   3.739  10.926  0.00  0.00    +0.000 A 
ATOM     13  C   UNL     1      44.296   2.592  10.139  0.00  0.00    +0.000 A 
ATOM     14  C   UNL     1      44.719   2.547   8.811  0.00  0.00    +0.000 A 
ATOM     15  C   UNL     1      45.365   3.645   8.254  0.00  0.00    +0.000 A 
ATOM     16  C   UNL     1      45.574   4.792   9.023  0.00  0.00    +0.000 A 
ATOM     17  C   UNL     1      45.158   4.855  10.364  0.00  0.00    +0.000 A 
BRANCH  12  19
ATOM     18  N   UNL     1      43.610   3.727  13.354  0.00  0.00    +0.000 NA
ATOM     19  C   UNL     1      44.038   3.712  12.276  0.00  0.00    +0.000 C 
ENDBRANCH  12  19
ENDBRANCH   8  17
ENDBRANCH   7  10
ENDBRANCH   1   7
BRANCH   4  20
ATOM     20  C   UNL     1      49.427   7.017  17.253  0.00  0.00    +0.000 C 
BRANCH  20  21
ATOM     21  N   UNL     1      50.297   5.866  17.262  0.00  0.00    +0.000 N 
ATOM     22  C   UNL     1      49.976   4.735  17.970  0.00  0.00    +0.000 C 
ATOM     23  O   UNL     1      48.920   4.633  18.589  0.00  0.00    +0.000 OA
ATOM     24  H   UNL     1      51.253   6.010  16.954  0.00  0.00    +0.000 HD
BRANCH  22  25
ATOM     25  C   UNL     1      50.933   3.622  17.903  0.00  0.00    +0.000 A 
ATOM     26  C   UNL     1      50.511   2.375  17.460  0.00  0.00    +0.000 A 
ATOM     27  S   UNL     1      51.756   1.211  17.399  0.00  0.00    +0.000 S 
ATOM     28  C   UNL     1      52.894   2.317  18.011  0.00  0.00    +0.000 A 
ATOM     29  N   UNL     1      54.184   1.944  18.230  0.00  0.00    +0.000 NA
ATOM     30  C   UNL     1      54.932   2.873  18.724  0.00  0.00    +0.000 A 
ATOM     31  N   UNL     1      54.507   4.145  19.012  0.00  0.00    +0.000 N 
ATOM     32  C   UNL     1      53.224   4.573  18.782  0.00  0.00    +0.000 A 
ATOM     33  O   UNL     1      52.886   5.731  19.018  0.00  0.00    +0.000 OA
ATOM     34  C   UNL     1      52.336   3.563  18.240  0.00  0.00    +0.000 A 
ATOM     35  H   UNL     1      55.145   4.829  19.390  0.00  0.00    +0.000 HD
ENDBRANCH  22  25
ENDBRANCH  20  21
ENDBRANCH   4  20
TORSDOF 7
ENDMDL
MODEL 7
REMARK VINA RESULT:    -6.608      5.756      9.108
REMARK INTER + INTRA:         -10.538
REMARK INTER:                  -9.361
REMARK INTRA:                  -1.178
REMARK UNBOUND:                -1.226
REMARK  Name = 
REMARK  7 active torsions:
REMARK  status: ('A' for Active; 'I' for Inactive)
REMARK    1  A    between atoms: C_2  and  C_3
REMARK    2  A    between atoms: C_8  and  C_9
REMARK    3  A    between atoms: N_11  and  C_12
REMARK    4  A    between atoms: C_12  and  C_13
REMARK    5  A    between atoms: C_16  and  C_17
REMARK    6  A    between atoms: C_17  and  N_18
REMARK    7  A    between atoms: C_19  and  C_21
REMARK                            x       y       z     vdW  Elec       q    Type
REMARK                         _______ _______ _______ _____ _____    ______ ____
ROOT
ATOM      1  C   UNL     1      48.138   8.073  12.228  0.00  0.00    +0.000 A 
ATOM      2  C   UNL     1      49.294   7.326  11.964  0.00  0.00    +0.000 A 
ATOM      3  C   UNL     1      50.462   7.950  11.510  0.00  0.00    +0.000 A 
ATOM      4  C   UNL     1      50.509   9.339  11.335  0.00  0.00    +0.000 A 
ATOM      5  C   UNL     1      49.352  10.086  11.595  0.00  0.00    +0.000 A 
ATOM      6  C   UNL     1      48.181   9.462  12.044  0.00  0.00    +0.000 A 
ENDROOT
BRANCH   1   7
ATOM      7  C   UNL     1      46.877   7.390  12.697  0.00  0.00    +0.000 C 
BRANCH   7  10
ATOM      8  C   UNL     1      45.432   6.127  11.151  0.00  0.00    +0.000 C 
ATOM      9  O   UNL     1      44.634   7.054  11.044  0.00  0.00    +0.000 OA
ATOM     10  N   UNL     1      46.571   6.206  11.919  0.00  0.00    +0.000 N 
ATOM     11  H   UNL     1      47.278   5.485  11.894  0.00  0.00    +0.000 HD
BRANCH   8  17
ATOM     12  C   UNL     1      44.476   3.752  10.891  0.00  0.00    +0.000 A 
ATOM     13  C   UNL     1      44.207   2.663  10.040  0.00  0.00    +0.000 A 
ATOM     14  C   UNL     1      44.621   2.678   8.708  0.00  0.00    +0.000 A 
ATOM     15  C   UNL     1      45.309   3.779   8.210  0.00  0.00    +0.000 A 
ATOM     16  C   UNL     1      45.572   4.868   9.043  0.00  0.00    +0.000 A 
ATOM     17  C   UNL     1      45.167   4.870  10.389  0.00  0.00    +0.000 A 
BRANCH  12  19
ATOM     18  N   UNL     1      43.687   3.579  13.351  0.00  0.00    +0.000 NA
ATOM     19  C   UNL     1      44.010   3.667  12.241  0.00  0.00    +0.000 C 
ENDBRANCH  12  19
ENDBRANCH   8  17
ENDBRANCH   7  10
ENDBRANCH   1   7
BRANCH   4  20
ATOM     20  C   UNL     1      51.769  10.015  10.852  0.00  0.00    +0.000 C 
BRANCH  20  21
ATOM     21  N   UNL     1      52.394   9.280   9.781  0.00  0.00    +0.000 N 
ATOM     22  C   UNL     1      53.742   9.373   9.543  0.00  0.00    +0.000 C 
ATOM     23  O   UNL     1      54.483  10.048  10.255  0.00  0.00    +0.000 OA
ATOM     24  H   UNL     1      51.783   8.907   9.061  0.00  0.00    +0.000 HD
BRANCH  22  25
ATOM     25  C   UNL     1      54.273   8.575   8.429  0.00  0.00    +0.000 A 
ATOM     26  C   UNL     1      54.906   9.207   7.367  0.00  0.00    +0.000 A 
ATOM     27  S   UNL     1      55.503   8.131   6.186  0.00  0.00    +0.000 S 
ATOM     28  C   UNL     1      54.891   6.784   7.025  0.00  0.00    +0.000 A 
ATOM     29  N   UNL     1      55.041   5.525   6.531  0.00  0.00    +0.000 NA
ATOM     30  C   UNL     1      54.504   4.601   7.254  0.00  0.00    +0.000 A 
ATOM     31  N   UNL     1      53.835   4.822   8.432  0.00  0.00    +0.000 N 
ATOM     32  C   UNL     1      53.684   6.070   8.981  0.00  0.00    +0.000 A 
ATOM     33  O   UNL     1      53.111   6.228  10.056  0.00  0.00    +0.000 OA
ATOM     34  C   UNL     1      54.258   7.149   8.201  0.00  0.00    +0.000 A 
ATOM     35  H   UNL     1      53.444   4.053   8.955  0.00  0.00    +0.000 HD
ENDBRANCH  22  25
ENDBRANCH  20  21
ENDBRANCH   4  20
TORSDOF 7
ENDMDL
MODEL 8
REMARK VINA RESULT:    -6.601      5.918      8.965
REMARK INTER + INTRA:         -10.529
REMARK INTER:                  -9.424
REMARK INTRA:                  -1.105
REMARK UNBOUND:                -1.226
REMARK  Name = 
REMARK  7 active torsions:
REMARK  status: ('A' for Active; 'I' for Inactive)
REMARK    1  A    between atoms: C_2  and  C_3
REMARK    2  A    between atoms: C_8  and  C_9
REMARK    3  A    between atoms: N_11  and  C_12
REMARK    4  A    between atoms: C_12  and  C_13
REMARK    5  A    between atoms: C_16  and  C_17
REMARK    6  A    between atoms: C_17  and  N_18
REMARK    7  A    between atoms: C_19  and  C_21
REMARK                            x       y       z     vdW  Elec       q    Type
REMARK                         _______ _______ _______ _____ _____    ______ ____
ROOT
ATOM      1  C   UNL     1      48.049   8.815  11.908  0.00  0.00    +0.000 A 
ATOM      2  C   UNL     1      48.833   7.655  11.840  0.00  0.00    +0.000 A 
ATOM      3  C   UNL     1      50.187   7.726  11.496  0.00  0.00    +0.000 A 
ATOM      4  C   UNL     1      50.798   8.960  11.240  0.00  0.00    +0.000 A 
ATOM      5  C   UNL     1      50.013  10.120  11.304  0.00  0.00    +0.000 A 
ATOM      6  C   UNL     1      48.656  10.050  11.642  0.00  0.00    +0.000 A 
ENDROOT
BRANCH   1   7
ATOM      7  C   UNL     1      46.583   8.729  12.259  0.00  0.00    +0.000 C 
BRANCH   7  10
ATOM      8  C   UNL     1      44.884   7.047  11.661  0.00  0.00    +0.000 C 
ATOM      9  O   UNL     1      44.172   7.877  11.102  0.00  0.00    +0.000 OA
ATOM     10  N   UNL     1      46.093   7.365  12.237  0.00  0.00    +0.000 N 
ATOM     11  H   UNL     1      46.722   6.652  12.577  0.00  0.00    +0.000 HD
BRANCH   8  17
ATOM     12  C   UNL     1      44.721   4.664  10.705  0.00  0.00    +0.000 A 
ATOM     13  C   UNL     1      44.314   3.330  10.894  0.00  0.00    +0.000 A 
ATOM     14  C   UNL     1      43.622   2.950  12.044  0.00  0.00    +0.000 A 
ATOM     15  C   UNL     1      43.326   3.898  13.016  0.00  0.00    +0.000 A 
ATOM     16  C   UNL     1      43.734   5.223  12.843  0.00  0.00    +0.000 A 
ATOM     17  C   UNL     1      44.428   5.625  11.690  0.00  0.00    +0.000 A 
BRANCH  12  19
ATOM     18  N   UNL     1      46.035   5.166   8.530  0.00  0.00    +0.000 NA
ATOM     19  C   UNL     1      45.437   4.973   9.504  0.00  0.00    +0.000 C 
ENDBRANCH  12  19
ENDBRANCH   8  17
ENDBRANCH   7  10
ENDBRANCH   1   7
BRANCH   4  20
ATOM     20  C   UNL     1      52.260   9.040  10.877  0.00  0.00    +0.000 C 
BRANCH  20  21
ATOM     21  N   UNL     1      52.533   8.399   9.614  0.00  0.00    +0.000 N 
ATOM     22  C   UNL     1      53.695   8.644   8.926  0.00  0.00    +0.000 C 
ATOM     23  O   UNL     1      54.571   9.380   9.372  0.00  0.00    +0.000 OA
ATOM     24  H   UNL     1      51.746   7.976   9.133  0.00  0.00    +0.000 HD
BRANCH  22  25
ATOM     25  C   UNL     1      53.871   7.930   7.654  0.00  0.00    +0.000 A 
ATOM     26  C   UNL     1      54.039   8.649   6.477  0.00  0.00    +0.000 A 
ATOM     27  S   UNL     1      54.277   7.669   5.102  0.00  0.00    +0.000 S 
ATOM     28  C   UNL     1      54.113   6.247   6.021  0.00  0.00    +0.000 A 
ATOM     29  N   UNL     1      54.189   5.022   5.433  0.00  0.00    +0.000 NA
ATOM     30  C   UNL     1      54.019   4.030   6.242  0.00  0.00    +0.000 A 
ATOM     31  N   UNL     1      53.786   4.153   7.588  0.00  0.00    +0.000 N 
ATOM     32  C   UNL     1      53.729   5.366   8.228  0.00  0.00    +0.000 A 
ATOM     33  O   UNL     1      53.554   5.439   9.442  0.00  0.00    +0.000 OA
ATOM     34  C   UNL     1      53.900   6.517   7.362  0.00  0.00    +0.000 A 
ATOM     35  H   UNL     1      53.668   3.336   8.168  0.00  0.00    +0.000 HD
ENDBRANCH  22  25
ENDBRANCH  20  21
ENDBRANCH   4  20
TORSDOF 7
ENDMDL
MODEL 9
REMARK VINA RESULT:    -6.457      5.063      6.278
REMARK INTER + INTRA:         -10.326
REMARK INTER:                  -9.294
REMARK INTRA:                  -1.032
REMARK UNBOUND:                -1.226
REMARK  Name = 
REMARK  7 active torsions:
REMARK  status: ('A' for Active; 'I' for Inactive)
REMARK    1  A    between atoms: C_2  and  C_3
REMARK    2  A    between atoms: C_8  and  C_9
REMARK    3  A    between atoms: N_11  and  C_12
REMARK    4  A    between atoms: C_12  and  C_13
REMARK    5  A    between atoms: C_16  and  C_17
REMARK    6  A    between atoms: C_17  and  N_18
REMARK    7  A    between atoms: C_19  and  C_21
REMARK                            x       y       z     vdW  Elec       q    Type
REMARK                         _______ _______ _______ _____ _____    ______ ____
ROOT
ATOM      1  C   UNL     1      50.239   8.941  11.408  0.00  0.00    +0.000 A 
ATOM      2  C   UNL     1      49.350  10.001  11.630  0.00  0.00    +0.000 A 
ATOM      3  C   UNL     1      48.075   9.767  12.158  0.00  0.00    +0.000 A 
ATOM      4  C   UNL     1      47.669   8.472  12.502  0.00  0.00    +0.000 A 
ATOM      5  C   UNL     1      48.557   7.411  12.277  0.00  0.00    +0.000 A 
ATOM      6  C   UNL     1      49.831   7.643  11.744  0.00  0.00    +0.000 A 
ENDROOT
BRANCH   1   7
ATOM      7  C   UNL     1      51.605   9.198  10.820  0.00  0.00    +0.000 C 
BRANCH   7  10
ATOM      8  C   UNL     1      53.495   7.991   9.797  0.00  0.00    +0.000 C 
ATOM      9  O   UNL     1      54.219   8.984   9.820  0.00  0.00    +0.000 OA
ATOM     10  N   UNL     1      52.208   7.993  10.285  0.00  0.00    +0.000 N 
ATOM     11  H   UNL     1      51.675   7.141  10.377  0.00  0.00    +0.000 HD
BRANCH   8  17
ATOM     12  C   UNL     1      53.981   6.330   7.894  0.00  0.00    +0.000 A 
ATOM     13  C   UNL     1      54.628   5.150   7.479  0.00  0.00    +0.000 A 
ATOM     14  C   UNL     1      55.331   4.363   8.389  0.00  0.00    +0.000 A 
ATOM     15  C   UNL     1      55.397   4.742   9.725  0.00  0.00    +0.000 A 
ATOM     16  C   UNL     1      54.768   5.916  10.146  0.00  0.00    +0.000 A 
ATOM     17  C   UNL     1      54.050   6.720   9.244  0.00  0.00    +0.000 A 
BRANCH  12  19
ATOM     18  N   UNL     1      52.746   7.755   6.118  0.00  0.00    +0.000 NA
ATOM     19  C   UNL     1      53.288   7.090   6.898  0.00  0.00    +0.000 C 
ENDBRANCH  12  19
ENDBRANCH   8  17
ENDBRANCH   7  10
ENDBRANCH   1   7
BRANCH   4  20
ATOM     20  C   UNL     1      46.298   8.218  13.078  0.00  0.00    +0.000 C 
BRANCH  20  21
ATOM     21  N   UNL     1      45.831   6.886  12.781  0.00  0.00    +0.000 N 
ATOM     22  C   UNL     1      44.930   6.655  11.772  0.00  0.00    +0.000 C 
ATOM     23  O   UNL     1      44.516   7.559  11.050  0.00  0.00    +0.000 OA
ATOM     24  H   UNL     1      45.980   6.177  13.491  0.00  0.00    +0.000 HD
BRANCH  22  25
ATOM     25  C   UNL     1      44.528   5.258  11.553  0.00  0.00    +0.000 A 
ATOM     26  C   UNL     1      43.813   4.584  12.534  0.00  0.00    +0.000 A 
ATOM     27  S   UNL     1      43.387   2.991  12.101  0.00  0.00    +0.000 S 
ATOM     28  C   UNL     1      44.188   3.126  10.606  0.00  0.00    +0.000 A 
ATOM     29  N   UNL     1      44.229   2.080   9.737  0.00  0.00    +0.000 NA
ATOM     30  C   UNL     1      44.894   2.310   8.655  0.00  0.00    +0.000 A 
ATOM     31  N   UNL     1      45.517   3.496   8.360  0.00  0.00    +0.000 N 
ATOM     32  C   UNL     1      45.479   4.586   9.194  0.00  0.00    +0.000 A 
ATOM     33  O   UNL     1      46.018   5.645   8.882  0.00  0.00    +0.000 OA
ATOM     34  C   UNL     1      44.755   4.377  10.432  0.00  0.00    +0.000 A 
ATOM     35  H   UNL     1      46.016   3.615   7.492  0.00  0.00    +0.000 HD
ENDBRANCH  22  25
ENDBRANCH  20  21
ENDBRANCH   4  20
TORSDOF 7
ENDMDL
