MODEL 1
REMARK VINA RESULT:    -8.700      0.000      0.000
REMARK INTER + INTRA:         -12.571
REMARK INTER:                 -11.752
REMARK INTRA:                  -0.820
REMARK UNBOUND:                -0.820
REMARK  Name = 
REMARK  7 active torsions:
REMARK  status: ('A' for Active; 'I' for Inactive)
REMARK    1  A    between atoms: C_1  and  C_2
REMARK    2  A    between atoms: C_5  and  O_6
REMARK    3  A    between atoms: O_6  and  C_7
REMARK    4  A    between atoms: C_7  and  C_8
REMARK    5  A    between atoms: C_11  and  C_12
REMARK    6  A    between atoms: C_12  and  N_13
REMARK    7  A    between atoms: C_14  and  C_16
REMARK                            x       y       z     vdW  Elec       q    Type
REMARK                         _______ _______ _______ _____ _____    ______ ____
ROOT
ATOM      1  C   UNL     1      48.188   6.982  13.535  0.00  0.00    +0.000 C 
ENDROOT
BRANCH   1   5
ATOM      2  C   UNL     1      44.980   4.773  11.639  0.00  0.00    +0.000 A 
ATOM      3  C   UNL     1      45.348   6.040  11.166  0.00  0.00    +0.000 A 
ATOM      4  C   UNL     1      46.377   6.759  11.782  0.00  0.00    +0.000 A 
ATOM      5  C   UNL     1      47.074   6.217  12.869  0.00  0.00    +0.000 A 
ATOM      6  C   UNL     1      46.694   4.958  13.353  0.00  0.00    +0.000 A 
ATOM      7  C   UNL     1      45.666   4.238  12.737  0.00  0.00    +0.000 A 
BRANCH   2   8
ATOM      8  C   UNL     1      43.861   3.997  10.983  0.00  0.00    +0.000 C 
BRANCH   8   9
ATOM      9  O   UNL     1      43.805   4.318   9.592  0.00  0.00    +0.000 OA
BRANCH   9  14
ATOM     10  C   UNL     1      47.777   1.617   6.672  0.00  0.00    +0.000 C 
ATOM     11  C   UNL     1      46.708   2.297   7.467  0.00  0.00    +0.000 A 
ATOM     12  C   UNL     1      45.903   1.610   8.376  0.00  0.00    +0.000 A 
ATOM     13  C   UNL     1      44.923   2.302   9.090  0.00  0.00    +0.000 A 
ATOM     14  C   UNL     1      44.781   3.661   8.868  0.00  0.00    +0.000 A 
ATOM     15  N   UNL     1      45.543   4.354   7.994  0.00  0.00    +0.000 NA
ATOM     16  C   UNL     1      46.482   3.662   7.318  0.00  0.00    +0.000 A 
ENDBRANCH   9  14
ENDBRANCH   8   9
ENDBRANCH   2   8
ENDBRANCH   1   5
BRANCH   1  17
ATOM     17  N   UNL     1      48.018   7.011  14.965  0.00  0.00    +0.000 N 
ATOM     18  C   UNL     1      49.080   6.821  15.813  0.00  0.00    +0.000 C 
ATOM     19  O   UNL     1      50.225   6.665  15.397  0.00  0.00    +0.000 OA
ATOM     20  H   UNL     1      47.072   6.906  15.317  0.00  0.00    +0.000 HD
BRANCH  18  21
ATOM     21  C   UNL     1      48.789   6.877  17.251  0.00  0.00    +0.000 A 
ATOM     22  C   UNL     1      48.394   8.078  17.826  0.00  0.00    +0.000 A 
ATOM     23  S   UNL     1      48.039   7.957  19.489  0.00  0.00    +0.000 S 
ATOM     24  C   UNL     1      48.449   6.306  19.512  0.00  0.00    +0.000 A 
ATOM     25  N   UNL     1      48.385   5.585  20.664  0.00  0.00    +0.000 NA
ATOM     26  C   UNL     1      48.753   4.353  20.543  0.00  0.00    +0.000 A 
ATOM     27  N   UNL     1      49.176   3.775  19.376  0.00  0.00    +0.000 N 
ATOM     28  C   UNL     1      49.235   4.457  18.184  0.00  0.00    +0.000 A 
ATOM     29  O   UNL     1      49.589   3.903  17.150  0.00  0.00    +0.000 OA
ATOM     30  C   UNL     1      48.838   5.850  18.264  0.00  0.00    +0.000 A 
ATOM     31  H   UNL     1      49.446   2.803  19.346  0.00  0.00    +0.000 HD
ENDBRANCH  18  21
ENDBRANCH   1  17
TORSDOF 6
ENDMDL
MODEL 2
REMARK VINA RESULT:    -8.375      1.470      2.312
REMARK INTER + INTRA:         -12.132
REMARK INTER:                 -11.437
REMARK INTRA:                  -0.696
REMARK UNBOUND:                -0.820
REMARK  Name = 
REMARK  7 active torsions:
REMARK  status: ('A' for Active; 'I' for Inactive)
REMARK    1  A    between atoms: C_1  and  C_2
REMARK    2  A    between atoms: C_5  and  O_6
REMARK    3  A    between atoms: O_6  and  C_7
REMARK    4  A    between atoms: C_7  and  C_8
REMARK    5  A    between atoms: C_11  and  C_12
REMARK    6  A    between atoms: C_12  and  N_13
REMARK    7  A    between atoms: C_14  and  C_16
REMARK                            x       y       z     vdW  Elec       q    Type
REMARK                         _______ _______ _______ _____ _____    ______ ____
ROOT
ATOM      1  C   UNL     1      48.013   6.567  13.670  0.00  0.00    +0.000 C 
ENDROOT
BRANCH   1   5
ATOM      2  C   UNL     1      44.850   4.972  11.177  0.00  0.00    +0.000 A 
ATOM      3  C   UNL     1      45.163   4.368  12.402  0.00  0.00    +0.000 A 
ATOM      4  C   UNL     1      46.190   4.875  13.205  0.00  0.00    +0.000 A 
ATOM      5  C   UNL     1      46.909   6.009  12.809  0.00  0.00    +0.000 A 
ATOM      6  C   UNL     1      46.608   6.603  11.576  0.00  0.00    +0.000 A 
ATOM      7  C   UNL     1      45.581   6.097  10.773  0.00  0.00    +0.000 A 
BRANCH   2   8
ATOM      8  C   UNL     1      43.748   4.420  10.301  0.00  0.00    +0.000 C 
BRANCH   8   9
ATOM      9  O   UNL     1      43.963   3.026  10.080  0.00  0.00    +0.000 OA
BRANCH   9  14
ATOM     10  C   UNL     1      47.719   2.117   5.997  0.00  0.00    +0.000 C 
ATOM     11  C   UNL     1      46.714   2.400   7.069  0.00  0.00    +0.000 A 
ATOM     12  C   UNL     1      46.035   3.617   7.152  0.00  0.00    +0.000 A 
ATOM     13  C   UNL     1      45.107   3.819   8.174  0.00  0.00    +0.000 A 
ATOM     14  C   UNL     1      44.891   2.795   9.082  0.00  0.00    +0.000 A 
ATOM     15  N   UNL     1      45.533   1.609   9.029  0.00  0.00    +0.000 NA
ATOM     16  C   UNL     1      46.424   1.439   8.032  0.00  0.00    +0.000 A 
ENDBRANCH   9  14
ENDBRANCH   8   9
ENDBRANCH   2   8
ENDBRANCH   1   5
BRANCH   1  17
ATOM     17  N   UNL     1      47.890   6.115  15.032  0.00  0.00    +0.000 N 
ATOM     18  C   UNL     1      48.958   6.149  15.892  0.00  0.00    +0.000 C 
ATOM     19  O   UNL     1      50.048   6.607  15.559  0.00  0.00    +0.000 OA
ATOM     20  H   UNL     1      47.089   5.532  15.251  0.00  0.00    +0.000 HD
BRANCH  18  21
ATOM     21  C   UNL     1      48.715   5.668  17.258  0.00  0.00    +0.000 A 
ATOM     22  C   UNL     1      48.877   4.320  17.551  0.00  0.00    +0.000 A 
ATOM     23  S   UNL     1      48.612   3.939  19.192  0.00  0.00    +0.000 S 
ATOM     24  C   UNL     1      48.223   5.553  19.561  0.00  0.00    +0.000 A 
ATOM     25  N   UNL     1      47.870   5.917  20.823  0.00  0.00    +0.000 NA
ATOM     26  C   UNL     1      47.571   7.168  20.954  0.00  0.00    +0.000 A 
ATOM     27  N   UNL     1      47.595   8.086  19.939  0.00  0.00    +0.000 N 
ATOM     28  C   UNL     1      47.966   7.770  18.654  0.00  0.00    +0.000 A 
ATOM     29  O   UNL     1      48.006   8.623  17.775  0.00  0.00    +0.000 OA
ATOM     30  C   UNL     1      48.307   6.375  18.449  0.00  0.00    +0.000 A 
ATOM     31  H   UNL     1      47.354   9.052  20.107  0.00  0.00    +0.000 HD
ENDBRANCH  18  21
ENDBRANCH   1  17
TORSDOF 6
ENDMDL
MODEL 3
REMARK VINA RESULT:    -8.271      1.868      2.115
REMARK INTER + INTRA:         -11.992
REMARK INTER:                 -10.759
REMARK INTRA:                  -1.232
REMARK UNBOUND:                -0.820
REMARK  Name = 
REMARK  7 active torsions:
REMARK  status: ('A' for Active; 'I' for Inactive)
REMARK    1  A    between atoms: C_1  and  C_2
REMARK    2  A    between atoms: C_5  and  O_6
REMARK    3  A    between atoms: O_6  and  C_7
REMARK    4  A    between atoms: C_7  and  C_8
REMARK    5  A    between atoms: C_11  and  C_12
REMARK    6  A    between atoms: C_12  and  N_13
REMARK    7  A    between atoms: C_14  and  C_16
REMARK                            x       y       z     vdW  Elec       q    Type
REMARK                         _______ _______ _______ _____ _____    ______ ____
ROOT
ATOM      1  C   UNL     1      47.267   7.951  13.633  0.00  0.00    +0.000 C 
ENDROOT
BRANCH   1   5
ATOM      2  C   UNL     1      44.436   5.407  11.563  0.00  0.00    +0.000 A 
ATOM      3  C   UNL     1      45.467   4.847  12.330  0.00  0.00    +0.000 A 
ATOM      4  C   UNL     1      46.388   5.666  12.992  0.00  0.00    +0.000 A 
ATOM      5  C   UNL     1      46.283   7.060  12.918  0.00  0.00    +0.000 A 
ATOM      6  C   UNL     1      45.263   7.619  12.137  0.00  0.00    +0.000 A 
ATOM      7  C   UNL     1      44.342   6.802  11.476  0.00  0.00    +0.000 A 
BRANCH   2   8
ATOM      8  C   UNL     1      43.445   4.525  10.837  0.00  0.00    +0.000 C 
BRANCH   8   9
ATOM      9  O   UNL     1      43.569   4.725   9.428  0.00  0.00    +0.000 OA
BRANCH   9  14
ATOM     10  C   UNL     1      47.452   1.337   7.181  0.00  0.00    +0.000 C 
ATOM     11  C   UNL     1      46.401   2.204   7.800  0.00  0.00    +0.000 A 
ATOM     12  C   UNL     1      45.468   1.709   8.712  0.00  0.00    +0.000 A 
ATOM     13  C   UNL     1      44.513   2.569   9.257  0.00  0.00    +0.000 A 
ATOM     14  C   UNL     1      44.525   3.898   8.868  0.00  0.00    +0.000 A 
ATOM     15  N   UNL     1      45.412   4.407   7.987  0.00  0.00    +0.000 NA
ATOM     16  C   UNL     1      46.324   3.554   7.476  0.00  0.00    +0.000 A 
ENDBRANCH   9  14
ENDBRANCH   8   9
ENDBRANCH   2   8
ENDBRANCH   1   5
BRANCH   1  17
ATOM     17  N   UNL     1      48.209   7.176  14.399  0.00  0.00    +0.000 N 
ATOM     18  C   UNL     1      48.730   7.650  15.576  0.00  0.00    +0.000 C 
ATOM     19  O   UNL     1      48.385   8.727  16.053  0.00  0.00    +0.000 OA
ATOM     20  H   UNL     1      48.673   6.412  13.918  0.00  0.00    +0.000 HD
BRANCH  18  21
ATOM     21  C   UNL     1      49.679   6.772  16.273  0.00  0.00    +0.000 A 
ATOM     22  C   UNL     1      50.969   7.220  16.529  0.00  0.00    +0.000 A 
ATOM     23  S   UNL     1      51.921   6.102  17.397  0.00  0.00    +0.000 S 
ATOM     24  C   UNL     1      50.661   4.961  17.418  0.00  0.00    +0.000 A 
ATOM     25  N   UNL     1      50.829   3.743  18.002  0.00  0.00    +0.000 NA
ATOM     26  C   UNL     1      49.801   2.965  17.918  0.00  0.00    +0.000 A 
ATOM     27  N   UNL     1      48.620   3.294  17.306  0.00  0.00    +0.000 N 
ATOM     28  C   UNL     1      48.397   4.519  16.723  0.00  0.00    +0.000 A 
ATOM     29  O   UNL     1      47.318   4.792  16.211  0.00  0.00    +0.000 OA
ATOM     30  C   UNL     1      49.523   5.431  16.783  0.00  0.00    +0.000 A 
ATOM     31  H   UNL     1      47.851   2.641  17.278  0.00  0.00    +0.000 HD
ENDBRANCH  18  21
ENDBRANCH   1  17
TORSDOF 6
ENDMDL
MODEL 4
REMARK VINA RESULT:    -7.917      1.663      2.848
REMARK INTER + INTRA:         -11.514
REMARK INTER:                 -10.651
REMARK INTRA:                  -0.863
REMARK UNBOUND:                -0.820
REMARK  Name = 
REMARK  7 active torsions:
REMARK  status: ('A' for Active; 'I' for Inactive)
REMARK    1  A    between atoms: C_1  and  C_2
REMARK    2  A    between atoms: C_5  and  O_6
REMARK    3  A    between atoms: O_6  and  C_7
REMARK    4  A    between atoms: C_7  and  C_8
REMARK    5  A    between atoms: C_11  and  C_12
REMARK    6  A    between atoms: C_12  and  N_13
REMARK    7  A    between atoms: C_14  and  C_16
REMARK                            x       y       z     vdW  Elec       q    Type
REMARK                         _______ _______ _______ _____ _____    ______ ____
ROOT
ATOM      1  C   UNL     1      47.663   4.091  15.181  0.00  0.00    +0.000 C 
ENDROOT
BRANCH   1   5
ATOM      2  C   UNL     1      45.258   4.841  11.657  0.00  0.00    +0.000 A 
ATOM      3  C   UNL     1      46.008   5.873  12.239  0.00  0.00    +0.000 A 
ATOM      4  C   UNL     1      46.778   5.635  13.383  0.00  0.00    +0.000 A 
ATOM      5  C   UNL     1      46.832   4.357  13.953  0.00  0.00    +0.000 A 
ATOM      6  C   UNL     1      46.068   3.331  13.381  0.00  0.00    +0.000 A 
ATOM      7  C   UNL     1      45.299   3.567  12.238  0.00  0.00    +0.000 A 
BRANCH   2   8
ATOM      8  C   UNL     1      44.416   5.096  10.428  0.00  0.00    +0.000 C 
BRANCH   8   9
ATOM      9  O   UNL     1      44.061   3.852   9.823  0.00  0.00    +0.000 OA
BRANCH   9  14
ATOM     10  C   UNL     1      47.927   2.096   6.139  0.00  0.00    +0.000 C 
ATOM     11  C   UNL     1      46.893   2.521   7.133  0.00  0.00    +0.000 A 
ATOM     12  C   UNL     1      46.294   1.623   8.017  0.00  0.00    +0.000 A 
ATOM     13  C   UNL     1      45.337   2.082   8.923  0.00  0.00    +0.000 A 
ATOM     14  C   UNL     1      45.009   3.428   8.912  0.00  0.00    +0.000 A 
ATOM     15  N   UNL     1      45.569   4.321   8.067  0.00  0.00    +0.000 NA
ATOM     16  C   UNL     1      46.491   3.851   7.203  0.00  0.00    +0.000 A 
ENDBRANCH   9  14
ENDBRANCH   8   9
ENDBRANCH   2   8
ENDBRANCH   1   5
BRANCH   1  17
ATOM     17  N   UNL     1      47.508   5.141  16.154  0.00  0.00    +0.000 N 
ATOM     18  C   UNL     1      48.586   5.644  16.838  0.00  0.00    +0.000 C 
ATOM     19  O   UNL     1      49.731   5.258  16.621  0.00  0.00    +0.000 OA
ATOM     20  H   UNL     1      46.570   5.304  16.508  0.00  0.00    +0.000 HD
BRANCH  18  21
ATOM     21  C   UNL     1      48.309   6.716  17.801  0.00  0.00    +0.000 A 
ATOM     22  C   UNL     1      48.104   6.403  19.139  0.00  0.00    +0.000 A 
ATOM     23  S   UNL     1      47.854   7.766  20.132  0.00  0.00    +0.000 S 
ATOM     24  C   UNL     1      47.959   8.822  18.802  0.00  0.00    +0.000 A 
ATOM     25  N   UNL     1      47.808  10.165  18.961  0.00  0.00    +0.000 NA
ATOM     26  C   UNL     1      47.882  10.843  17.863  0.00  0.00    +0.000 A 
ATOM     27  N   UNL     1      48.095  10.301  16.624  0.00  0.00    +0.000 N 
ATOM     28  C   UNL     1      48.276   8.955  16.418  0.00  0.00    +0.000 A 
ATOM     29  O   UNL     1      48.496   8.506  15.299  0.00  0.00    +0.000 OA
ATOM     30  C   UNL     1      48.197   8.144  17.618  0.00  0.00    +0.000 A 
ATOM     31  H   UNL     1      48.147  10.887  15.803  0.00  0.00    +0.000 HD
ENDBRANCH  18  21
ENDBRANCH   1  17
TORSDOF 6
ENDMDL
MODEL 5
REMARK VINA RESULT:    -7.801      2.187      2.852
REMARK INTER + INTRA:         -11.356
REMARK INTER:                 -10.357
REMARK INTRA:                  -1.000
REMARK UNBOUND:                -0.820
REMARK  Name = 
REMARK  7 active torsions:
REMARK  status: ('A' for Active; 'I' for Inactive)
REMARK    1  A    between atoms: C_1  and  C_2
REMARK    2  A    between atoms: C_5  and  O_6
REMARK    3  A    between atoms: O_6  and  C_7
REMARK    4  A    between atoms: C_7  and  C_8
REMARK    5  A    between atoms: C_11  and  C_12
REMARK    6  A    between atoms: C_12  and  N_13
REMARK    7  A    between atoms: C_14  and  C_16
REMARK                            x       y       z     vdW  Elec       q    Type
REMARK                         _______ _______ _______ _____ _____    ______ ____
ROOT
ATOM      1  C   UNL     1      47.845   5.102  14.730  0.00  0.00    +0.000 C 
ENDROOT
BRANCH   1   5
ATOM      2  C   UNL     1      44.989   4.716  11.495  0.00  0.00    +0.000 A 
ATOM      3  C   UNL     1      45.806   5.851  11.590  0.00  0.00    +0.000 A 
ATOM      4  C   UNL     1      46.723   5.982  12.639  0.00  0.00    +0.000 A 
ATOM      5  C   UNL     1      46.856   4.972  13.600  0.00  0.00    +0.000 A 
ATOM      6  C   UNL     1      46.026   3.847  13.514  0.00  0.00    +0.000 A 
ATOM      7  C   UNL     1      45.110   3.714  12.466  0.00  0.00    +0.000 A 
BRANCH   2   8
ATOM      8  C   UNL     1      43.989   4.575  10.369  0.00  0.00    +0.000 C 
BRANCH   8   9
ATOM      9  O   UNL     1      43.938   3.214   9.940  0.00  0.00    +0.000 OA
BRANCH   9  14
ATOM     10  C   UNL     1      47.900   2.080   6.116  0.00  0.00    +0.000 C 
ATOM     11  C   UNL     1      46.845   2.424   7.120  0.00  0.00    +0.000 A 
ATOM     12  C   UNL     1      46.282   3.698   7.203  0.00  0.00    +0.000 A 
ATOM     13  C   UNL     1      45.300   3.956   8.161  0.00  0.00    +0.000 A 
ATOM     14  C   UNL     1      44.915   2.928   9.005  0.00  0.00    +0.000 A 
ATOM     15  N   UNL     1      45.443   1.686   8.951  0.00  0.00    +0.000 NA
ATOM     16  C   UNL     1      46.390   1.464   8.017  0.00  0.00    +0.000 A 
ENDBRANCH   9  14
ENDBRANCH   8   9
ENDBRANCH   2   8
ENDBRANCH   1   5
BRANCH   1  17
ATOM     17  N   UNL     1      47.836   6.433  15.280  0.00  0.00    +0.000 N 
ATOM     18  C   UNL     1      49.002   7.072  15.617  0.00  0.00    +0.000 C 
ATOM     19  O   UNL     1      50.102   6.562  15.425  0.00  0.00    +0.000 OA
ATOM     20  H   UNL     1      46.954   6.769  15.655  0.00  0.00    +0.000 HD
BRANCH  18  21
ATOM     21  C   UNL     1      48.872   8.428  16.165  0.00  0.00    +0.000 A 
ATOM     22  C   UNL     1      49.347   9.512  15.437  0.00  0.00    +0.000 A 
ATOM     23  S   UNL     1      49.064  11.017  16.186  0.00  0.00    +0.000 S 
ATOM     24  C   UNL     1      48.343  10.272  17.534  0.00  0.00    +0.000 A 
ATOM     25  N   UNL     1      47.887  11.011  18.582  0.00  0.00    +0.000 NA
ATOM     26  C   UNL     1      47.390  10.315  19.550  0.00  0.00    +0.000 A 
ATOM     27  N   UNL     1      47.305   8.948  19.565  0.00  0.00    +0.000 N 
ATOM     28  C   UNL     1      47.731   8.162  18.521  0.00  0.00    +0.000 A 
ATOM     29  O   UNL     1      47.612   6.943  18.553  0.00  0.00    +0.000 OA
ATOM     30  C   UNL     1      48.304   8.894  17.407  0.00  0.00    +0.000 A 
ATOM     31  H   UNL     1      46.900   8.462  20.351  0.00  0.00    +0.000 HD
ENDBRANCH  18  21
ENDBRANCH   1  17
TORSDOF 6
ENDMDL
MODEL 6
REMARK VINA RESULT:    -6.828      3.529      4.389
REMARK INTER + INTRA:         -10.042
REMARK INTER:                  -9.223
REMARK INTRA:                  -0.819
REMARK UNBOUND:                -0.820
REMARK  Name = 
REMARK  7 active torsions:
REMARK  status: ('A' for Active; 'I' for Inactive)
REMARK    1  A    between atoms: C_1  and  C_2
REMARK    2  A    between atoms: C_5  and  O_6
REMARK    3  A    between atoms: O_6  and  C_7
REMARK    4  A    between atoms: C_7  and  C_8
REMARK    5  A    between atoms: C_11  and  C_12
REMARK    6  A    between atoms: C_12  and  N_13
REMARK    7  A    between atoms: C_14  and  C_16
REMARK                            x       y       z     vdW  Elec       q    Type
REMARK                         _______ _______ _______ _____ _____    ______ ____
ROOT
ATOM      1  C   UNL     1      46.158   7.606  13.254  0.00  0.00    +0.000 C 
ENDROOT
BRANCH   1   5
ATOM      2  C   UNL     1      44.487   4.396  10.873  0.00  0.00    +0.000 A 
ATOM      3  C   UNL     1      44.050   5.715  10.694  0.00  0.00    +0.000 A 
ATOM      4  C   UNL     1      44.582   6.752  11.468  0.00  0.00    +0.000 A 
ATOM      5  C   UNL     1      45.576   6.494  12.420  0.00  0.00    +0.000 A 
ATOM      6  C   UNL     1      45.999   5.173  12.611  0.00  0.00    +0.000 A 
ATOM      7  C   UNL     1      45.469   4.135  11.838  0.00  0.00    +0.000 A 
BRANCH   2   8
ATOM      8  C   UNL     1      43.908   3.270  10.047  0.00  0.00    +0.000 C 
BRANCH   8   9
ATOM      9  O   UNL     1      44.855   2.205   9.955  0.00  0.00    +0.000 OA
BRANCH   9  14
ATOM     10  C   UNL     1      47.734   2.402   5.130  0.00  0.00    +0.000 C 
ATOM     11  C   UNL     1      46.957   2.392   6.409  0.00  0.00    +0.000 A 
ATOM     12  C   UNL     1      46.232   3.500   6.849  0.00  0.00    +0.000 A 
ATOM     13  C   UNL     1      45.525   3.428   8.050  0.00  0.00    +0.000 A 
ATOM     14  C   UNL     1      45.569   2.246   8.772  0.00  0.00    +0.000 A 
ATOM     15  N   UNL     1      46.263   1.159   8.374  0.00  0.00    +0.000 NA
ATOM     16  C   UNL     1      46.937   1.255   7.210  0.00  0.00    +0.000 A 
ENDBRANCH   9  14
ENDBRANCH   8   9
ENDBRANCH   2   8
ENDBRANCH   1   5
BRANCH   1  17
ATOM     17  N   UNL     1      47.593   7.652  13.131  0.00  0.00    +0.000 N 
ATOM     18  C   UNL     1      48.231   8.767  12.651  0.00  0.00    +0.000 C 
ATOM     19  O   UNL     1      47.618   9.788  12.349  0.00  0.00    +0.000 OA
ATOM     20  H   UNL     1      48.084   6.764  13.152  0.00  0.00    +0.000 HD
BRANCH  18  21
ATOM     21  C   UNL     1      49.696   8.703  12.575  0.00  0.00    +0.000 A 
ATOM     22  C   UNL     1      50.334   8.967  11.370  0.00  0.00    +0.000 A 
ATOM     23  S   UNL     1      52.035   8.907  11.468  0.00  0.00    +0.000 S 
ATOM     24  C   UNL     1      51.979   8.475  13.112  0.00  0.00    +0.000 A 
ATOM     25  N   UNL     1      53.122   8.245  13.815  0.00  0.00    +0.000 NA
ATOM     26  C   UNL     1      52.931   7.896  15.044  0.00  0.00    +0.000 A 
ATOM     27  N   UNL     1      51.703   7.759  15.635  0.00  0.00    +0.000 N 
ATOM     28  C   UNL     1      50.524   8.002  14.972  0.00  0.00    +0.000 A 
ATOM     29  O   UNL     1      49.442   7.899  15.539  0.00  0.00    +0.000 OA
ATOM     30  C   UNL     1      50.680   8.392  13.584  0.00  0.00    +0.000 A 
ATOM     31  H   UNL     1      51.621   7.486  16.604  0.00  0.00    +0.000 HD
ENDBRANCH  18  21
ENDBRANCH   1  17
TORSDOF 6
ENDMDL
MODEL 7
REMARK VINA RESULT:    -6.751      4.990      8.213
REMARK INTER + INTRA:          -9.939
REMARK INTER:                  -8.965
REMARK INTRA:                  -0.973
REMARK UNBOUND:                -0.820
REMARK  Name = 
REMARK  7 active torsions:
REMARK  status: ('A' for Active; 'I' for Inactive)
REMARK    1  A    between atoms: C_1  and  C_2
REMARK    2  A    between atoms: C_5  and  O_6
REMARK    3  A    between atoms: O_6  and  C_7
REMARK    4  A    between atoms: C_7  and  C_8
REMARK    5  A    between atoms: C_11  and  C_12
REMARK    6  A    between atoms: C_12  and  N_13
REMARK    7  A    between atoms: C_14  and  C_16
REMARK                            x       y       z     vdW  Elec       q    Type
REMARK                         _______ _______ _______ _____ _____    ______ ____
ROOT
ATOM      1  C   UNL     1      46.623   8.356  12.581  0.00  0.00    +0.000 C 
ENDROOT
BRANCH   1   5
ATOM      2  C   UNL     1      50.779   8.643  11.393  0.00  0.00    +0.000 A 
ATOM      3  C   UNL     1      49.956   9.778  11.383  0.00  0.00    +0.000 A 
ATOM      4  C   UNL     1      48.611   9.686  11.758  0.00  0.00    +0.000 A 
ATOM      5  C   UNL     1      48.069   8.463  12.170  0.00  0.00    +0.000 A 
ATOM      6  C   UNL     1      48.887   7.326  12.163  0.00  0.00    +0.000 A 
ATOM      7  C   UNL     1      50.231   7.417  11.789  0.00  0.00    +0.000 A 
BRANCH   2   8
ATOM      8  C   UNL     1      52.230   8.736  10.978  0.00  0.00    +0.000 C 
BRANCH   8   9
ATOM      9  O   UNL     1      52.316   8.843   9.556  0.00  0.00    +0.000 OA
BRANCH   9  14
ATOM     10  C   UNL     1      54.389   4.187   7.182  0.00  0.00    +0.000 C 
ATOM     11  C   UNL     1      53.827   5.441   7.774  0.00  0.00    +0.000 A 
ATOM     12  C   UNL     1      53.221   6.427   6.994  0.00  0.00    +0.000 A 
ATOM     13  C   UNL     1      52.713   7.574   7.605  0.00  0.00    +0.000 A 
ATOM     14  C   UNL     1      52.832   7.696   8.980  0.00  0.00    +0.000 A 
ATOM     15  N   UNL     1      53.415   6.762   9.761  0.00  0.00    +0.000 NA
ATOM     16  C   UNL     1      53.896   5.664   9.145  0.00  0.00    +0.000 A 
ENDBRANCH   9  14
ENDBRANCH   8   9
ENDBRANCH   2   8
ENDBRANCH   1   5
BRANCH   1  17
ATOM     17  N   UNL     1      46.120   7.022  12.374  0.00  0.00    +0.000 N 
ATOM     18  C   UNL     1      45.007   6.792  11.606  0.00  0.00    +0.000 C 
ATOM     19  O   UNL     1      44.420   7.699  11.024  0.00  0.00    +0.000 OA
ATOM     20  H   UNL     1      46.441   6.305  13.018  0.00  0.00    +0.000 HD
BRANCH  18  21
ATOM     21  C   UNL     1      44.589   5.392  11.460  0.00  0.00    +0.000 A 
ATOM     22  C   UNL     1      43.887   4.774  12.488  0.00  0.00    +0.000 A 
ATOM     23  S   UNL     1      43.428   3.170  12.135  0.00  0.00    +0.000 S 
ATOM     24  C   UNL     1      44.194   3.226  10.617  0.00  0.00    +0.000 A 
ATOM     25  N   UNL     1      44.195   2.144   9.794  0.00  0.00    +0.000 NA
ATOM     26  C   UNL     1      44.840   2.316   8.687  0.00  0.00    +0.000 A 
ATOM     27  N   UNL     1      45.479   3.473   8.328  0.00  0.00    +0.000 N 
ATOM     28  C   UNL     1      45.486   4.598   9.117  0.00  0.00    +0.000 A 
ATOM     29  O   UNL     1      46.042   5.627   8.753  0.00  0.00    +0.000 OA
ATOM     30  C   UNL     1      44.780   4.457  10.377  0.00  0.00    +0.000 A 
ATOM     31  H   UNL     1      45.963   3.546   7.445  0.00  0.00    +0.000 HD
ENDBRANCH  18  21
ENDBRANCH   1  17
TORSDOF 6
ENDMDL
MODEL 8
REMARK VINA RESULT:    -6.599      3.562      5.207
REMARK INTER + INTRA:          -9.733
REMARK INTER:                  -8.919
REMARK INTRA:                  -0.814
REMARK UNBOUND:                -0.820
REMARK  Name = 
REMARK  7 active torsions:
REMARK  status: ('A' for Active; 'I' for Inactive)
REMARK    1  A    between atoms: C_1  and  C_2
REMARK    2  A    between atoms: C_5  and  O_6
REMARK    3  A    between atoms: O_6  and  C_7
REMARK    4  A    between atoms: C_7  and  C_8
REMARK    5  A    between atoms: C_11  and  C_12
REMARK    6  A    between atoms: C_12  and  N_13
REMARK    7  A    between atoms: C_14  and  C_16
REMARK                            x       y       z     vdW  Elec       q    Type
REMARK                         _______ _______ _______ _____ _____    ______ ____
ROOT
ATOM      1  C   UNL     1      48.888   4.438  18.936  0.00  0.00    +0.000 C 
ENDROOT
BRANCH   1   5
ATOM      2  C   UNL     1      47.567   5.243  14.890  0.00  0.00    +0.000 A 
ATOM      3  C   UNL     1      47.194   4.057  15.537  0.00  0.00    +0.000 A 
ATOM      4  C   UNL     1      47.626   3.791  16.841  0.00  0.00    +0.000 A 
ATOM      5  C   UNL     1      48.422   4.714  17.530  0.00  0.00    +0.000 A 
ATOM      6  C   UNL     1      48.810   5.890  16.876  0.00  0.00    +0.000 A 
ATOM      7  C   UNL     1      48.378   6.158  15.573  0.00  0.00    +0.000 A 
BRANCH   2   8
ATOM      8  C   UNL     1      47.111   5.530  13.477  0.00  0.00    +0.000 C 
BRANCH   8   9
ATOM      9  O   UNL     1      45.764   5.086  13.308  0.00  0.00    +0.000 OA
BRANCH   9  14
ATOM     10  C   UNL     1      44.738   3.435   8.033  0.00  0.00    +0.000 C 
ATOM     11  C   UNL     1      45.026   3.913   9.421  0.00  0.00    +0.000 A 
ATOM     12  C   UNL     1      45.504   5.198   9.684  0.00  0.00    +0.000 A 
ATOM     13  C   UNL     1      45.752   5.585  11.001  0.00  0.00    +0.000 A 
ATOM     14  C   UNL     1      45.512   4.671  12.014  0.00  0.00    +0.000 A 
ATOM     15  N   UNL     1      45.053   3.421  11.792  0.00  0.00    +0.000 NA
ATOM     16  C   UNL     1      44.822   3.072  10.510  0.00  0.00    +0.000 A 
ENDBRANCH   9  14
ENDBRANCH   8   9
ENDBRANCH   2   8
ENDBRANCH   1   5
BRANCH   1  17
ATOM     17  N   UNL     1      50.138   3.723  18.941  0.00  0.00    +0.000 N 
ATOM     18  C   UNL     1      51.338   4.388  18.913  0.00  0.00    +0.000 C 
ATOM     19  O   UNL     1      51.403   5.614  18.930  0.00  0.00    +0.000 OA
ATOM     20  H   UNL     1      50.105   2.739  18.695  0.00  0.00    +0.000 HD
BRANCH  18  21
ATOM     21  C   UNL     1      52.548   3.556  18.925  0.00  0.00    +0.000 A 
ATOM     22  C   UNL     1      53.673   3.990  19.615  0.00  0.00    +0.000 A 
ATOM     23  S   UNL     1      54.969   2.882  19.578  0.00  0.00    +0.000 S 
ATOM     24  C   UNL     1      54.091   1.805  18.597  0.00  0.00    +0.000 A 
ATOM     25  N   UNL     1      54.643   0.636  18.173  0.00  0.00    +0.000 NA
ATOM     26  C   UNL     1      53.876  -0.071  17.410  0.00  0.00    +0.000 A 
ATOM     27  N   UNL     1      52.607   0.284  17.036  0.00  0.00    +0.000 N 
ATOM     28  C   UNL     1      52.000   1.442  17.457  0.00  0.00    +0.000 A 
ATOM     29  O   UNL     1      50.852   1.715  17.128  0.00  0.00    +0.000 OA
ATOM     30  C   UNL     1      52.821   2.278  18.313  0.00  0.00    +0.000 A 
ATOM     31  H   UNL     1      52.056  -0.316  16.439  0.00  0.00    +0.000 HD
ENDBRANCH  18  21
ENDBRANCH   1  17
TORSDOF 6
ENDMDL
MODEL 9
REMARK VINA RESULT:    -6.498      5.003      9.292
REMARK INTER + INTRA:          -9.596
REMARK INTER:                  -8.501
REMARK INTRA:                  -1.096
REMARK UNBOUND:                -0.820
REMARK  Name = 
REMARK  7 active torsions:
REMARK  status: ('A' for Active; 'I' for Inactive)
REMARK    1  A    between atoms: C_1  and  C_2
REMARK    2  A    between atoms: C_5  and  O_6
REMARK    3  A    between atoms: O_6  and  C_7
REMARK    4  A    between atoms: C_7  and  C_8
REMARK    5  A    between atoms: C_11  and  C_12
REMARK    6  A    between atoms: C_12  and  N_13
REMARK    7  A    between atoms: C_14  and  C_16
REMARK                            x       y       z     vdW  Elec       q    Type
REMARK                         _______ _______ _______ _____ _____    ______ ____
ROOT
ATOM      1  C   UNL     1      44.162   3.476  11.900  0.00  0.00    +0.000 C 
ENDROOT
BRANCH   1   5
ATOM      2  C   UNL     1      46.078   7.240  12.863  0.00  0.00    +0.000 A 
ATOM      3  C   UNL     1      46.627   6.029  13.306  0.00  0.00    +0.000 A 
ATOM      4  C   UNL     1      46.006   4.813  13.004  0.00  0.00    +0.000 A 
ATOM      5  C   UNL     1      44.835   4.782  12.236  0.00  0.00    +0.000 A 
ATOM      6  C   UNL     1      44.277   5.994  11.808  0.00  0.00    +0.000 A 
ATOM      7  C   UNL     1      44.898   7.210  12.109  0.00  0.00    +0.000 A 
BRANCH   2   8
ATOM      8  C   UNL     1      46.741   8.558  13.196  0.00  0.00    +0.000 C 
BRANCH   8   9
ATOM      9  O   UNL     1      47.307   9.123  12.013  0.00  0.00    +0.000 OA
BRANCH   9  14
ATOM     10  C   UNL     1      52.903   8.595  11.902  0.00  0.00    +0.000 C 
ATOM     11  C   UNL     1      51.410   8.699  11.907  0.00  0.00    +0.000 A 
ATOM     12  C   UNL     1      50.593   7.731  11.321  0.00  0.00    +0.000 A 
ATOM     13  C   UNL     1      49.206   7.884  11.361  0.00  0.00    +0.000 A 
ATOM     14  C   UNL     1      48.683   9.003  11.987  0.00  0.00    +0.000 A 
ATOM     15  N   UNL     1      49.447   9.958  12.560  0.00  0.00    +0.000 NA
ATOM     16  C   UNL     1      50.783   9.786  12.508  0.00  0.00    +0.000 A 
ENDBRANCH   9  14
ENDBRANCH   8   9
ENDBRANCH   2   8
ENDBRANCH   1   5
BRANCH   1  17
ATOM     17  N   UNL     1      44.918   2.736  10.923  0.00  0.00    +0.000 N 
ATOM     18  C   UNL     1      44.663   2.864   9.581  0.00  0.00    +0.000 C 
ATOM     19  O   UNL     1      43.817   3.643   9.150  0.00  0.00    +0.000 OA
ATOM     20  H   UNL     1      45.444   1.936  11.259  0.00  0.00    +0.000 HD
BRANCH  18  21
ATOM     21  C   UNL     1      45.499   2.065   8.676  0.00  0.00    +0.000 A 
ATOM     22  C   UNL     1      45.442   0.678   8.733  0.00  0.00    +0.000 A 
ATOM     23  S   UNL     1      46.430  -0.096   7.578  0.00  0.00    +0.000 S 
ATOM     24  C   UNL     1      47.008   1.394   6.994  0.00  0.00    +0.000 A 
ATOM     25  N   UNL     1      47.924   1.444   5.989  0.00  0.00    +0.000 NA
ATOM     26  C   UNL     1      48.297   2.638   5.666  0.00  0.00    +0.000 A 
ATOM     27  N   UNL     1      47.834   3.786   6.253  0.00  0.00    +0.000 N 
ATOM     28  C   UNL     1      46.893   3.786   7.255  0.00  0.00    +0.000 A 
ATOM     29  O   UNL     1      46.478   4.832   7.738  0.00  0.00    +0.000 OA
ATOM     30  C   UNL     1      46.443   2.468   7.662  0.00  0.00    +0.000 A 
ATOM     31  H   UNL     1      48.163   4.692   5.952  0.00  0.00    +0.000 HD
ENDBRANCH  18  21
ENDBRANCH   1  17
TORSDOF 6
ENDMDL
