MODEL 1
REMARK VINA RESULT:    -8.506      0.000      0.000
REMARK INTER + INTRA:         -13.785
REMARK INTER:                 -12.484
REMARK INTRA:                  -1.302
REMARK UNBOUND:                -1.302
REMARK  Name = 
REMARK  10 active torsions:
REMARK  status: ('A' for Active; 'I' for Inactive)
REMARK    1  A    between atoms: C_1  and  O_2
REMARK    2  A    between atoms: O_2  and  C_3
REMARK    3  A    between atoms: C_10  and  C_11
REMARK    4  A    between atoms: N_13  and  C_14
REMARK    5  A    between atoms: C_14  and  C_15
REMARK    6  A    between atoms: C_18  and  C_19
REMARK    7  A    between atoms: C_19  and  N_20
REMARK    8  A    between atoms: N_20  and  C_21
REMARK    9  A    between atoms: N_20  and  C_22
REMARK   10  A    between atoms: C_22  and  C_23
REMARK                            x       y       z     vdW  Elec       q    Type
REMARK                         _______ _______ _______ _____ _____    ______ ____
ROOT
ATOM      1  C   UNL     1      47.156   8.414  13.320  0.00  0.00    +0.000 C 
ENDROOT
BRANCH   1   2
ATOM      2  C   UNL     1      46.366   7.443  12.478  0.00  0.00    +0.000 A 
ATOM      3  C   UNL     1      45.053   7.108  12.837  0.00  0.00    +0.000 A 
ATOM      4  C   UNL     1      44.323   6.184  12.086  0.00  0.00    +0.000 A 
ATOM      5  C   UNL     1      44.893   5.569  10.964  0.00  0.00    +0.000 A 
ATOM      6  C   UNL     1      46.209   5.890  10.611  0.00  0.00    +0.000 A 
ATOM      7  C   UNL     1      46.936   6.824  11.356  0.00  0.00    +0.000 A 
BRANCH   5   8
ATOM      8  C   UNL     1      44.082   4.612  10.111  0.00  0.00    +0.000 C 
BRANCH   8   9
ATOM      9  N   UNL     1      44.402   3.196  10.386  0.00  0.00    +0.000 NA
ATOM     10  C   UNL     1      43.532   2.662  11.442  0.00  0.00    +0.000 C 
BRANCH   9  11
ATOM     11  C   UNL     1      44.236   2.386   9.159  0.00  0.00    +0.000 C 
BRANCH  11  12
ATOM     12  C   UNL     1      45.473   2.293   8.279  0.00  0.00    +0.000 A 
ATOM     13  C   UNL     1      45.934   3.411   7.583  0.00  0.00    +0.000 A 
ATOM     14  C   UNL     1      47.120   3.311   6.859  0.00  0.00    +0.000 A 
ATOM     15  C   UNL     1      47.800   2.101   6.831  0.00  0.00    +0.000 A 
ATOM     16  C   UNL     1      47.255   1.027   7.514  0.00  0.00    +0.000 A 
ATOM     17  N   UNL     1      46.114   1.096   8.237  0.00  0.00    +0.000 NA
ENDBRANCH  11  12
ENDBRANCH   9  11
ENDBRANCH   8   9
ENDBRANCH   5   8
ENDBRANCH   1   2
BRANCH   1  20
ATOM     18  C   UNL     1      48.696   7.012  14.656  0.00  0.00    +0.000 C 
ATOM     19  O   UNL     1      49.423   6.821  13.684  0.00  0.00    +0.000 OA
ATOM     20  N   UNL     1      47.574   7.795  14.557  0.00  0.00    +0.000 N 
ATOM     21  H   UNL     1      47.060   8.036  15.389  0.00  0.00    +0.000 HD
BRANCH  18  29
ATOM     22  C   UNL     1      47.426   4.256  16.271  0.00  0.00    +0.000 A 
ATOM     23  N   UNL     1      47.187   3.188  17.061  0.00  0.00    +0.000 NA
ATOM     24  C   UNL     1      47.913   3.053  18.172  0.00  0.00    +0.000 A 
ATOM     25  N   UNL     1      48.856   3.877  18.618  0.00  0.00    +0.000 NA
ATOM     26  C   UNL     1      49.066   4.922  17.801  0.00  0.00    +0.000 A 
ATOM     27  S   UNL     1      50.227   6.092  18.216  0.00  0.00    +0.000 S 
ATOM     28  C   UNL     1      49.933   6.964  16.786  0.00  0.00    +0.000 A 
ATOM     29  C   UNL     1      48.973   6.389  15.962  0.00  0.00    +0.000 A 
ATOM     30  C   UNL     1      48.425   5.190  16.596  0.00  0.00    +0.000 A 
BRANCH  22  32
ATOM     31  C   UNL     1      47.086   3.692  14.013  0.00  0.00    +0.000 C 
ATOM     32  O   UNL     1      46.643   4.427  15.149  0.00  0.00    +0.000 OA
ENDBRANCH  22  32
ENDBRANCH  18  29
ENDBRANCH   1  20
TORSDOF 8
ENDMDL
MODEL 2
REMARK VINA RESULT:    -7.382      1.799      2.283
REMARK INTER + INTRA:         -12.136
REMARK INTER:                 -11.058
REMARK INTRA:                  -1.077
REMARK UNBOUND:                -1.302
REMARK  Name = 
REMARK  10 active torsions:
REMARK  status: ('A' for Active; 'I' for Inactive)
REMARK    1  A    between atoms: C_1  and  O_2
REMARK    2  A    between atoms: O_2  and  C_3
REMARK    3  A    between atoms: C_10  and  C_11
REMARK    4  A    between atoms: N_13  and  C_14
REMARK    5  A    between atoms: C_14  and  C_15
REMARK    6  A    between atoms: C_18  and  C_19
REMARK    7  A    between atoms: C_19  and  N_20
REMARK    8  A    between atoms: N_20  and  C_21
REMARK    9  A    between atoms: N_20  and  C_22
REMARK   10  A    between atoms: C_22  and  C_23
REMARK                            x       y       z     vdW  Elec       q    Type
REMARK                         _______ _______ _______ _____ _____    ______ ____
ROOT
ATOM      1  C   UNL     1      48.635   7.036  14.024  0.00  0.00    +0.000 C 
ENDROOT
BRANCH   1   2
ATOM      2  C   UNL     1      47.528   6.435  13.192  0.00  0.00    +0.000 A 
ATOM      3  C   UNL     1      47.160   7.029  11.977  0.00  0.00    +0.000 A 
ATOM      4  C   UNL     1      46.114   6.503  11.215  0.00  0.00    +0.000 A 
ATOM      5  C   UNL     1      45.408   5.376  11.656  0.00  0.00    +0.000 A 
ATOM      6  C   UNL     1      45.763   4.789  12.876  0.00  0.00    +0.000 A 
ATOM      7  C   UNL     1      46.818   5.309  13.634  0.00  0.00    +0.000 A 
BRANCH   5   8
ATOM      8  C   UNL     1      44.313   4.767  10.801  0.00  0.00    +0.000 C 
BRANCH   8   9
ATOM      9  N   UNL     1      44.448   3.302  10.665  0.00  0.00    +0.000 NA
ATOM     10  C   UNL     1      43.502   2.609  11.550  0.00  0.00    +0.000 C 
BRANCH   9  11
ATOM     11  C   UNL     1      44.198   2.893   9.265  0.00  0.00    +0.000 C 
BRANCH  11  12
ATOM     12  C   UNL     1      45.446   2.739   8.410  0.00  0.00    +0.000 A 
ATOM     13  C   UNL     1      46.053   1.492   8.258  0.00  0.00    +0.000 A 
ATOM     14  C   UNL     1      47.141   1.373   7.396  0.00  0.00    +0.000 A 
ATOM     15  C   UNL     1      47.607   2.499   6.729  0.00  0.00    +0.000 A 
ATOM     16  C   UNL     1      46.976   3.708   6.967  0.00  0.00    +0.000 A 
ATOM     17  N   UNL     1      45.909   3.853   7.785  0.00  0.00    +0.000 NA
ENDBRANCH  11  12
ENDBRANCH   9  11
ENDBRANCH   8   9
ENDBRANCH   5   8
ENDBRANCH   1   2
BRANCH   1  20
ATOM     18  C   UNL     1      48.988   7.672  16.388  0.00  0.00    +0.000 C 
ATOM     19  O   UNL     1      49.885   8.454  16.082  0.00  0.00    +0.000 OA
ATOM     20  N   UNL     1      48.319   6.953  15.431  0.00  0.00    +0.000 N 
ATOM     21  H   UNL     1      47.510   6.411  15.690  0.00  0.00    +0.000 HD
BRANCH  18  29
ATOM     22  C   UNL     1      48.877   4.874  18.381  0.00  0.00    +0.000 A 
ATOM     23  N   UNL     1      48.847   3.977  19.389  0.00  0.00    +0.000 NA
ATOM     24  C   UNL     1      48.532   4.414  20.610  0.00  0.00    +0.000 A 
ATOM     25  N   UNL     1      48.217   5.658  20.960  0.00  0.00    +0.000 NA
ATOM     26  C   UNL     1      48.266   6.518  19.929  0.00  0.00    +0.000 A 
ATOM     27  S   UNL     1      47.878   8.153  20.184  0.00  0.00    +0.000 S 
ATOM     28  C   UNL     1      48.191   8.532  18.555  0.00  0.00    +0.000 A 
ATOM     29  C   UNL     1      48.608   7.446  17.794  0.00  0.00    +0.000 A 
ATOM     30  C   UNL     1      48.607   6.233  18.611  0.00  0.00    +0.000 A 
BRANCH  22  32
ATOM     31  C   UNL     1      48.195   3.488  16.607  0.00  0.00    +0.000 C 
ATOM     32  O   UNL     1      49.150   4.418  17.109  0.00  0.00    +0.000 OA
ENDBRANCH  22  32
ENDBRANCH  18  29
ENDBRANCH   1  20
TORSDOF 8
ENDMDL
MODEL 3
REMARK VINA RESULT:    -7.043      2.669      4.072
REMARK INTER + INTRA:         -11.639
REMARK INTER:                 -10.377
REMARK INTRA:                  -1.261
REMARK UNBOUND:                -1.302
REMARK  Name = 
REMARK  10 active torsions:
REMARK  status: ('A' for Active; 'I' for Inactive)
REMARK    1  A    between atoms: C_1  and  O_2
REMARK    2  A    between atoms: O_2  and  C_3
REMARK    3  A    between atoms: C_10  and  C_11
REMARK    4  A    between atoms: N_13  and  C_14
REMARK    5  A    between atoms: C_14  and  C_15
REMARK    6  A    between atoms: C_18  and  C_19
REMARK    7  A    between atoms: C_19  and  N_20
REMARK    8  A    between atoms: N_20  and  C_21
REMARK    9  A    between atoms: N_20  and  C_22
REMARK   10  A    between atoms: C_22  and  C_23
REMARK                            x       y       z     vdW  Elec       q    Type
REMARK                         _______ _______ _______ _____ _____    ______ ____
ROOT
ATOM      1  C   UNL     1      47.904   4.568  16.096  0.00  0.00    +0.000 C 
ENDROOT
BRANCH   1   2
ATOM      2  C   UNL     1      47.281   4.800  14.740  0.00  0.00    +0.000 A 
ATOM      3  C   UNL     1      47.325   6.073  14.156  0.00  0.00    +0.000 A 
ATOM      4  C   UNL     1      46.723   6.311  12.918  0.00  0.00    +0.000 A 
ATOM      5  C   UNL     1      46.056   5.280  12.242  0.00  0.00    +0.000 A 
ATOM      6  C   UNL     1      45.997   4.011  12.830  0.00  0.00    +0.000 A 
ATOM      7  C   UNL     1      46.611   3.771  14.064  0.00  0.00    +0.000 A 
BRANCH   5   8
ATOM      8  C   UNL     1      45.454   5.519  10.870  0.00  0.00    +0.000 C 
BRANCH   8   9
ATOM      9  N   UNL     1      44.345   4.591  10.568  0.00  0.00    +0.000 NA
ATOM     10  C   UNL     1      43.077   5.104  11.106  0.00  0.00    +0.000 C 
BRANCH   9  11
ATOM     11  C   UNL     1      44.216   4.406   9.106  0.00  0.00    +0.000 C 
BRANCH  11  12
ATOM     12  C   UNL     1      45.291   3.536   8.472  0.00  0.00    +0.000 A 
ATOM     13  C   UNL     1      45.371   2.176   8.774  0.00  0.00    +0.000 A 
ATOM     14  C   UNL     1      46.311   1.394   8.107  0.00  0.00    +0.000 A 
ATOM     15  C   UNL     1      47.156   1.988   7.179  0.00  0.00    +0.000 A 
ATOM     16  C   UNL     1      47.041   3.351   6.968  0.00  0.00    +0.000 A 
ATOM     17  N   UNL     1      46.130   4.134   7.588  0.00  0.00    +0.000 NA
ENDBRANCH  11  12
ENDBRANCH   9  11
ENDBRANCH   8   9
ENDBRANCH   5   8
ENDBRANCH   1   2
BRANCH   1  20
ATOM     18  C   UNL     1      48.270   5.812  18.202  0.00  0.00    +0.000 C 
ATOM     19  O   UNL     1      48.896   4.874  18.690  0.00  0.00    +0.000 OA
ATOM     20  N   UNL     1      47.765   5.740  16.929  0.00  0.00    +0.000 N 
ATOM     21  H   UNL     1      47.362   6.560  16.506  0.00  0.00    +0.000 HD
BRANCH  18  29
ATOM     22  C   UNL     1      48.182   9.142  17.356  0.00  0.00    +0.000 A 
ATOM     23  N   UNL     1      47.980  10.474  17.275  0.00  0.00    +0.000 NA
ATOM     24  C   UNL     1      47.568  11.116  18.370  0.00  0.00    +0.000 A 
ATOM     25  N   UNL     1      47.346  10.590  19.571  0.00  0.00    +0.000 NA
ATOM     26  C   UNL     1      47.553   9.263  19.607  0.00  0.00    +0.000 A 
ATOM     27  S   UNL     1      47.333   8.419  21.065  0.00  0.00    +0.000 S 
ATOM     28  C   UNL     1      47.719   6.937  20.323  0.00  0.00    +0.000 A 
ATOM     29  C   UNL     1      48.003   7.043  18.967  0.00  0.00    +0.000 A 
ATOM     30  C   UNL     1      47.947   8.444  18.553  0.00  0.00    +0.000 A 
BRANCH  22  32
ATOM     31  C   UNL     1      50.077   8.476  16.133  0.00  0.00    +0.000 C 
ATOM     32  O   UNL     1      48.657   8.485  16.242  0.00  0.00    +0.000 OA
ENDBRANCH  22  32
ENDBRANCH  18  29
ENDBRANCH   1  20
TORSDOF 8
ENDMDL
MODEL 4
REMARK VINA RESULT:    -7.029      1.631      2.236
REMARK INTER + INTRA:         -11.618
REMARK INTER:                 -10.286
REMARK INTRA:                  -1.331
REMARK UNBOUND:                -1.302
REMARK  Name = 
REMARK  10 active torsions:
REMARK  status: ('A' for Active; 'I' for Inactive)
REMARK    1  A    between atoms: C_1  and  O_2
REMARK    2  A    between atoms: O_2  and  C_3
REMARK    3  A    between atoms: C_10  and  C_11
REMARK    4  A    between atoms: N_13  and  C_14
REMARK    5  A    between atoms: C_14  and  C_15
REMARK    6  A    between atoms: C_18  and  C_19
REMARK    7  A    between atoms: C_19  and  N_20
REMARK    8  A    between atoms: N_20  and  C_21
REMARK    9  A    between atoms: N_20  and  C_22
REMARK   10  A    between atoms: C_22  and  C_23
REMARK                            x       y       z     vdW  Elec       q    Type
REMARK                         _______ _______ _______ _____ _____    ______ ____
ROOT
ATOM      1  C   UNL     1      49.234   8.583  13.523  0.00  0.00    +0.000 C 
ENDROOT
BRANCH   1   2
ATOM      2  C   UNL     1      47.922   8.044  13.009  0.00  0.00    +0.000 A 
ATOM      3  C   UNL     1      47.896   6.871  12.242  0.00  0.00    +0.000 A 
ATOM      4  C   UNL     1      46.692   6.380  11.731  0.00  0.00    +0.000 A 
ATOM      5  C   UNL     1      45.489   7.057  11.969  0.00  0.00    +0.000 A 
ATOM      6  C   UNL     1      45.513   8.238  12.721  0.00  0.00    +0.000 A 
ATOM      7  C   UNL     1      46.717   8.722  13.243  0.00  0.00    +0.000 A 
BRANCH   5   8
ATOM      8  C   UNL     1      44.173   6.495  11.467  0.00  0.00    +0.000 C 
BRANCH   8   9
ATOM      9  N   UNL     1      44.128   5.019  11.522  0.00  0.00    +0.000 NA
ATOM     10  C   UNL     1      43.361   4.566  12.690  0.00  0.00    +0.000 C 
BRANCH   9  11
ATOM     11  C   UNL     1      43.510   4.479  10.291  0.00  0.00    +0.000 C 
BRANCH  11  12
ATOM     12  C   UNL     1      44.459   3.720   9.377  0.00  0.00    +0.000 A 
ATOM     13  C   UNL     1      45.282   4.405   8.483  0.00  0.00    +0.000 A 
ATOM     14  C   UNL     1      46.201   3.684   7.726  0.00  0.00    +0.000 A 
ATOM     15  C   UNL     1      46.260   2.302   7.862  0.00  0.00    +0.000 A 
ATOM     16  C   UNL     1      45.379   1.694   8.739  0.00  0.00    +0.000 A 
ATOM     17  N   UNL     1      44.487   2.368   9.499  0.00  0.00    +0.000 NA
ENDBRANCH  11  12
ENDBRANCH   9  11
ENDBRANCH   8   9
ENDBRANCH   5   8
ENDBRANCH   1   2
BRANCH   1  20
ATOM     18  C   UNL     1      49.815   7.555  15.697  0.00  0.00    +0.000 C 
ATOM     19  O   UNL     1      49.113   8.359  16.306  0.00  0.00    +0.000 OA
ATOM     20  N   UNL     1      49.912   7.594  14.329  0.00  0.00    +0.000 N 
ATOM     21  H   UNL     1      50.394   6.855  13.843  0.00  0.00    +0.000 HD
BRANCH  18  29
ATOM     22  C   UNL     1      49.054   4.471  17.012  0.00  0.00    +0.000 A 
ATOM     23  N   UNL     1      49.054   3.214  17.504  0.00  0.00    +0.000 NA
ATOM     24  C   UNL     1      50.214   2.702  17.919  0.00  0.00    +0.000 A 
ATOM     25  N   UNL     1      51.400   3.303  17.926  0.00  0.00    +0.000 NA
ATOM     26  C   UNL     1      51.356   4.549  17.424  0.00  0.00    +0.000 A 
ATOM     27  S   UNL     1      52.777   5.479  17.366  0.00  0.00    +0.000 S 
ATOM     28  C   UNL     1      51.956   6.777  16.633  0.00  0.00    +0.000 A 
ATOM     29  C   UNL     1      50.608   6.533  16.403  0.00  0.00    +0.000 A 
ATOM     30  C   UNL     1      50.243   5.214  16.919  0.00  0.00    +0.000 A 
BRANCH  22  32
ATOM     31  C   UNL     1      47.233   4.367  15.527  0.00  0.00    +0.000 C 
ATOM     32  O   UNL     1      47.850   5.023  16.630  0.00  0.00    +0.000 OA
ENDBRANCH  22  32
ENDBRANCH  18  29
ENDBRANCH   1  20
TORSDOF 8
ENDMDL
MODEL 5
REMARK VINA RESULT:    -6.752      4.832      6.419
REMARK INTER + INTRA:         -11.212
REMARK INTER:                 -10.108
REMARK INTRA:                  -1.103
REMARK UNBOUND:                -1.302
REMARK  Name = 
REMARK  10 active torsions:
REMARK  status: ('A' for Active; 'I' for Inactive)
REMARK    1  A    between atoms: C_1  and  O_2
REMARK    2  A    between atoms: O_2  and  C_3
REMARK    3  A    between atoms: C_10  and  C_11
REMARK    4  A    between atoms: N_13  and  C_14
REMARK    5  A    between atoms: C_14  and  C_15
REMARK    6  A    between atoms: C_18  and  C_19
REMARK    7  A    between atoms: C_19  and  N_20
REMARK    8  A    between atoms: N_20  and  C_21
REMARK    9  A    between atoms: N_20  and  C_22
REMARK   10  A    between atoms: C_22  and  C_23
REMARK                            x       y       z     vdW  Elec       q    Type
REMARK                         _______ _______ _______ _____ _____    ______ ____
ROOT
ATOM      1  C   UNL     1      49.683   7.437  12.942  0.00  0.00    +0.000 C 
ENDROOT
BRANCH   1   2
ATOM      2  C   UNL     1      48.318   6.856  12.667  0.00  0.00    +0.000 A 
ATOM      3  C   UNL     1      47.713   6.007  13.605  0.00  0.00    +0.000 A 
ATOM      4  C   UNL     1      46.465   5.435  13.347  0.00  0.00    +0.000 A 
ATOM      5  C   UNL     1      45.799   5.692  12.142  0.00  0.00    +0.000 A 
ATOM      6  C   UNL     1      46.407   6.526  11.197  0.00  0.00    +0.000 A 
ATOM      7  C   UNL     1      47.651   7.109  11.460  0.00  0.00    +0.000 A 
BRANCH   5   8
ATOM      8  C   UNL     1      44.417   5.121  11.885  0.00  0.00    +0.000 C 
BRANCH   8   9
ATOM      9  N   UNL     1      44.462   3.795  11.236  0.00  0.00    +0.000 NA
ATOM     10  C   UNL     1      43.502   2.876  11.863  0.00  0.00    +0.000 C 
BRANCH   9  11
ATOM     11  C   UNL     1      44.152   3.919   9.795  0.00  0.00    +0.000 C 
BRANCH  11  12
ATOM     12  C   UNL     1      45.228   3.388   8.860  0.00  0.00    +0.000 A 
ATOM     13  C   UNL     1      45.551   2.031   8.848  0.00  0.00    +0.000 A 
ATOM     14  C   UNL     1      46.477   1.568   7.916  0.00  0.00    +0.000 A 
ATOM     15  C   UNL     1      47.069   2.468   7.039  0.00  0.00    +0.000 A 
ATOM     16  C   UNL     1      46.725   3.805   7.144  0.00  0.00    +0.000 A 
ATOM     17  N   UNL     1      45.820   4.283   8.027  0.00  0.00    +0.000 NA
ENDBRANCH  11  12
ENDBRANCH   9  11
ENDBRANCH   8   9
ENDBRANCH   5   8
ENDBRANCH   1   2
BRANCH   1  20
ATOM     18  C   UNL     1      51.620   8.263  11.644  0.00  0.00    +0.000 C 
ATOM     19  O   UNL     1      52.351   8.209  12.630  0.00  0.00    +0.000 OA
ATOM     20  N   UNL     1      50.303   7.886  11.717  0.00  0.00    +0.000 N 
ATOM     21  H   UNL     1      49.756   7.824  10.874  0.00  0.00    +0.000 HD
BRANCH  18  29
ATOM     22  C   UNL     1      53.160   6.755   8.966  0.00  0.00    +0.000 A 
ATOM     23  N   UNL     1      53.661   6.405   7.763  0.00  0.00    +0.000 NA
ATOM     24  C   UNL     1      53.762   7.348   6.824  0.00  0.00    +0.000 A 
ATOM     25  N   UNL     1      53.437   8.632   6.941  0.00  0.00    +0.000 NA
ATOM     26  C   UNL     1      52.937   8.937   8.150  0.00  0.00    +0.000 A 
ATOM     27  S   UNL     1      52.479  10.538   8.489  0.00  0.00    +0.000 S 
ATOM     28  C   UNL     1      51.965  10.112  10.053  0.00  0.00    +0.000 A 
ATOM     29  C   UNL     1      52.110   8.762  10.347  0.00  0.00    +0.000 A 
ATOM     30  C   UNL     1      52.735   8.070   9.219  0.00  0.00    +0.000 A 
BRANCH  22  32
ATOM     31  C   UNL     1      54.374   5.287  10.344  0.00  0.00    +0.000 C 
ATOM     32  O   UNL     1      53.103   5.796   9.954  0.00  0.00    +0.000 OA
ENDBRANCH  22  32
ENDBRANCH  18  29
ENDBRANCH   1  20
TORSDOF 8
ENDMDL
MODEL 6
REMARK VINA RESULT:    -6.734      3.051      7.778
REMARK INTER + INTRA:         -11.185
REMARK INTER:                  -9.510
REMARK INTRA:                  -1.675
REMARK UNBOUND:                -1.302
REMARK  Name = 
REMARK  10 active torsions:
REMARK  status: ('A' for Active; 'I' for Inactive)
REMARK    1  A    between atoms: C_1  and  O_2
REMARK    2  A    between atoms: O_2  and  C_3
REMARK    3  A    between atoms: C_10  and  C_11
REMARK    4  A    between atoms: N_13  and  C_14
REMARK    5  A    between atoms: C_14  and  C_15
REMARK    6  A    between atoms: C_18  and  C_19
REMARK    7  A    between atoms: C_19  and  N_20
REMARK    8  A    between atoms: N_20  and  C_21
REMARK    9  A    between atoms: N_20  and  C_22
REMARK   10  A    between atoms: C_22  and  C_23
REMARK                            x       y       z     vdW  Elec       q    Type
REMARK                         _______ _______ _______ _____ _____    ______ ____
ROOT
ATOM      1  C   UNL     1      48.281   8.213  11.971  0.00  0.00    +0.000 C 
ENDROOT
BRANCH   1   2
ATOM      2  C   UNL     1      48.428   8.043  13.463  0.00  0.00    +0.000 A 
ATOM      3  C   UNL     1      47.951   9.032  14.334  0.00  0.00    +0.000 A 
ATOM      4  C   UNL     1      48.113   8.904  15.716  0.00  0.00    +0.000 A 
ATOM      5  C   UNL     1      48.763   7.786  16.256  0.00  0.00    +0.000 A 
ATOM      6  C   UNL     1      49.254   6.803  15.388  0.00  0.00    +0.000 A 
ATOM      7  C   UNL     1      49.081   6.926  14.005  0.00  0.00    +0.000 A 
BRANCH   5   8
ATOM      8  C   UNL     1      48.885   7.614  17.758  0.00  0.00    +0.000 C 
BRANCH   8   9
ATOM      9  N   UNL     1      50.078   6.832  18.144  0.00  0.00    +0.000 NA
ATOM     10  C   UNL     1      51.024   7.665  18.898  0.00  0.00    +0.000 C 
BRANCH   9  11
ATOM     11  C   UNL     1      49.683   5.670  18.971  0.00  0.00    +0.000 C 
BRANCH  11  12
ATOM     12  C   UNL     1      49.440   4.384  18.196  0.00  0.00    +0.000 A 
ATOM     13  C   UNL     1      48.158   4.054  17.753  0.00  0.00    +0.000 A 
ATOM     14  C   UNL     1      47.989   2.915  16.971  0.00  0.00    +0.000 A 
ATOM     15  C   UNL     1      49.092   2.126  16.670  0.00  0.00    +0.000 A 
ATOM     16  C   UNL     1      50.323   2.499  17.183  0.00  0.00    +0.000 A 
ATOM     17  N   UNL     1      50.521   3.607  17.932  0.00  0.00    +0.000 NA
ENDBRANCH  11  12
ENDBRANCH   9  11
ENDBRANCH   8   9
ENDBRANCH   5   8
ENDBRANCH   1   2
BRANCH   1  20
ATOM     18  C   UNL     1      46.230   6.987  11.332  0.00  0.00    +0.000 C 
ATOM     19  O   UNL     1      45.513   7.893  11.751  0.00  0.00    +0.000 OA
ATOM     20  N   UNL     1      47.597   7.079  11.393  0.00  0.00    +0.000 N 
ATOM     21  H   UNL     1      48.163   6.383  10.937  0.00  0.00    +0.000 HD
BRANCH  18  29
ATOM     22  C   UNL     1      44.512   4.350  12.715  0.00  0.00    +0.000 A 
ATOM     23  N   UNL     1      43.744   3.271  12.973  0.00  0.00    +0.000 NA
ATOM     24  C   UNL     1      43.383   2.496  11.949  0.00  0.00    +0.000 A 
ATOM     25  N   UNL     1      43.714   2.652  10.670  0.00  0.00    +0.000 NA
ATOM     26  C   UNL     1      44.473   3.740  10.456  0.00  0.00    +0.000 A 
ATOM     27  S   UNL     1      45.007   4.093   8.882  0.00  0.00    +0.000 S 
ATOM     28  C   UNL     1      45.795   5.505   9.413  0.00  0.00    +0.000 A 
ATOM     29  C   UNL     1      45.659   5.748  10.775  0.00  0.00    +0.000 A 
ATOM     30  C   UNL     1      44.905   4.663  11.403  0.00  0.00    +0.000 A 
BRANCH  22  32
ATOM     31  C   UNL     1      46.231   4.796  14.258  0.00  0.00    +0.000 C 
ATOM     32  O   UNL     1      44.930   5.123  13.777  0.00  0.00    +0.000 OA
ENDBRANCH  22  32
ENDBRANCH  18  29
ENDBRANCH   1  20
TORSDOF 8
ENDMDL
MODEL 7
REMARK VINA RESULT:    -6.498      2.332      3.371
REMARK INTER + INTRA:         -10.838
REMARK INTER:                 -10.054
REMARK INTRA:                  -0.784
REMARK UNBOUND:                -1.302
REMARK  Name = 
REMARK  10 active torsions:
REMARK  status: ('A' for Active; 'I' for Inactive)
REMARK    1  A    between atoms: C_1  and  O_2
REMARK    2  A    between atoms: O_2  and  C_3
REMARK    3  A    between atoms: C_10  and  C_11
REMARK    4  A    between atoms: N_13  and  C_14
REMARK    5  A    between atoms: C_14  and  C_15
REMARK    6  A    between atoms: C_18  and  C_19
REMARK    7  A    between atoms: C_19  and  N_20
REMARK    8  A    between atoms: N_20  and  C_21
REMARK    9  A    between atoms: N_20  and  C_22
REMARK   10  A    between atoms: C_22  and  C_23
REMARK                            x       y       z     vdW  Elec       q    Type
REMARK                         _______ _______ _______ _____ _____    ______ ____
ROOT
ATOM      1  C   UNL     1      48.845   7.702  13.304  0.00  0.00    +0.000 C 
ENDROOT
BRANCH   1   2
ATOM      2  C   UNL     1      47.724   6.900  12.688  0.00  0.00    +0.000 A 
ATOM      3  C   UNL     1      47.247   7.224  11.411  0.00  0.00    +0.000 A 
ATOM      4  C   UNL     1      46.187   6.513  10.844  0.00  0.00    +0.000 A 
ATOM      5  C   UNL     1      45.576   5.466  11.546  0.00  0.00    +0.000 A 
ATOM      6  C   UNL     1      46.040   5.149  12.829  0.00  0.00    +0.000 A 
ATOM      7  C   UNL     1      47.109   5.854  13.391  0.00  0.00    +0.000 A 
BRANCH   5   8
ATOM      8  C   UNL     1      44.466   4.652  10.909  0.00  0.00    +0.000 C 
BRANCH   8   9
ATOM      9  N   UNL     1      44.670   3.197  11.060  0.00  0.00    +0.000 NA
ATOM     10  C   UNL     1      43.887   2.676  12.189  0.00  0.00    +0.000 C 
BRANCH   9  11
ATOM     11  C   UNL     1      44.271   2.492   9.822  0.00  0.00    +0.000 C 
BRANCH  11  12
ATOM     12  C   UNL     1      45.324   2.479   8.724  0.00  0.00    +0.000 A 
ATOM     13  C   UNL     1      45.639   3.647   8.030  0.00  0.00    +0.000 A 
ATOM     14  C   UNL     1      46.670   3.616   7.094  0.00  0.00    +0.000 A 
ATOM     15  C   UNL     1      47.341   2.423   6.860  0.00  0.00    +0.000 A 
ATOM     16  C   UNL     1      46.939   1.298   7.559  0.00  0.00    +0.000 A 
ATOM     17  N   UNL     1      45.953   1.299   8.485  0.00  0.00    +0.000 NA
ENDBRANCH  11  12
ENDBRANCH   9  11
ENDBRANCH   8   9
ENDBRANCH   5   8
ENDBRANCH   1   2
BRANCH   1  20
ATOM     18  C   UNL     1      49.439   7.111  15.631  0.00  0.00    +0.000 C 
ATOM     19  O   UNL     1      48.680   7.967  16.081  0.00  0.00    +0.000 OA
ATOM     20  N   UNL     1      49.561   6.913  14.280  0.00  0.00    +0.000 N 
ATOM     21  H   UNL     1      50.093   6.130  13.938  0.00  0.00    +0.000 HD
BRANCH  18  29
ATOM     22  C   UNL     1      52.835   6.778  16.041  0.00  0.00    +0.000 A 
ATOM     23  N   UNL     1      54.091   6.536  16.473  0.00  0.00    +0.000 NA
ATOM     24  C   UNL     1      54.252   5.711  17.509  0.00  0.00    +0.000 A 
ATOM     25  N   UNL     1      53.299   5.064  18.174  0.00  0.00    +0.000 NA
ATOM     26  C   UNL     1      52.066   5.337  17.716  0.00  0.00    +0.000 A 
ATOM     27  S   UNL     1      50.721   4.588  18.435  0.00  0.00    +0.000 S 
ATOM     28  C   UNL     1      49.648   5.415  17.406  0.00  0.00    +0.000 A 
ATOM     29  C   UNL     1      50.274   6.279  16.516  0.00  0.00    +0.000 A 
ATOM     30  C   UNL     1      51.725   6.195  16.675  0.00  0.00    +0.000 A 
BRANCH  22  32
ATOM     31  C   UNL     1      53.333   8.844  15.033  0.00  0.00    +0.000 C 
ATOM     32  O   UNL     1      52.668   7.588  14.938  0.00  0.00    +0.000 OA
ENDBRANCH  22  32
ENDBRANCH  18  29
ENDBRANCH   1  20
TORSDOF 8
ENDMDL
MODEL 8
REMARK VINA RESULT:    -6.227      2.669      8.132
REMARK INTER + INTRA:         -10.441
REMARK INTER:                  -8.868
REMARK INTRA:                  -1.573
REMARK UNBOUND:                -1.302
REMARK  Name = 
REMARK  10 active torsions:
REMARK  status: ('A' for Active; 'I' for Inactive)
REMARK    1  A    between atoms: C_1  and  O_2
REMARK    2  A    between atoms: O_2  and  C_3
REMARK    3  A    between atoms: C_10  and  C_11
REMARK    4  A    between atoms: N_13  and  C_14
REMARK    5  A    between atoms: C_14  and  C_15
REMARK    6  A    between atoms: C_18  and  C_19
REMARK    7  A    between atoms: C_19  and  N_20
REMARK    8  A    between atoms: N_20  and  C_21
REMARK    9  A    between atoms: N_20  and  C_22
REMARK   10  A    between atoms: C_22  and  C_23
REMARK                            x       y       z     vdW  Elec       q    Type
REMARK                         _______ _______ _______ _____ _____    ______ ____
ROOT
ATOM      1  C   UNL     1      48.084   7.717  11.834  0.00  0.00    +0.000 C 
ENDROOT
BRANCH   1   2
ATOM      2  C   UNL     1      48.561   7.941  13.248  0.00  0.00    +0.000 A 
ATOM      3  C   UNL     1      49.758   7.358  13.687  0.00  0.00    +0.000 A 
ATOM      4  C   UNL     1      50.194   7.528  15.003  0.00  0.00    +0.000 A 
ATOM      5  C   UNL     1      49.437   8.279  15.912  0.00  0.00    +0.000 A 
ATOM      6  C   UNL     1      48.233   8.850  15.482  0.00  0.00    +0.000 A 
ATOM      7  C   UNL     1      47.803   8.689  14.160  0.00  0.00    +0.000 A 
BRANCH   5   8
ATOM      8  C   UNL     1      49.938   8.517  17.324  0.00  0.00    +0.000 C 
BRANCH   8   9
ATOM      9  N   UNL     1      50.462   7.289  17.955  0.00  0.00    +0.000 NA
ATOM     10  C   UNL     1      51.520   7.612  18.922  0.00  0.00    +0.000 C 
BRANCH   9  11
ATOM     11  C   UNL     1      49.373   6.563  18.646  0.00  0.00    +0.000 C 
BRANCH  11  12
ATOM     12  C   UNL     1      48.968   5.248  17.999  0.00  0.00    +0.000 A 
ATOM     13  C   UNL     1      47.893   5.196  17.110  0.00  0.00    +0.000 A 
ATOM     14  C   UNL     1      47.607   3.993  16.469  0.00  0.00    +0.000 A 
ATOM     15  C   UNL     1      48.382   2.874  16.745  0.00  0.00    +0.000 A 
ATOM     16  C   UNL     1      49.403   2.997  17.672  0.00  0.00    +0.000 A 
ATOM     17  N   UNL     1      49.715   4.154  18.299  0.00  0.00    +0.000 NA
ENDBRANCH  11  12
ENDBRANCH   9  11
ENDBRANCH   8   9
ENDBRANCH   5   8
ENDBRANCH   1   2
BRANCH   1  20
ATOM     18  C   UNL     1      45.822   6.748  11.585  0.00  0.00    +0.000 C 
ATOM     19  O   UNL     1      45.323   7.860  11.428  0.00  0.00    +0.000 OA
ATOM     20  N   UNL     1      47.172   6.598  11.775  0.00  0.00    +0.000 N 
ATOM     21  H   UNL     1      47.574   5.675  11.781  0.00  0.00    +0.000 HD
BRANCH  18  29
ATOM     22  C   UNL     1      45.315   4.200   9.335  0.00  0.00    +0.000 A 
ATOM     23  N   UNL     1      45.026   3.045   8.697  0.00  0.00    +0.000 NA
ATOM     24  C   UNL     1      44.255   2.156   9.325  0.00  0.00    +0.000 A 
ATOM     25  N   UNL     1      43.705   2.280  10.529  0.00  0.00    +0.000 NA
ATOM     26  C   UNL     1      44.022   3.439  11.131  0.00  0.00    +0.000 A 
ATOM     27  S   UNL     1      43.396   3.781  12.673  0.00  0.00    +0.000 S 
ATOM     28  C   UNL     1      44.223   5.267  12.733  0.00  0.00    +0.000 A 
ATOM     29  C   UNL     1      44.995   5.528  11.608  0.00  0.00    +0.000 A 
ATOM     30  C   UNL     1      44.836   4.451  10.632  0.00  0.00    +0.000 A 
BRANCH  22  32
ATOM     31  C   UNL     1      46.826   4.621   7.583  0.00  0.00    +0.000 C 
ATOM     32  O   UNL     1      46.067   5.143   8.669  0.00  0.00    +0.000 OA
ENDBRANCH  22  32
ENDBRANCH  18  29
ENDBRANCH   1  20
TORSDOF 8
ENDMDL
MODEL 9
REMARK VINA RESULT:    -6.079      5.205      7.096
REMARK INTER + INTRA:         -10.224
REMARK INTER:                  -9.142
REMARK INTRA:                  -1.082
REMARK UNBOUND:                -1.302
REMARK  Name = 
REMARK  10 active torsions:
REMARK  status: ('A' for Active; 'I' for Inactive)
REMARK    1  A    between atoms: C_1  and  O_2
REMARK    2  A    between atoms: O_2  and  C_3
REMARK    3  A    between atoms: C_10  and  C_11
REMARK    4  A    between atoms: N_13  and  C_14
REMARK    5  A    between atoms: C_14  and  C_15
REMARK    6  A    between atoms: C_18  and  C_19
REMARK    7  A    between atoms: C_19  and  N_20
REMARK    8  A    between atoms: N_20  and  C_21
REMARK    9  A    between atoms: N_20  and  C_22
REMARK   10  A    between atoms: C_22  and  C_23
REMARK                            x       y       z     vdW  Elec       q    Type
REMARK                         _______ _______ _______ _____ _____    ______ ____
ROOT
ATOM      1  C   UNL     1      51.246   8.355  11.902  0.00  0.00    +0.000 C 
ENDROOT
BRANCH   1   2
ATOM      2  C   UNL     1      49.867   7.792  12.145  0.00  0.00    +0.000 A 
ATOM      3  C   UNL     1      48.920   7.784  11.111  0.00  0.00    +0.000 A 
ATOM      4  C   UNL     1      47.629   7.299  11.332  0.00  0.00    +0.000 A 
ATOM      5  C   UNL     1      47.254   6.818  12.594  0.00  0.00    +0.000 A 
ATOM      6  C   UNL     1      48.193   6.839  13.632  0.00  0.00    +0.000 A 
ATOM      7  C   UNL     1      49.490   7.314  13.408  0.00  0.00    +0.000 A 
BRANCH   5   8
ATOM      8  C   UNL     1      45.873   6.234  12.820  0.00  0.00    +0.000 C 
BRANCH   8   9
ATOM      9  N   UNL     1      45.738   4.867  12.276  0.00  0.00    +0.000 NA
ATOM     10  C   UNL     1      45.360   3.921  13.335  0.00  0.00    +0.000 C 
BRANCH   9  11
ATOM     11  C   UNL     1      44.716   4.839  11.208  0.00  0.00    +0.000 C 
BRANCH  11  12
ATOM     12  C   UNL     1      45.117   4.074   9.956  0.00  0.00    +0.000 A 
ATOM     13  C   UNL     1      45.691   4.739   8.872  0.00  0.00    +0.000 A 
ATOM     14  C   UNL     1      46.127   3.993   7.780  0.00  0.00    +0.000 A 
ATOM     15  C   UNL     1      45.960   2.614   7.786  0.00  0.00    +0.000 A 
ATOM     16  C   UNL     1      45.342   2.036   8.882  0.00  0.00    +0.000 A 
ATOM     17  N   UNL     1      44.922   2.730   9.963  0.00  0.00    +0.000 NA
ENDBRANCH  11  12
ENDBRANCH   9  11
ENDBRANCH   8   9
ENDBRANCH   5   8
ENDBRANCH   1   2
BRANCH   1  20
ATOM     18  C   UNL     1      52.910   7.568  10.250  0.00  0.00    +0.000 C 
ATOM     19  O   UNL     1      52.932   8.664   9.695  0.00  0.00    +0.000 OA
ATOM     20  N   UNL     1      52.119   7.346  11.348  0.00  0.00    +0.000 N 
ATOM     21  H   UNL     1      52.206   6.482  11.858  0.00  0.00    +0.000 HD
BRANCH  18  29
ATOM     22  C   UNL     1      53.213   6.077   7.168  0.00  0.00    +0.000 A 
ATOM     23  N   UNL     1      53.595   5.393   6.069  0.00  0.00    +0.000 NA
ATOM     24  C   UNL     1      54.558   4.479   6.201  0.00  0.00    +0.000 A 
ATOM     25  N   UNL     1      55.192   4.138   7.319  0.00  0.00    +0.000 NA
ATOM     26  C   UNL     1      54.786   4.847   8.386  0.00  0.00    +0.000 A 
ATOM     27  S   UNL     1      55.475   4.538   9.909  0.00  0.00    +0.000 S 
ATOM     28  C   UNL     1      54.539   5.760  10.634  0.00  0.00    +0.000 A 
ATOM     29  C   UNL     1      53.706   6.433   9.749  0.00  0.00    +0.000 A 
ATOM     30  C   UNL     1      53.825   5.852   8.412  0.00  0.00    +0.000 A 
BRANCH  22  32
ATOM     31  C   UNL     1      52.543   8.189   6.377  0.00  0.00    +0.000 C 
ATOM     32  O   UNL     1      52.182   6.984   7.046  0.00  0.00    +0.000 OA
ENDBRANCH  22  32
ENDBRANCH  18  29
ENDBRANCH   1  20
TORSDOF 8
ENDMDL
