MODEL 1
REMARK VINA RESULT:    -8.718      0.000      0.000
REMARK INTER + INTRA:         -11.407
REMARK INTER:                 -10.757
REMARK INTRA:                  -0.650
REMARK UNBOUND:                -0.650
REMARK  Name = 
REMARK  4 active torsions:
REMARK  status: ('A' for Active; 'I' for Inactive)
REMARK    1  A    between atoms: C_2  and  C_4
REMARK    2  A    between atoms: N_8  and  C_9
REMARK    3  A    between atoms: C_9  and  C_10
REMARK    4  A    between atoms: C_14  and  C_15
REMARK                            x       y       z     vdW  Elec       q    Type
REMARK                         _______ _______ _______ _____ _____    ______ ____
ROOT
ATOM      1  C   UNL     1      43.479   4.396  11.039  0.00  0.00    +0.000 C 
ENDROOT
BRANCH   1   6
ATOM      2  C   UNL     1      46.601   2.610   7.335  0.00  0.00    +0.000 A 
ATOM      3  C   UNL     1      46.233   3.910   7.659  0.00  0.00    +0.000 A 
ATOM      4  C   UNL     1      45.376   4.125   8.738  0.00  0.00    +0.000 A 
ATOM      5  C   UNL     1      44.891   3.044   9.465  0.00  0.00    +0.000 A 
ATOM      6  N   UNL     1      44.067   3.171  10.551  0.00  0.00    +0.000 N 
ATOM      7  N   UNL     1      45.213   1.779   9.136  0.00  0.00    +0.000 NA
ATOM      8  C   UNL     1      46.050   1.581   8.083  0.00  0.00    +0.000 A 
ATOM      9  H   UNL     1      43.713   2.287  10.892  0.00  0.00    +0.000 HD
BRANCH   2  11
ATOM     10  N   UNL     1      47.487   3.105   5.132  0.00  0.00    +0.000 N 
ATOM     11  C   UNL     1      47.531   2.295   6.233  0.00  0.00    +0.000 C 
ATOM     12  O   UNL     1      48.333   1.375   6.312  0.00  0.00    +0.000 OA
ATOM     13  H   UNL     1      48.193   2.945   4.425  0.00  0.00    +0.000 HD
ATOM     14  H   UNL     1      47.024   4.004   5.132  0.00  0.00    +0.000 HD
ENDBRANCH   2  11
ENDBRANCH   1   6
BRANCH   1  15
ATOM     15  C   UNL     1      44.459   5.349  11.693  0.00  0.00    +0.000 A 
ATOM     16  C   UNL     1      44.437   6.697  11.311  0.00  0.00    +0.000 A 
ATOM     17  C   UNL     1      45.294   7.617  11.908  0.00  0.00    +0.000 A 
ATOM     18  C   UNL     1      46.178   7.205  12.908  0.00  0.00    +0.000 A 
ATOM     19  C   UNL     1      46.226   5.867  13.332  0.00  0.00    +0.000 A 
ATOM     20  C   UNL     1      45.373   4.953  12.686  0.00  0.00    +0.000 A 
BRANCH  19  21
ATOM     21  C   UNL     1      47.097   5.437  14.445  0.00  0.00    +0.000 A 
ATOM     22  C   UNL     1      48.180   6.215  14.877  0.00  0.00    +0.000 A 
ATOM     23  N   UNL     1      49.005   5.908  15.913  0.00  0.00    +0.000 NA
ATOM     24  C   UNL     1      48.733   4.761  16.575  0.00  0.00    +0.000 A 
ATOM     25  C   UNL     1      47.690   3.922  16.237  0.00  0.00    +0.000 A 
ATOM     26  F   UNL     1      47.463   2.802  16.935  0.00  0.00    +0.000 F 
ATOM     27  C   UNL     1      46.869   4.255  15.166  0.00  0.00    +0.000 A 
ENDBRANCH  19  21
ENDBRANCH   1  15
TORSDOF 4
ENDMDL
MODEL 2
REMARK VINA RESULT:    -7.905      2.977      4.177
REMARK INTER + INTRA:         -10.403
REMARK INTER:                  -9.767
REMARK INTRA:                  -0.636
REMARK UNBOUND:                -0.650
REMARK  Name = 
REMARK  4 active torsions:
REMARK  status: ('A' for Active; 'I' for Inactive)
REMARK    1  A    between atoms: C_2  and  C_4
REMARK    2  A    between atoms: N_8  and  C_9
REMARK    3  A    between atoms: C_9  and  C_10
REMARK    4  A    between atoms: C_14  and  C_15
REMARK                            x       y       z     vdW  Elec       q    Type
REMARK                         _______ _______ _______ _____ _____    ______ ____
ROOT
ATOM      1  C   UNL     1      43.727   4.296  11.362  0.00  0.00    +0.000 C 
ENDROOT
BRANCH   1   6
ATOM      2  C   UNL     1      46.513   2.828   7.271  0.00  0.00    +0.000 A 
ATOM      3  C   UNL     1      46.172   4.097   7.726  0.00  0.00    +0.000 A 
ATOM      4  C   UNL     1      45.414   4.220   8.889  0.00  0.00    +0.000 A 
ATOM      5  C   UNL     1      44.997   3.082   9.571  0.00  0.00    +0.000 A 
ATOM      6  N   UNL     1      44.272   3.118  10.731  0.00  0.00    +0.000 N 
ATOM      7  N   UNL     1      45.292   1.849   9.118  0.00  0.00    +0.000 NA
ATOM      8  C   UNL     1      46.033   1.740   7.983  0.00  0.00    +0.000 A 
ATOM      9  H   UNL     1      43.951   2.207  11.032  0.00  0.00    +0.000 HD
BRANCH   2  11
ATOM     10  N   UNL     1      48.654   2.276   6.273  0.00  0.00    +0.000 N 
ATOM     11  C   UNL     1      47.343   2.608   6.071  0.00  0.00    +0.000 C 
ATOM     12  O   UNL     1      46.874   2.681   4.943  0.00  0.00    +0.000 OA
ATOM     13  H   UNL     1      49.190   2.030   5.451  0.00  0.00    +0.000 HD
ATOM     14  H   UNL     1      49.009   1.969   7.168  0.00  0.00    +0.000 HD
ENDBRANCH   2  11
ENDBRANCH   1   6
BRANCH   1  15
ATOM     15  C   UNL     1      44.749   5.161  12.072  0.00  0.00    +0.000 A 
ATOM     16  C   UNL     1      45.670   4.541  12.928  0.00  0.00    +0.000 A 
ATOM     17  C   UNL     1      46.650   5.288  13.576  0.00  0.00    +0.000 A 
ATOM     18  C   UNL     1      46.732   6.667  13.368  0.00  0.00    +0.000 A 
ATOM     19  C   UNL     1      45.838   7.328  12.509  0.00  0.00    +0.000 A 
ATOM     20  C   UNL     1      44.838   6.553  11.895  0.00  0.00    +0.000 A 
BRANCH  19  21
ATOM     21  C   UNL     1      45.968   8.771  12.217  0.00  0.00    +0.000 A 
ATOM     22  C   UNL     1      44.879   9.534  11.772  0.00  0.00    +0.000 A 
ATOM     23  N   UNL     1      44.906  10.868  11.515  0.00  0.00    +0.000 NA
ATOM     24  C   UNL     1      46.086  11.494  11.727  0.00  0.00    +0.000 A 
ATOM     25  C   UNL     1      47.220  10.841  12.168  0.00  0.00    +0.000 A 
ATOM     26  F   UNL     1      48.359  11.516  12.368  0.00  0.00    +0.000 F 
ATOM     27  C   UNL     1      47.166   9.474  12.411  0.00  0.00    +0.000 A 
ENDBRANCH  19  21
ENDBRANCH   1  15
TORSDOF 4
ENDMDL
MODEL 3
REMARK VINA RESULT:    -7.722      3.620      7.298
REMARK INTER + INTRA:         -10.178
REMARK INTER:                  -9.476
REMARK INTRA:                  -0.701
REMARK UNBOUND:                -0.650
REMARK  Name = 
REMARK  4 active torsions:
REMARK  status: ('A' for Active; 'I' for Inactive)
REMARK    1  A    between atoms: C_2  and  C_4
REMARK    2  A    between atoms: N_8  and  C_9
REMARK    3  A    between atoms: C_9  and  C_10
REMARK    4  A    between atoms: C_14  and  C_15
REMARK                            x       y       z     vdW  Elec       q    Type
REMARK                         _______ _______ _______ _____ _____    ______ ____
ROOT
ATOM      1  C   UNL     1      44.766   6.525  12.409  0.00  0.00    +0.000 C 
ENDROOT
BRANCH   1   6
ATOM      2  C   UNL     1      49.722   7.928  12.753  0.00  0.00    +0.000 A 
ATOM      3  C   UNL     1      48.813   8.067  11.712  0.00  0.00    +0.000 A 
ATOM      4  C   UNL     1      47.506   7.614  11.886  0.00  0.00    +0.000 A 
ATOM      5  C   UNL     1      47.131   7.019  13.086  0.00  0.00    +0.000 A 
ATOM      6  N   UNL     1      45.864   6.571  13.344  0.00  0.00    +0.000 N 
ATOM      7  N   UNL     1      48.014   6.847  14.087  0.00  0.00    +0.000 NA
ATOM      8  C   UNL     1      49.286   7.295  13.906  0.00  0.00    +0.000 A 
ATOM      9  H   UNL     1      45.788   6.060  14.215  0.00  0.00    +0.000 HD
BRANCH   2  11
ATOM     10  N   UNL     1      52.015   7.872  13.542  0.00  0.00    +0.000 N 
ATOM     11  C   UNL     1      51.113   8.413  12.667  0.00  0.00    +0.000 C 
ATOM     12  O   UNL     1      51.457   9.234  11.828  0.00  0.00    +0.000 OA
ATOM     13  H   UNL     1      52.984   8.135  13.411  0.00  0.00    +0.000 HD
ATOM     14  H   UNL     1      51.829   7.031  14.070  0.00  0.00    +0.000 HD
ENDBRANCH   2  11
ENDBRANCH   1   6
BRANCH   1  15
ATOM     15  C   UNL     1      44.525   5.166  11.784  0.00  0.00    +0.000 A 
ATOM     16  C   UNL     1      43.555   4.331  12.355  0.00  0.00    +0.000 A 
ATOM     17  C   UNL     1      43.273   3.087  11.797  0.00  0.00    +0.000 A 
ATOM     18  C   UNL     1      43.949   2.664  10.649  0.00  0.00    +0.000 A 
ATOM     19  C   UNL     1      44.920   3.473  10.037  0.00  0.00    +0.000 A 
ATOM     20  C   UNL     1      45.208   4.710  10.643  0.00  0.00    +0.000 A 
BRANCH  19  21
ATOM     21  C   UNL     1      45.581   3.072   8.778  0.00  0.00    +0.000 A 
ATOM     22  C   UNL     1      45.914   4.009   7.789  0.00  0.00    +0.000 A 
ATOM     23  N   UNL     1      46.553   3.728   6.622  0.00  0.00    +0.000 NA
ATOM     24  C   UNL     1      46.898   2.436   6.427  0.00  0.00    +0.000 A 
ATOM     25  C   UNL     1      46.623   1.433   7.334  0.00  0.00    +0.000 A 
ATOM     26  F   UNL     1      46.997   0.171   7.089  0.00  0.00    +0.000 F 
ATOM     27  C   UNL     1      45.958   1.747   8.514  0.00  0.00    +0.000 A 
ENDBRANCH  19  21
ENDBRANCH   1  15
TORSDOF 4
ENDMDL
MODEL 4
REMARK VINA RESULT:    -7.583      3.524      7.232
REMARK INTER + INTRA:         -10.006
REMARK INTER:                  -9.698
REMARK INTRA:                  -0.308
REMARK UNBOUND:                -0.650
REMARK  Name = 
REMARK  4 active torsions:
REMARK  status: ('A' for Active; 'I' for Inactive)
REMARK    1  A    between atoms: C_2  and  C_4
REMARK    2  A    between atoms: N_8  and  C_9
REMARK    3  A    between atoms: C_9  and  C_10
REMARK    4  A    between atoms: C_14  and  C_15
REMARK                            x       y       z     vdW  Elec       q    Type
REMARK                         _______ _______ _______ _____ _____    ______ ____
ROOT
ATOM      1  C   UNL     1      43.054   6.536  11.355  0.00  0.00    +0.000 C 
ENDROOT
BRANCH   1   6
ATOM      2  C   UNL     1      47.716   7.387  13.403  0.00  0.00    +0.000 A 
ATOM      3  C   UNL     1      46.855   6.303  13.531  0.00  0.00    +0.000 A 
ATOM      4  C   UNL     1      45.642   6.314  12.844  0.00  0.00    +0.000 A 
ATOM      5  C   UNL     1      45.300   7.407  12.055  0.00  0.00    +0.000 A 
ATOM      6  N   UNL     1      44.141   7.484  11.331  0.00  0.00    +0.000 N 
ATOM      7  N   UNL     1      46.111   8.477  11.955  0.00  0.00    +0.000 NA
ATOM      8  C   UNL     1      47.293   8.455  12.628  0.00  0.00    +0.000 A 
ATOM      9  H   UNL     1      43.993   8.391  10.908  0.00  0.00    +0.000 HD
BRANCH   2  11
ATOM     10  N   UNL     1      49.783   8.568  13.867  0.00  0.00    +0.000 N 
ATOM     11  C   UNL     1      49.034   7.441  14.065  0.00  0.00    +0.000 C 
ATOM     12  O   UNL     1      49.426   6.537  14.790  0.00  0.00    +0.000 OA
ATOM     13  H   UNL     1      50.638   8.641  14.402  0.00  0.00    +0.000 HD
ATOM     14  H   UNL     1      49.398   9.422  13.488  0.00  0.00    +0.000 HD
ENDBRANCH   2  11
ENDBRANCH   1   6
BRANCH   1  15
ATOM     15  C   UNL     1      43.465   5.098  11.112  0.00  0.00    +0.000 A 
ATOM     16  C   UNL     1      42.956   4.105  11.959  0.00  0.00    +0.000 A 
ATOM     17  C   UNL     1      43.277   2.766  11.755  0.00  0.00    +0.000 A 
ATOM     18  C   UNL     1      44.103   2.398  10.690  0.00  0.00    +0.000 A 
ATOM     19  C   UNL     1      44.626   3.358   9.808  0.00  0.00    +0.000 A 
ATOM     20  C   UNL     1      44.312   4.706  10.060  0.00  0.00    +0.000 A 
BRANCH  19  21
ATOM     21  C   UNL     1      45.432   2.973   8.631  0.00  0.00    +0.000 A 
ATOM     22  C   UNL     1      45.810   3.908   7.658  0.00  0.00    +0.000 A 
ATOM     23  N   UNL     1      46.577   3.643   6.567  0.00  0.00    +0.000 NA
ATOM     24  C   UNL     1      47.012   2.370   6.439  0.00  0.00    +0.000 A 
ATOM     25  C   UNL     1      46.704   1.370   7.339  0.00  0.00    +0.000 A 
ATOM     26  F   UNL     1      47.172   0.128   7.164  0.00  0.00    +0.000 F 
ATOM     27  C   UNL     1      45.908   1.667   8.439  0.00  0.00    +0.000 A 
ENDBRANCH  19  21
ENDBRANCH   1  15
TORSDOF 4
ENDMDL
MODEL 5
REMARK VINA RESULT:    -7.520      3.819      8.151
REMARK INTER + INTRA:          -9.929
REMARK INTER:                  -9.486
REMARK INTRA:                  -0.443
REMARK UNBOUND:                -0.650
REMARK  Name = 
REMARK  4 active torsions:
REMARK  status: ('A' for Active; 'I' for Inactive)
REMARK    1  A    between atoms: C_2  and  C_4
REMARK    2  A    between atoms: N_8  and  C_9
REMARK    3  A    between atoms: C_9  and  C_10
REMARK    4  A    between atoms: C_14  and  C_15
REMARK                            x       y       z     vdW  Elec       q    Type
REMARK                         _______ _______ _______ _____ _____    ______ ____
ROOT
ATOM      1  C   UNL     1      45.951   5.491  13.911  0.00  0.00    +0.000 C 
ENDROOT
BRANCH   1   6
ATOM      2  C   UNL     1      49.422   4.247  17.525  0.00  0.00    +0.000 A 
ATOM      3  C   UNL     1      49.123   5.472  16.940  0.00  0.00    +0.000 A 
ATOM      4  C   UNL     1      48.108   5.540  15.987  0.00  0.00    +0.000 A 
ATOM      5  C   UNL     1      47.420   4.389  15.621  0.00  0.00    +0.000 A 
ATOM      6  N   UNL     1      46.397   4.376  14.712  0.00  0.00    +0.000 N 
ATOM      7  N   UNL     1      47.728   3.192  16.154  0.00  0.00    +0.000 NA
ATOM      8  C   UNL     1      48.718   3.137  17.085  0.00  0.00    +0.000 A 
ATOM      9  H   UNL     1      46.085   3.443  14.472  0.00  0.00    +0.000 HD
BRANCH   2  11
ATOM     10  N   UNL     1      51.399   3.122  18.368  0.00  0.00    +0.000 N 
ATOM     11  C   UNL     1      50.454   4.091  18.568  0.00  0.00    +0.000 C 
ATOM     12  O   UNL     1      50.489   4.819  19.550  0.00  0.00    +0.000 OA
ATOM     13  H   UNL     1      52.159   3.088  19.036  0.00  0.00    +0.000 HD
ATOM     14  H   UNL     1      51.547   2.679  17.472  0.00  0.00    +0.000 HD
ENDBRANCH   2  11
ENDBRANCH   1   6
BRANCH   1  15
ATOM     15  C   UNL     1      45.079   5.111  12.731  0.00  0.00    +0.000 A 
ATOM     16  C   UNL     1      43.725   5.470  12.758  0.00  0.00    +0.000 A 
ATOM     17  C   UNL     1      42.891   5.175  11.683  0.00  0.00    +0.000 A 
ATOM     18  C   UNL     1      43.404   4.526  10.556  0.00  0.00    +0.000 A 
ATOM     19  C   UNL     1      44.758   4.159  10.481  0.00  0.00    +0.000 A 
ATOM     20  C   UNL     1      45.567   4.440  11.597  0.00  0.00    +0.000 A 
BRANCH  19  21
ATOM     21  C   UNL     1      45.328   3.548   9.263  0.00  0.00    +0.000 A 
ATOM     22  C   UNL     1      45.754   4.326   8.177  0.00  0.00    +0.000 A 
ATOM     23  N   UNL     1      46.320   3.846   7.038  0.00  0.00    +0.000 NA
ATOM     24  C   UNL     1      46.490   2.506   6.975  0.00  0.00    +0.000 A 
ATOM     25  C   UNL     1      46.112   1.647   7.987  0.00  0.00    +0.000 A 
ATOM     26  F   UNL     1      46.314   0.328   7.871  0.00  0.00    +0.000 F 
ATOM     27  C   UNL     1      45.524   2.165   9.135  0.00  0.00    +0.000 A 
ENDBRANCH  19  21
ENDBRANCH   1  15
TORSDOF 4
ENDMDL
MODEL 6
REMARK VINA RESULT:    -6.995      3.610      7.755
REMARK INTER + INTRA:          -9.280
REMARK INTER:                  -9.281
REMARK INTRA:                   0.001
REMARK UNBOUND:                -0.650
REMARK  Name = 
REMARK  4 active torsions:
REMARK  status: ('A' for Active; 'I' for Inactive)
REMARK    1  A    between atoms: C_2  and  C_4
REMARK    2  A    between atoms: N_8  and  C_9
REMARK    3  A    between atoms: C_9  and  C_10
REMARK    4  A    between atoms: C_14  and  C_15
REMARK                            x       y       z     vdW  Elec       q    Type
REMARK                         _______ _______ _______ _____ _____    ______ ____
ROOT
ATOM      1  C   UNL     1      48.681   7.866  12.518  0.00  0.00    +0.000 C 
ENDROOT
BRANCH   1   6
ATOM      2  C   UNL     1      47.730   4.828  16.583  0.00  0.00    +0.000 A 
ATOM      3  C   UNL     1      47.384   4.684  15.245  0.00  0.00    +0.000 A 
ATOM      4  C   UNL     1      47.789   5.655  14.330  0.00  0.00    +0.000 A 
ATOM      5  C   UNL     1      48.517   6.757  14.763  0.00  0.00    +0.000 A 
ATOM      6  N   UNL     1      48.972   7.741  13.926  0.00  0.00    +0.000 N 
ATOM      7  N   UNL     1      48.826   6.924  16.063  0.00  0.00    +0.000 NA
ATOM      8  C   UNL     1      48.427   5.970  16.946  0.00  0.00    +0.000 A 
ATOM      9  H   UNL     1      49.380   8.527  14.415  0.00  0.00    +0.000 HD
BRANCH   2  11
ATOM     10  N   UNL     1      47.949   3.976  18.843  0.00  0.00    +0.000 N 
ATOM     11  C   UNL     1      47.375   3.830  17.610  0.00  0.00    +0.000 C 
ATOM     12  O   UNL     1      46.574   2.933  17.385  0.00  0.00    +0.000 OA
ATOM     13  H   UNL     1      47.625   3.349  19.569  0.00  0.00    +0.000 HD
ATOM     14  H   UNL     1      48.411   4.826  19.135  0.00  0.00    +0.000 HD
ENDBRANCH   2  11
ENDBRANCH   1   6
BRANCH   1  15
ATOM     15  C   UNL     1      47.248   7.552  12.140  0.00  0.00    +0.000 A 
ATOM     16  C   UNL     1      46.255   8.494  12.442  0.00  0.00    +0.000 A 
ATOM     17  C   UNL     1      44.929   8.267  12.084  0.00  0.00    +0.000 A 
ATOM     18  C   UNL     1      44.578   7.099  11.404  0.00  0.00    +0.000 A 
ATOM     19  C   UNL     1      45.541   6.133  11.069  0.00  0.00    +0.000 A 
ATOM     20  C   UNL     1      46.866   6.374  11.475  0.00  0.00    +0.000 A 
BRANCH  19  21
ATOM     21  C   UNL     1      45.195   4.934  10.278  0.00  0.00    +0.000 A 
ATOM     22  C   UNL     1      44.388   3.914  10.800  0.00  0.00    +0.000 A 
ATOM     23  N   UNL     1      43.996   2.799  10.128  0.00  0.00    +0.000 NA
ATOM     24  C   UNL     1      44.418   2.693   8.849  0.00  0.00    +0.000 A 
ATOM     25  C   UNL     1      45.212   3.640   8.233  0.00  0.00    +0.000 A 
ATOM     26  F   UNL     1      45.592   3.485   6.958  0.00  0.00    +0.000 F 
ATOM     27  C   UNL     1      45.607   4.764   8.948  0.00  0.00    +0.000 A 
ENDBRANCH  19  21
ENDBRANCH   1  15
TORSDOF 4
ENDMDL
MODEL 7
REMARK VINA RESULT:    -6.896      4.135      8.423
REMARK INTER + INTRA:          -9.158
REMARK INTER:                  -8.490
REMARK INTRA:                  -0.668
REMARK UNBOUND:                -0.650
REMARK  Name = 
REMARK  4 active torsions:
REMARK  status: ('A' for Active; 'I' for Inactive)
REMARK    1  A    between atoms: C_2  and  C_4
REMARK    2  A    between atoms: N_8  and  C_9
REMARK    3  A    between atoms: C_9  and  C_10
REMARK    4  A    between atoms: C_14  and  C_15
REMARK                            x       y       z     vdW  Elec       q    Type
REMARK                         _______ _______ _______ _____ _____    ______ ____
ROOT
ATOM      1  C   UNL     1      47.567   4.081  16.851  0.00  0.00    +0.000 C 
ENDROOT
BRANCH   1   6
ATOM      2  C   UNL     1      52.317   2.323  17.850  0.00  0.00    +0.000 A 
ATOM      3  C   UNL     1      51.743   3.566  18.091  0.00  0.00    +0.000 A 
ATOM      4  C   UNL     1      50.411   3.779  17.736  0.00  0.00    +0.000 A 
ATOM      5  C   UNL     1      49.680   2.759  17.137  0.00  0.00    +0.000 A 
ATOM      6  N   UNL     1      48.364   2.880  16.782  0.00  0.00    +0.000 N 
ATOM      7  N   UNL     1      50.239   1.565  16.866  0.00  0.00    +0.000 NA
ATOM      8  C   UNL     1      51.538   1.367  17.218  0.00  0.00    +0.000 A 
ATOM      9  H   UNL     1      48.017   2.090  16.252  0.00  0.00    +0.000 HD
BRANCH   2  11
ATOM     10  N   UNL     1      54.035   2.114  19.550  0.00  0.00    +0.000 N 
ATOM     11  C   UNL     1      53.707   2.001  18.227  0.00  0.00    +0.000 C 
ATOM     12  O   UNL     1      54.523   1.614  17.401  0.00  0.00    +0.000 OA
ATOM     13  H   UNL     1      54.959   1.796  19.815  0.00  0.00    +0.000 HD
ATOM     14  H   UNL     1      53.341   2.188  20.281  0.00  0.00    +0.000 HD
ENDBRANCH   2  11
ENDBRANCH   1   6
BRANCH   1  15
ATOM     15  C   UNL     1      47.451   4.837  15.543  0.00  0.00    +0.000 A 
ATOM     16  C   UNL     1      48.324   5.909  15.311  0.00  0.00    +0.000 A 
ATOM     17  C   UNL     1      48.280   6.612  14.110  0.00  0.00    +0.000 A 
ATOM     18  C   UNL     1      47.370   6.245  13.116  0.00  0.00    +0.000 A 
ATOM     19  C   UNL     1      46.485   5.169  13.299  0.00  0.00    +0.000 A 
ATOM     20  C   UNL     1      46.529   4.500  14.536  0.00  0.00    +0.000 A 
BRANCH  19  21
ATOM     21  C   UNL     1      45.577   4.720  12.224  0.00  0.00    +0.000 A 
ATOM     22  C   UNL     1      45.584   5.316  10.955  0.00  0.00    +0.000 A 
ATOM     23  N   UNL     1      44.807   4.940   9.905  0.00  0.00    +0.000 NA
ATOM     24  C   UNL     1      43.979   3.894  10.119  0.00  0.00    +0.000 A 
ATOM     25  C   UNL     1      43.894   3.231  11.327  0.00  0.00    +0.000 A 
ATOM     26  F   UNL     1      43.059   2.194  11.478  0.00  0.00    +0.000 F 
ATOM     27  C   UNL     1      44.691   3.645  12.388  0.00  0.00    +0.000 A 
ENDBRANCH  19  21
ENDBRANCH   1  15
TORSDOF 4
ENDMDL
MODEL 8
REMARK VINA RESULT:    -6.354      4.630      6.023
REMARK INTER + INTRA:          -8.490
REMARK INTER:                  -7.872
REMARK INTRA:                  -0.618
REMARK UNBOUND:                -0.650
REMARK  Name = 
REMARK  4 active torsions:
REMARK  status: ('A' for Active; 'I' for Inactive)
REMARK    1  A    between atoms: C_2  and  C_4
REMARK    2  A    between atoms: N_8  and  C_9
REMARK    3  A    between atoms: C_9  and  C_10
REMARK    4  A    between atoms: C_14  and  C_15
REMARK                            x       y       z     vdW  Elec       q    Type
REMARK                         _______ _______ _______ _____ _____    ______ ____
ROOT
ATOM      1  C   UNL     1      46.275   8.556  13.283  0.00  0.00    +0.000 C 
ENDROOT
BRANCH   1   6
ATOM      2  C   UNL     1      44.232   4.174  11.475  0.00  0.00    +0.000 A 
ATOM      3  C   UNL     1      45.364   4.392  12.251  0.00  0.00    +0.000 A 
ATOM      4  C   UNL     1      45.690   5.694  12.627  0.00  0.00    +0.000 A 
ATOM      5  C   UNL     1      44.893   6.756  12.213  0.00  0.00    +0.000 A 
ATOM      6  N   UNL     1      45.130   8.059  12.559  0.00  0.00    +0.000 N 
ATOM      7  N   UNL     1      43.816   6.558  11.431  0.00  0.00    +0.000 NA
ATOM      8  C   UNL     1      43.506   5.284  11.072  0.00  0.00    +0.000 A 
ATOM      9  H   UNL     1      44.528   8.717  12.080  0.00  0.00    +0.000 HD
BRANCH   2  11
ATOM     10  N   UNL     1      44.447   2.256  10.006  0.00  0.00    +0.000 N 
ATOM     11  C   UNL     1      43.795   2.825  11.064  0.00  0.00    +0.000 C 
ATOM     12  O   UNL     1      42.913   2.225  11.664  0.00  0.00    +0.000 OA
ATOM     13  H   UNL     1      44.211   1.295   9.794  0.00  0.00    +0.000 HD
ATOM     14  H   UNL     1      45.326   2.608   9.651  0.00  0.00    +0.000 HD
ENDBRANCH   2  11
ENDBRANCH   1   6
BRANCH   1  15
ATOM     15  C   UNL     1      47.292   9.288  12.431  0.00  0.00    +0.000 A 
ATOM     16  C   UNL     1      46.942  10.534  11.894  0.00  0.00    +0.000 A 
ATOM     17  C   UNL     1      47.854  11.260  11.134  0.00  0.00    +0.000 A 
ATOM     18  C   UNL     1      49.137  10.757  10.909  0.00  0.00    +0.000 A 
ATOM     19  C   UNL     1      49.536   9.518  11.438  0.00  0.00    +0.000 A 
ATOM     20  C   UNL     1      48.582   8.791  12.173  0.00  0.00    +0.000 A 
BRANCH  19  21
ATOM     21  C   UNL     1      50.916   9.014  11.277  0.00  0.00    +0.000 A 
ATOM     22  C   UNL     1      52.022   9.724  11.764  0.00  0.00    +0.000 A 
ATOM     23  N   UNL     1      53.316   9.314  11.687  0.00  0.00    +0.000 NA
ATOM     24  C   UNL     1      53.528   8.114  11.103  0.00  0.00    +0.000 A 
ATOM     25  C   UNL     1      52.513   7.330  10.593  0.00  0.00    +0.000 A 
ATOM     26  F   UNL     1      52.785   6.144  10.032  0.00  0.00    +0.000 F 
ATOM     27  C   UNL     1      51.201   7.780  10.674  0.00  0.00    +0.000 A 
ENDBRANCH  19  21
ENDBRANCH   1  15
TORSDOF 4
ENDMDL
MODEL 9
REMARK VINA RESULT:    -6.166      4.500      8.545
REMARK INTER + INTRA:          -8.257
REMARK INTER:                  -7.509
REMARK INTRA:                  -0.748
REMARK UNBOUND:                -0.650
REMARK  Name = 
REMARK  4 active torsions:
REMARK  status: ('A' for Active; 'I' for Inactive)
REMARK    1  A    between atoms: C_2  and  C_4
REMARK    2  A    between atoms: N_8  and  C_9
REMARK    3  A    between atoms: C_9  and  C_10
REMARK    4  A    between atoms: C_14  and  C_15
REMARK                            x       y       z     vdW  Elec       q    Type
REMARK                         _______ _______ _______ _____ _____    ______ ____
ROOT
ATOM      1  C   UNL     1      49.196   8.128  14.368  0.00  0.00    +0.000 C 
ENDROOT
BRANCH   1   6
ATOM      2  C   UNL     1      48.673   5.399  18.719  0.00  0.00    +0.000 A 
ATOM      3  C   UNL     1      48.908   4.984  17.414  0.00  0.00    +0.000 A 
ATOM      4  C   UNL     1      49.030   5.942  16.408  0.00  0.00    +0.000 A 
ATOM      5  C   UNL     1      48.902   7.292  16.716  0.00  0.00    +0.000 A 
ATOM      6  N   UNL     1      49.032   8.294  15.792  0.00  0.00    +0.000 N 
ATOM      7  N   UNL     1      48.637   7.701  17.971  0.00  0.00    +0.000 NA
ATOM      8  C   UNL     1      48.522   6.758  18.944  0.00  0.00    +0.000 A 
ATOM      9  H   UNL     1      48.793   9.208  16.156  0.00  0.00    +0.000 HD
BRANCH   2  11
ATOM     10  N   UNL     1      48.483   3.124  19.541  0.00  0.00    +0.000 N 
ATOM     11  C   UNL     1      48.567   4.455  19.848  0.00  0.00    +0.000 C 
ATOM     12  O   UNL     1      48.591   4.838  21.010  0.00  0.00    +0.000 OA
ATOM     13  H   UNL     1      48.511   2.479  20.320  0.00  0.00    +0.000 HD
ATOM     14  H   UNL     1      48.706   2.759  18.626  0.00  0.00    +0.000 HD
ENDBRANCH   2  11
ENDBRANCH   1   6
BRANCH   1  15
ATOM     15  C   UNL     1      47.899   8.036  13.590  0.00  0.00    +0.000 A 
ATOM     16  C   UNL     1      47.272   9.225  13.193  0.00  0.00    +0.000 A 
ATOM     17  C   UNL     1      46.097   9.191  12.446  0.00  0.00    +0.000 A 
ATOM     18  C   UNL     1      45.538   7.966  12.074  0.00  0.00    +0.000 A 
ATOM     19  C   UNL     1      46.139   6.750  12.439  0.00  0.00    +0.000 A 
ATOM     20  C   UNL     1      47.306   6.815  13.223  0.00  0.00    +0.000 A 
BRANCH  19  21
ATOM     21  C   UNL     1      45.602   5.452  11.981  0.00  0.00    +0.000 A 
ATOM     22  C   UNL     1      45.551   4.335  12.827  0.00  0.00    +0.000 A 
ATOM     23  N   UNL     1      45.043   3.119  12.495  0.00  0.00    +0.000 NA
ATOM     24  C   UNL     1      44.537   3.004  11.247  0.00  0.00    +0.000 A 
ATOM     25  C   UNL     1      44.531   4.039  10.334  0.00  0.00    +0.000 A 
ATOM     26  F   UNL     1      44.008   3.868   9.113  0.00  0.00    +0.000 F 
ATOM     27  C   UNL     1      45.069   5.269  10.697  0.00  0.00    +0.000 A 
ENDBRANCH  19  21
ENDBRANCH   1  15
TORSDOF 4
ENDMDL
