MODEL 1
REMARK VINA RESULT:    -6.454      0.000      0.000
REMARK INTER + INTRA:          -9.419
REMARK INTER:                  -8.718
REMARK INTRA:                  -0.701
REMARK UNBOUND:                -0.701
REMARK  Name = 
REMARK  9 active torsions:
REMARK  status: ('A' for Active; 'I' for Inactive)
REMARK    1  A    between atoms: C_1  and  O_2
REMARK    2  A    between atoms: O_2  and  C_3
REMARK    3  A    between atoms: N_10  and  C_11
REMARK    4  A    between atoms: C_11  and  C_12
REMARK    5  A    between atoms: C_15  and  C_16
REMARK    6  A    between atoms: C_16  and  C_17
REMARK    7  A    between atoms: C_17  and  N_18
REMARK    8  A    between atoms: N_18  and  C_19
REMARK    9  A    between atoms: N_18  and  C_20
REMARK                            x       y       z     vdW  Elec       q    Type
REMARK                         _______ _______ _______ _____ _____    ______ ____
ROOT
ATOM      1  C   UNL     1      44.191   5.878  12.395  0.00  0.00    +0.000 C 
ENDROOT
BRANCH   1   9
ATOM      2  C   UNL     1      45.629   3.557   7.893  0.00  0.00    +0.000 A 
ATOM      3  C   UNL     1      46.032   4.805   8.362  0.00  0.00    +0.000 A 
ATOM      4  C   UNL     1      45.640   5.264   9.630  0.00  0.00    +0.000 A 
ATOM      5  C   UNL     1      44.836   4.430  10.422  0.00  0.00    +0.000 A 
ATOM      6  C   UNL     1      44.426   3.170   9.972  0.00  0.00    +0.000 A 
ATOM      7  C   UNL     1      43.634   2.589  10.997  0.00  0.00    +0.000 A 
ATOM      8  C   UNL     1      43.558   3.492  12.032  0.00  0.00    +0.000 A 
ATOM      9  N   UNL     1      44.270   4.613  11.673  0.00  0.00    +0.000 N 
ATOM     10  C   UNL     1      44.815   2.743   8.687  0.00  0.00    +0.000 A 
BRANCH   2  12
ATOM     11  C   UNL     1      47.074   2.203   6.600  0.00  0.00    +0.000 C 
ATOM     12  O   UNL     1      45.927   3.042   6.659  0.00  0.00    +0.000 OA
ENDBRANCH   2  12
ENDBRANCH   1   9
BRANCH   1  13
ATOM     13  C   UNL     1      45.482   6.344  13.000  0.00  0.00    +0.000 A 
ATOM     14  C   UNL     1      45.900   7.676  12.928  0.00  0.00    +0.000 A 
ATOM     15  C   UNL     1      47.202   8.019  13.299  0.00  0.00    +0.000 A 
ATOM     16  C   UNL     1      48.057   7.016  13.745  0.00  0.00    +0.000 A 
ATOM     17  N   UNL     1      47.649   5.734  13.898  0.00  0.00    +0.000 NA
ATOM     18  C   UNL     1      46.381   5.433  13.537  0.00  0.00    +0.000 A 
BRANCH  16  19
ATOM     19  C   UNL     1      49.528   7.285  13.960  0.00  0.00    +0.000 C 
BRANCH  19  20
ATOM     20  C   UNL     1      49.816   7.432  15.466  0.00  0.00    +0.000 C 
BRANCH  20  21
ATOM     21  N   UNL     1      50.319   6.209  16.132  0.00  0.00    +0.000 NA
ATOM     22  C   UNL     1      51.609   6.438  16.788  0.00  0.00    +0.000 C 
ATOM     23  C   UNL     1      49.343   5.761  17.134  0.00  0.00    +0.000 C 
ENDBRANCH  20  21
ENDBRANCH  19  20
ENDBRANCH  16  19
ENDBRANCH   1  13
TORSDOF 6
ENDMDL
MODEL 2
REMARK VINA RESULT:    -6.376      2.060      2.581
REMARK INTER + INTRA:          -9.313
REMARK INTER:                  -8.554
REMARK INTRA:                  -0.759
REMARK UNBOUND:                -0.701
REMARK  Name = 
REMARK  9 active torsions:
REMARK  status: ('A' for Active; 'I' for Inactive)
REMARK    1  A    between atoms: C_1  and  O_2
REMARK    2  A    between atoms: O_2  and  C_3
REMARK    3  A    between atoms: N_10  and  C_11
REMARK    4  A    between atoms: C_11  and  C_12
REMARK    5  A    between atoms: C_15  and  C_16
REMARK    6  A    between atoms: C_16  and  C_17
REMARK    7  A    between atoms: C_17  and  N_18
REMARK    8  A    between atoms: N_18  and  C_19
REMARK    9  A    between atoms: N_18  and  C_20
REMARK                            x       y       z     vdW  Elec       q    Type
REMARK                         _______ _______ _______ _____ _____    ______ ____
ROOT
ATOM      1  C   UNL     1      43.577   5.910  11.215  0.00  0.00    +0.000 C 
ENDROOT
BRANCH   1   9
ATOM      2  C   UNL     1      46.007   2.572   7.947  0.00  0.00    +0.000 A 
ATOM      3  C   UNL     1      46.163   3.955   8.006  0.00  0.00    +0.000 A 
ATOM      4  C   UNL     1      45.517   4.716   8.993  0.00  0.00    +0.000 A 
ATOM      5  C   UNL     1      44.713   4.048   9.930  0.00  0.00    +0.000 A 
ATOM      6  C   UNL     1      44.548   2.659   9.892  0.00  0.00    +0.000 A 
ATOM      7  C   UNL     1      43.686   2.303  10.963  0.00  0.00    +0.000 A 
ATOM      8  C   UNL     1      43.328   3.460  11.615  0.00  0.00    +0.000 A 
ATOM      9  N   UNL     1      43.935   4.517  10.977  0.00  0.00    +0.000 N 
ATOM     10  C   UNL     1      45.189   1.922   8.877  0.00  0.00    +0.000 A 
BRANCH   2  12
ATOM     11  C   UNL     1      47.911   2.040   6.648  0.00  0.00    +0.000 C 
ATOM     12  O   UNL     1      46.562   1.753   7.000  0.00  0.00    +0.000 OA
ENDBRANCH   2  12
ENDBRANCH   1   9
BRANCH   1  13
ATOM     13  C   UNL     1      44.626   6.722  11.916  0.00  0.00    +0.000 A 
ATOM     14  C   UNL     1      44.822   8.080  11.644  0.00  0.00    +0.000 A 
ATOM     15  C   UNL     1      45.947   8.736  12.146  0.00  0.00    +0.000 A 
ATOM     16  C   UNL     1      46.851   8.017  12.922  0.00  0.00    +0.000 A 
ATOM     17  N   UNL     1      46.641   6.723  13.263  0.00  0.00    +0.000 NA
ATOM     18  C   UNL     1      45.538   6.115  12.768  0.00  0.00    +0.000 A 
BRANCH  16  19
ATOM     19  C   UNL     1      48.184   8.609  13.316  0.00  0.00    +0.000 C 
BRANCH  19  20
ATOM     20  C   UNL     1      49.323   7.826  12.637  0.00  0.00    +0.000 C 
BRANCH  20  21
ATOM     21  N   UNL     1      49.883   8.459  11.422  0.00  0.00    +0.000 NA
ATOM     22  C   UNL     1      49.679   9.910  11.422  0.00  0.00    +0.000 C 
ATOM     23  C   UNL     1      51.323   8.176  11.343  0.00  0.00    +0.000 C 
ENDBRANCH  20  21
ENDBRANCH  19  20
ENDBRANCH  16  19
ENDBRANCH   1  13
TORSDOF 6
ENDMDL
MODEL 3
REMARK VINA RESULT:    -6.283      2.966      7.208
REMARK INTER + INTRA:          -9.188
REMARK INTER:                  -8.403
REMARK INTRA:                  -0.784
REMARK UNBOUND:                -0.701
REMARK  Name = 
REMARK  9 active torsions:
REMARK  status: ('A' for Active; 'I' for Inactive)
REMARK    1  A    between atoms: C_1  and  O_2
REMARK    2  A    between atoms: O_2  and  C_3
REMARK    3  A    between atoms: N_10  and  C_11
REMARK    4  A    between atoms: C_11  and  C_12
REMARK    5  A    between atoms: C_15  and  C_16
REMARK    6  A    between atoms: C_16  and  C_17
REMARK    7  A    between atoms: C_17  and  N_18
REMARK    8  A    between atoms: N_18  and  C_19
REMARK    9  A    between atoms: N_18  and  C_20
REMARK                            x       y       z     vdW  Elec       q    Type
REMARK                         _______ _______ _______ _____ _____    ______ ____
ROOT
ATOM      1  C   UNL     1      44.431   5.355  13.035  0.00  0.00    +0.000 C 
ENDROOT
BRANCH   1   9
ATOM      2  C   UNL     1      47.149   9.773  12.133  0.00  0.00    +0.000 A 
ATOM      3  C   UNL     1      45.771   9.599  12.036  0.00  0.00    +0.000 A 
ATOM      4  C   UNL     1      45.166   8.384  12.396  0.00  0.00    +0.000 A 
ATOM      5  C   UNL     1      45.985   7.345  12.866  0.00  0.00    +0.000 A 
ATOM      6  C   UNL     1      47.371   7.501  12.977  0.00  0.00    +0.000 A 
ATOM      7  C   UNL     1      47.899   6.282  13.476  0.00  0.00    +0.000 A 
ATOM      8  C   UNL     1      46.850   5.408  13.642  0.00  0.00    +0.000 A 
ATOM      9  N   UNL     1      45.695   6.047  13.254  0.00  0.00    +0.000 N 
ATOM     10  C   UNL     1      47.955   8.724  12.588  0.00  0.00    +0.000 A 
BRANCH   2  12
ATOM     11  C   UNL     1      49.032  10.693  11.037  0.00  0.00    +0.000 C 
ATOM     12  O   UNL     1      47.831  10.904  11.770  0.00  0.00    +0.000 OA
ENDBRANCH   2  12
ENDBRANCH   1   9
BRANCH   1  13
ATOM     13  C   UNL     1      44.349   4.578  11.754  0.00  0.00    +0.000 A 
ATOM     14  C   UNL     1      44.789   3.255  11.655  0.00  0.00    +0.000 A 
ATOM     15  C   UNL     1      44.906   2.650  10.402  0.00  0.00    +0.000 A 
ATOM     16  C   UNL     1      44.568   3.384   9.270  0.00  0.00    +0.000 A 
ATOM     17  N   UNL     1      44.065   4.639   9.347  0.00  0.00    +0.000 NA
ATOM     18  C   UNL     1      43.956   5.197  10.575  0.00  0.00    +0.000 A 
BRANCH  16  19
ATOM     19  C   UNL     1      44.869   2.863   7.885  0.00  0.00    +0.000 C 
BRANCH  19  20
ATOM     20  C   UNL     1      46.233   3.399   7.412  0.00  0.00    +0.000 C 
BRANCH  20  21
ATOM     21  N   UNL     1      47.286   2.372   7.239  0.00  0.00    +0.000 NA
ATOM     22  C   UNL     1      46.804   1.034   7.595  0.00  0.00    +0.000 C 
ATOM     23  C   UNL     1      47.736   2.365   5.841  0.00  0.00    +0.000 C 
ENDBRANCH  20  21
ENDBRANCH  19  20
ENDBRANCH  16  19
ENDBRANCH   1  13
TORSDOF 6
ENDMDL
MODEL 4
REMARK VINA RESULT:    -6.101      3.179      7.314
REMARK INTER + INTRA:          -8.942
REMARK INTER:                  -8.363
REMARK INTRA:                  -0.578
REMARK UNBOUND:                -0.701
REMARK  Name = 
REMARK  9 active torsions:
REMARK  status: ('A' for Active; 'I' for Inactive)
REMARK    1  A    between atoms: C_1  and  O_2
REMARK    2  A    between atoms: O_2  and  C_3
REMARK    3  A    between atoms: N_10  and  C_11
REMARK    4  A    between atoms: C_11  and  C_12
REMARK    5  A    between atoms: C_15  and  C_16
REMARK    6  A    between atoms: C_16  and  C_17
REMARK    7  A    between atoms: C_17  and  N_18
REMARK    8  A    between atoms: N_18  and  C_19
REMARK    9  A    between atoms: N_18  and  C_20
REMARK                            x       y       z     vdW  Elec       q    Type
REMARK                         _______ _______ _______ _____ _____    ______ ____
ROOT
ATOM      1  C   UNL     1      45.338   6.374  12.870  0.00  0.00    +0.000 C 
ENDROOT
BRANCH   1   9
ATOM      2  C   UNL     1      49.845   8.953  12.005  0.00  0.00    +0.000 A 
ATOM      3  C   UNL     1      49.679   7.579  12.157  0.00  0.00    +0.000 A 
ATOM      4  C   UNL     1      48.401   7.014  12.293  0.00  0.00    +0.000 A 
ATOM      5  C   UNL     1      47.287   7.869  12.263  0.00  0.00    +0.000 A 
ATOM      6  C   UNL     1      47.433   9.252  12.104  0.00  0.00    +0.000 A 
ATOM      7  C   UNL     1      46.132   9.821  12.116  0.00  0.00    +0.000 A 
ATOM      8  C   UNL     1      45.229   8.800  12.297  0.00  0.00    +0.000 A 
ATOM      9  N   UNL     1      45.932   7.622  12.404  0.00  0.00    +0.000 N 
ATOM     10  C   UNL     1      48.728   9.794  11.993  0.00  0.00    +0.000 A 
BRANCH   2  12
ATOM     11  C   UNL     1      51.850   9.244  10.783  0.00  0.00    +0.000 C 
ATOM     12  O   UNL     1      51.050   9.597  11.906  0.00  0.00    +0.000 OA
ENDBRANCH   2  12
ENDBRANCH   1   9
BRANCH   1  13
ATOM     13  C   UNL     1      44.986   5.397  11.787  0.00  0.00    +0.000 A 
ATOM     14  C   UNL     1      44.345   4.184  12.057  0.00  0.00    +0.000 A 
ATOM     15  C   UNL     1      44.244   3.212  11.060  0.00  0.00    +0.000 A 
ATOM     16  C   UNL     1      44.782   3.481   9.806  0.00  0.00    +0.000 A 
ATOM     17  N   UNL     1      45.337   4.678   9.500  0.00  0.00    +0.000 NA
ATOM     18  C   UNL     1      45.414   5.603  10.483  0.00  0.00    +0.000 A 
BRANCH  16  19
ATOM     19  C   UNL     1      44.890   2.399   8.756  0.00  0.00    +0.000 C 
BRANCH  19  20
ATOM     20  C   UNL     1      45.885   2.833   7.663  0.00  0.00    +0.000 C 
BRANCH  20  21
ATOM     21  N   UNL     1      47.110   2.008   7.567  0.00  0.00    +0.000 NA
ATOM     22  C   UNL     1      46.803   0.575   7.579  0.00  0.00    +0.000 C 
ATOM     23  C   UNL     1      47.823   2.336   6.325  0.00  0.00    +0.000 C 
ENDBRANCH  20  21
ENDBRANCH  19  20
ENDBRANCH  16  19
ENDBRANCH   1  13
TORSDOF 6
ENDMDL
MODEL 5
REMARK VINA RESULT:    -6.015      1.888      2.996
REMARK INTER + INTRA:          -8.826
REMARK INTER:                  -8.296
REMARK INTRA:                  -0.529
REMARK UNBOUND:                -0.701
REMARK  Name = 
REMARK  9 active torsions:
REMARK  status: ('A' for Active; 'I' for Inactive)
REMARK    1  A    between atoms: C_1  and  O_2
REMARK    2  A    between atoms: O_2  and  C_3
REMARK    3  A    between atoms: N_10  and  C_11
REMARK    4  A    between atoms: C_11  and  C_12
REMARK    5  A    between atoms: C_15  and  C_16
REMARK    6  A    between atoms: C_16  and  C_17
REMARK    7  A    between atoms: C_17  and  N_18
REMARK    8  A    between atoms: N_18  and  C_19
REMARK    9  A    between atoms: N_18  and  C_20
REMARK                            x       y       z     vdW  Elec       q    Type
REMARK                         _______ _______ _______ _____ _____    ______ ____
ROOT
ATOM      1  C   UNL     1      44.209   3.057  11.056  0.00  0.00    +0.000 C 
ENDROOT
BRANCH   1   9
ATOM      2  C   UNL     1      47.140   1.745   6.884  0.00  0.00    +0.000 A 
ATOM      3  C   UNL     1      46.536   0.880   7.792  0.00  0.00    +0.000 A 
ATOM      4  C   UNL     1      45.701   1.366   8.811  0.00  0.00    +0.000 A 
ATOM      5  C   UNL     1      45.483   2.750   8.891  0.00  0.00    +0.000 A 
ATOM      6  C   UNL     1      46.076   3.636   7.985  0.00  0.00    +0.000 A 
ATOM      7  C   UNL     1      45.658   4.947   8.335  0.00  0.00    +0.000 A 
ATOM      8  C   UNL     1      44.846   4.847   9.441  0.00  0.00    +0.000 A 
ATOM      9  N   UNL     1      44.757   3.519   9.787  0.00  0.00    +0.000 N 
ATOM     10  C   UNL     1      46.927   3.124   6.985  0.00  0.00    +0.000 A 
BRANCH   2  12
ATOM     11  C   UNL     1      48.201   2.327   4.851  0.00  0.00    +0.000 C 
ATOM     12  O   UNL     1      47.998   1.370   5.884  0.00  0.00    +0.000 OA
ENDBRANCH   2  12
ENDBRANCH   1   9
BRANCH   1  13
ATOM     13  C   UNL     1      44.915   3.573  12.276  0.00  0.00    +0.000 A 
ATOM     14  C   UNL     1      44.632   4.827  12.825  0.00  0.00    +0.000 A 
ATOM     15  C   UNL     1      45.464   5.359  13.812  0.00  0.00    +0.000 A 
ATOM     16  C   UNL     1      46.561   4.616  14.236  0.00  0.00    +0.000 A 
ATOM     17  N   UNL     1      46.808   3.367  13.775  0.00  0.00    +0.000 NA
ATOM     18  C   UNL     1      45.982   2.874  12.825  0.00  0.00    +0.000 A 
BRANCH  16  19
ATOM     19  C   UNL     1      47.609   5.220  15.141  0.00  0.00    +0.000 C 
BRANCH  19  20
ATOM     20  C   UNL     1      47.822   4.313  16.368  0.00  0.00    +0.000 C 
BRANCH  20  21
ATOM     21  N   UNL     1      49.237   4.026  16.698  0.00  0.00    +0.000 NA
ATOM     22  C   UNL     1      49.869   5.148  17.398  0.00  0.00    +0.000 C 
ATOM     23  C   UNL     1      49.307   2.829  17.546  0.00  0.00    +0.000 C 
ENDBRANCH  20  21
ENDBRANCH  19  20
ENDBRANCH  16  19
ENDBRANCH   1  13
TORSDOF 6
ENDMDL
MODEL 6
REMARK VINA RESULT:    -5.783      4.008      8.849
REMARK INTER + INTRA:          -8.512
REMARK INTER:                  -7.844
REMARK INTRA:                  -0.668
REMARK UNBOUND:                -0.701
REMARK  Name = 
REMARK  9 active torsions:
REMARK  status: ('A' for Active; 'I' for Inactive)
REMARK    1  A    between atoms: C_1  and  O_2
REMARK    2  A    between atoms: O_2  and  C_3
REMARK    3  A    between atoms: N_10  and  C_11
REMARK    4  A    between atoms: C_11  and  C_12
REMARK    5  A    between atoms: C_15  and  C_16
REMARK    6  A    between atoms: C_16  and  C_17
REMARK    7  A    between atoms: C_17  and  N_18
REMARK    8  A    between atoms: N_18  and  C_19
REMARK    9  A    between atoms: N_18  and  C_20
REMARK                            x       y       z     vdW  Elec       q    Type
REMARK                         _______ _______ _______ _____ _____    ______ ____
ROOT
ATOM      1  C   UNL     1      48.844   5.286  17.641  0.00  0.00    +0.000 C 
ENDROOT
BRANCH   1   9
ATOM      2  C   UNL     1      52.575   1.578  17.848  0.00  0.00    +0.000 A 
ATOM      3  C   UNL     1      51.263   1.426  17.409  0.00  0.00    +0.000 A 
ATOM      4  C   UNL     1      50.396   2.527  17.321  0.00  0.00    +0.000 A 
ATOM      5  C   UNL     1      50.887   3.792  17.680  0.00  0.00    +0.000 A 
ATOM      6  C   UNL     1      52.204   3.967  18.118  0.00  0.00    +0.000 A 
ATOM      7  C   UNL     1      52.380   5.348  18.398  0.00  0.00    +0.000 A 
ATOM      8  C   UNL     1      51.185   5.982  18.150  0.00  0.00    +0.000 A 
ATOM      9  N   UNL     1      50.278   5.036  17.734  0.00  0.00    +0.000 N 
ATOM     10  C   UNL     1      53.046   2.842  18.218  0.00  0.00    +0.000 A 
BRANCH   2  12
ATOM     11  C   UNL     1      54.341   0.324  16.897  0.00  0.00    +0.000 C 
ATOM     12  O   UNL     1      53.480   0.561  18.004  0.00  0.00    +0.000 OA
ENDBRANCH   2  12
ENDBRANCH   1   9
BRANCH   1  13
ATOM     13  C   UNL     1      48.267   5.160  16.262  0.00  0.00    +0.000 A 
ATOM     14  C   UNL     1      48.436   6.151  15.290  0.00  0.00    +0.000 A 
ATOM     15  C   UNL     1      47.697   6.099  14.106  0.00  0.00    +0.000 A 
ATOM     16  C   UNL     1      46.808   5.046  13.917  0.00  0.00    +0.000 A 
ATOM     17  N   UNL     1      46.686   4.035  14.810  0.00  0.00    +0.000 NA
ATOM     18  C   UNL     1      47.420   4.107  15.944  0.00  0.00    +0.000 A 
BRANCH  16  19
ATOM     19  C   UNL     1      45.834   5.046  12.762  0.00  0.00    +0.000 C 
BRANCH  19  20
ATOM     20  C   UNL     1      45.340   3.611  12.498  0.00  0.00    +0.000 C 
BRANCH  20  21
ATOM     21  N   UNL     1      43.894   3.393  12.729  0.00  0.00    +0.000 NA
ATOM     22  C   UNL     1      43.196   4.646  13.029  0.00  0.00    +0.000 C 
ATOM     23  C   UNL     1      43.296   2.783  11.534  0.00  0.00    +0.000 C 
ENDBRANCH  20  21
ENDBRANCH  19  20
ENDBRANCH  16  19
ENDBRANCH   1  13
TORSDOF 6
ENDMDL
MODEL 7
REMARK VINA RESULT:    -5.662      2.964      7.801
REMARK INTER + INTRA:          -8.349
REMARK INTER:                  -7.953
REMARK INTRA:                  -0.396
REMARK UNBOUND:                -0.701
REMARK  Name = 
REMARK  9 active torsions:
REMARK  status: ('A' for Active; 'I' for Inactive)
REMARK    1  A    between atoms: C_1  and  O_2
REMARK    2  A    between atoms: O_2  and  C_3
REMARK    3  A    between atoms: N_10  and  C_11
REMARK    4  A    between atoms: C_11  and  C_12
REMARK    5  A    between atoms: C_15  and  C_16
REMARK    6  A    between atoms: C_16  and  C_17
REMARK    7  A    between atoms: C_17  and  N_18
REMARK    8  A    between atoms: N_18  and  C_19
REMARK    9  A    between atoms: N_18  and  C_20
REMARK                            x       y       z     vdW  Elec       q    Type
REMARK                         _______ _______ _______ _____ _____    ______ ____
ROOT
ATOM      1  C   UNL     1      45.809   6.228  13.148  0.00  0.00    +0.000 C 
ENDROOT
BRANCH   1   9
ATOM      2  C   UNL     1      50.501   7.325  15.270  0.00  0.00    +0.000 A 
ATOM      3  C   UNL     1      49.462   6.605  15.854  0.00  0.00    +0.000 A 
ATOM      4  C   UNL     1      48.293   6.307  15.136  0.00  0.00    +0.000 A 
ATOM      5  C   UNL     1      48.197   6.747  13.806  0.00  0.00    +0.000 A 
ATOM      6  C   UNL     1      49.232   7.467  13.199  0.00  0.00    +0.000 A 
ATOM      7  C   UNL     1      48.827   7.758  11.870  0.00  0.00    +0.000 A 
ATOM      8  C   UNL     1      47.566   7.238  11.693  0.00  0.00    +0.000 A 
ATOM      9  N   UNL     1      47.179   6.643  12.872  0.00  0.00    +0.000 N 
ATOM     10  C   UNL     1      50.385   7.771  13.950  0.00  0.00    +0.000 A 
BRANCH   2  12
ATOM     11  C   UNL     1      52.519   6.633  16.292  0.00  0.00    +0.000 C 
ATOM     12  O   UNL     1      51.658   7.696  15.902  0.00  0.00    +0.000 OA
ENDBRANCH   2  12
ENDBRANCH   1   9
BRANCH   1  13
ATOM     13  C   UNL     1      45.255   5.205  12.201  0.00  0.00    +0.000 A 
ATOM     14  C   UNL     1      45.256   3.838  12.496  0.00  0.00    +0.000 A 
ATOM     15  C   UNL     1      44.944   2.910  11.501  0.00  0.00    +0.000 A 
ATOM     16  C   UNL     1      44.627   3.374  10.228  0.00  0.00    +0.000 A 
ATOM     17  N   UNL     1      44.542   4.695   9.941  0.00  0.00    +0.000 NA
ATOM     18  C   UNL     1      44.843   5.571  10.927  0.00  0.00    +0.000 A 
BRANCH  16  19
ATOM     19  C   UNL     1      44.486   2.421   9.064  0.00  0.00    +0.000 C 
BRANCH  19  20
ATOM     20  C   UNL     1      45.872   1.886   8.659  0.00  0.00    +0.000 C 
BRANCH  20  21
ATOM     21  N   UNL     1      46.327   2.280   7.306  0.00  0.00    +0.000 NA
ATOM     22  C   UNL     1      46.718   3.691   7.253  0.00  0.00    +0.000 C 
ATOM     23  C   UNL     1      47.473   1.448   6.915  0.00  0.00    +0.000 C 
ENDBRANCH  20  21
ENDBRANCH  19  20
ENDBRANCH  16  19
ENDBRANCH   1  13
TORSDOF 6
ENDMDL
MODEL 8
REMARK VINA RESULT:    -5.224      3.494      8.614
REMARK INTER + INTRA:          -7.758
REMARK INTER:                  -6.975
REMARK INTRA:                  -0.782
REMARK UNBOUND:                -0.701
REMARK  Name = 
REMARK  9 active torsions:
REMARK  status: ('A' for Active; 'I' for Inactive)
REMARK    1  A    between atoms: C_1  and  O_2
REMARK    2  A    between atoms: O_2  and  C_3
REMARK    3  A    between atoms: N_10  and  C_11
REMARK    4  A    between atoms: C_11  and  C_12
REMARK    5  A    between atoms: C_15  and  C_16
REMARK    6  A    between atoms: C_16  and  C_17
REMARK    7  A    between atoms: C_17  and  N_18
REMARK    8  A    between atoms: N_18  and  C_19
REMARK    9  A    between atoms: N_18  and  C_20
REMARK                            x       y       z     vdW  Elec       q    Type
REMARK                         _______ _______ _______ _____ _____    ______ ____
ROOT
ATOM      1  C   UNL     1      48.868   6.957  13.803  0.00  0.00    +0.000 C 
ENDROOT
BRANCH   1   9
ATOM      2  C   UNL     1      49.011   6.389  19.036  0.00  0.00    +0.000 A 
ATOM      3  C   UNL     1      49.443   5.474  18.079  0.00  0.00    +0.000 A 
ATOM      4  C   UNL     1      49.430   5.795  16.712  0.00  0.00    +0.000 A 
ATOM      5  C   UNL     1      48.977   7.067  16.330  0.00  0.00    +0.000 A 
ATOM      6  C   UNL     1      48.545   8.003  17.276  0.00  0.00    +0.000 A 
ATOM      7  C   UNL     1      48.157   9.173  16.572  0.00  0.00    +0.000 A 
ATOM      8  C   UNL     1      48.337   8.934  15.229  0.00  0.00    +0.000 A 
ATOM      9  N   UNL     1      48.816   7.652  15.084  0.00  0.00    +0.000 N 
ATOM     10  C   UNL     1      48.547   7.647  18.639  0.00  0.00    +0.000 A 
BRANCH   2  12
ATOM     11  C   UNL     1      48.863   4.787  20.770  0.00  0.00    +0.000 C 
ATOM     12  O   UNL     1      48.949   6.154  20.384  0.00  0.00    +0.000 OA
ENDBRANCH   2  12
ENDBRANCH   1   9
BRANCH   1  13
ATOM     13  C   UNL     1      47.596   6.269  13.404  0.00  0.00    +0.000 A 
ATOM     14  C   UNL     1      47.128   5.127  14.063  0.00  0.00    +0.000 A 
ATOM     15  C   UNL     1      46.072   4.393  13.519  0.00  0.00    +0.000 A 
ATOM     16  C   UNL     1      45.500   4.825  12.328  0.00  0.00    +0.000 A 
ATOM     17  N   UNL     1      45.884   5.970  11.715  0.00  0.00    +0.000 NA
ATOM     18  C   UNL     1      46.904   6.665  12.268  0.00  0.00    +0.000 A 
BRANCH  16  19
ATOM     19  C   UNL     1      44.503   3.966  11.585  0.00  0.00    +0.000 C 
BRANCH  19  20
ATOM     20  C   UNL     1      44.126   4.639  10.252  0.00  0.00    +0.000 C 
BRANCH  20  21
ATOM     21  N   UNL     1      44.378   3.823   9.043  0.00  0.00    +0.000 NA
ATOM     22  C   UNL     1      45.599   4.242   8.348  0.00  0.00    +0.000 C 
ATOM     23  C   UNL     1      44.504   2.410   9.425  0.00  0.00    +0.000 C 
ENDBRANCH  20  21
ENDBRANCH  19  20
ENDBRANCH  16  19
ENDBRANCH   1  13
TORSDOF 6
ENDMDL
MODEL 9
REMARK VINA RESULT:    -5.206      3.683      5.001
REMARK INTER + INTRA:          -7.732
REMARK INTER:                  -7.051
REMARK INTRA:                  -0.681
REMARK UNBOUND:                -0.701
REMARK  Name = 
REMARK  9 active torsions:
REMARK  status: ('A' for Active; 'I' for Inactive)
REMARK    1  A    between atoms: C_1  and  O_2
REMARK    2  A    between atoms: O_2  and  C_3
REMARK    3  A    between atoms: N_10  and  C_11
REMARK    4  A    between atoms: C_11  and  C_12
REMARK    5  A    between atoms: C_15  and  C_16
REMARK    6  A    between atoms: C_16  and  C_17
REMARK    7  A    between atoms: C_17  and  N_18
REMARK    8  A    between atoms: N_18  and  C_19
REMARK    9  A    between atoms: N_18  and  C_20
REMARK                            x       y       z     vdW  Elec       q    Type
REMARK                         _______ _______ _______ _____ _____    ______ ____
ROOT
ATOM      1  C   UNL     1      47.115   7.756  13.177  0.00  0.00    +0.000 C 
ENDROOT
BRANCH   1   9
ATOM      2  C   UNL     1      44.683   3.712  10.844  0.00  0.00    +0.000 A 
ATOM      3  C   UNL     1      44.893   4.984  10.317  0.00  0.00    +0.000 A 
ATOM      4  C   UNL     1      45.641   5.944  11.017  0.00  0.00    +0.000 A 
ATOM      5  C   UNL     1      46.183   5.588  12.262  0.00  0.00    +0.000 A 
ATOM      6  C   UNL     1      45.990   4.314  12.806  0.00  0.00    +0.000 A 
ATOM      7  C   UNL     1      46.659   4.278  14.058  0.00  0.00    +0.000 A 
ATOM      8  C   UNL     1      47.225   5.514  14.266  0.00  0.00    +0.000 A 
ATOM      9  N   UNL     1      46.920   6.311  13.187  0.00  0.00    +0.000 N 
ATOM     10  C   UNL     1      45.216   3.377  12.093  0.00  0.00    +0.000 A 
BRANCH   2  12
ATOM     11  C   UNL     1      44.543   2.069   9.147  0.00  0.00    +0.000 C 
ATOM     12  O   UNL     1      43.937   2.725  10.255  0.00  0.00    +0.000 OA
ENDBRANCH   2  12
ENDBRANCH   1   9
BRANCH   1  13
ATOM     13  C   UNL     1      48.278   8.232  12.357  0.00  0.00    +0.000 A 
ATOM     14  C   UNL     1      49.325   7.384  11.986  0.00  0.00    +0.000 A 
ATOM     15  C   UNL     1      50.487   7.915  11.424  0.00  0.00    +0.000 A 
ATOM     16  C   UNL     1      50.571   9.291  11.236  0.00  0.00    +0.000 A 
ATOM     17  N   UNL     1      49.539  10.123  11.514  0.00  0.00    +0.000 NA
ATOM     18  C   UNL     1      48.423   9.579  12.051  0.00  0.00    +0.000 A 
BRANCH  16  19
ATOM     19  C   UNL     1      51.872   9.944  10.831  0.00  0.00    +0.000 C 
BRANCH  19  20
ATOM     20  C   UNL     1      52.851   8.876  10.310  0.00  0.00    +0.000 C 
BRANCH  20  21
ATOM     21  N   UNL     1      53.477   9.181   9.003  0.00  0.00    +0.000 NA
ATOM     22  C   UNL     1      53.464   8.019   8.110  0.00  0.00    +0.000 C 
ATOM     23  C   UNL     1      52.754  10.288   8.363  0.00  0.00    +0.000 C 
ENDBRANCH  20  21
ENDBRANCH  19  20
ENDBRANCH  16  19
ENDBRANCH   1  13
TORSDOF 6
ENDMDL
