MODEL 1
REMARK VINA RESULT:    -7.293      0.000      0.000
REMARK INTER + INTRA:         -10.006
REMARK INTER:                  -9.425
REMARK INTRA:                  -0.581
REMARK UNBOUND:                -0.581
REMARK  Name = 
REMARK  6 active torsions:
REMARK  status: ('A' for Active; 'I' for Inactive)
REMARK    1  A    between atoms: C_1  and  C_2
REMARK    2  A    between atoms: C_2  and  N_3
REMARK    3  A    between atoms: N_3  and  C_4
REMARK    4  A    between atoms: N_3  and  C_11
REMARK    5  A    between atoms: C_4  and  C_5
REMARK    6  A    between atoms: C_14  and  C_15
REMARK                            x       y       z     vdW  Elec       q    Type
REMARK                         _______ _______ _______ _____ _____    ______ ____
ROOT
ATOM      1  C   UNL     1      45.081   3.800   9.736  0.00  0.00    +0.000 A 
ATOM      2  C   UNL     1      45.234   2.423   9.510  0.00  0.00    +0.000 A 
ATOM      3  C   UNL     1      45.934   1.928   8.405  0.00  0.00    +0.000 A 
ATOM      4  C   UNL     1      46.485   2.836   7.520  0.00  0.00    +0.000 A 
ATOM      5  N   UNL     1      46.380   4.180   7.667  0.00  0.00    +0.000 NA
ATOM      6  C   UNL     1      45.692   4.606   8.761  0.00  0.00    +0.000 A 
ENDROOT
BRANCH   4   7
ATOM      7  C   UNL     1      47.246   2.351   6.325  0.00  0.00    +0.000 C 
ATOM      8  N   UNL     1      47.174   3.154   5.221  0.00  0.00    +0.000 N 
ATOM      9  O   UNL     1      47.891   1.308   6.329  0.00  0.00    +0.000 OA
ATOM     10  H   UNL     1      46.634   4.011   5.267  0.00  0.00    +0.000 HD
ATOM     11  H   UNL     1      47.672   2.902   4.381  0.00  0.00    +0.000 HD
ENDBRANCH   4   7
BRANCH   1  12
ATOM     12  N   UNL     1      44.383   4.309  10.828  0.00  0.00    +0.000 N 
BRANCH  12  14
ATOM     13  C   UNL     1      42.471   5.386  11.989  0.00  0.00    +0.000 C 
ATOM     14  C   UNL     1      43.144   5.084  10.658  0.00  0.00    +0.000 C 
ENDBRANCH  12  14
BRANCH  12  15
ATOM     15  C   UNL     1      44.784   4.012  12.216  0.00  0.00    +0.000 C 
BRANCH  15  16
ATOM     16  C   UNL     1      45.914   4.872  12.737  0.00  0.00    +0.000 A 
ATOM     17  C   UNL     1      46.299   6.095  12.180  0.00  0.00    +0.000 A 
ATOM     18  C   UNL     1      47.334   6.833  12.753  0.00  0.00    +0.000 A 
ATOM     19  C   UNL     1      47.971   6.316  13.867  0.00  0.00    +0.000 A 
ATOM     20  N   UNL     1      47.656   5.127  14.419  0.00  0.00    +0.000 NA
ATOM     21  C   UNL     1      46.644   4.436  13.843  0.00  0.00    +0.000 A 
ENDBRANCH  15  16
ENDBRANCH  12  15
ENDBRANCH   1  12
TORSDOF 5
ENDMDL
MODEL 2
REMARK VINA RESULT:    -6.882      2.592      5.995
REMARK INTER + INTRA:          -9.475
REMARK INTER:                  -9.111
REMARK INTRA:                  -0.364
REMARK UNBOUND:                -0.581
REMARK  Name = 
REMARK  6 active torsions:
REMARK  status: ('A' for Active; 'I' for Inactive)
REMARK    1  A    between atoms: C_1  and  C_2
REMARK    2  A    between atoms: C_2  and  N_3
REMARK    3  A    between atoms: N_3  and  C_4
REMARK    4  A    between atoms: N_3  and  C_11
REMARK    5  A    between atoms: C_4  and  C_5
REMARK    6  A    between atoms: C_14  and  C_15
REMARK                            x       y       z     vdW  Elec       q    Type
REMARK                         _______ _______ _______ _____ _____    ______ ____
ROOT
ATOM      1  C   UNL     1      45.324   5.011  11.424  0.00  0.00    +0.000 A 
ATOM      2  C   UNL     1      46.032   6.138  10.979  0.00  0.00    +0.000 A 
ATOM      3  C   UNL     1      47.066   6.705  11.731  0.00  0.00    +0.000 A 
ATOM      4  C   UNL     1      47.387   6.125  12.944  0.00  0.00    +0.000 A 
ATOM      5  N   UNL     1      46.749   5.036  13.443  0.00  0.00    +0.000 NA
ATOM      6  C   UNL     1      45.754   4.524  12.669  0.00  0.00    +0.000 A 
ENDROOT
BRANCH   4   7
ATOM      7  C   UNL     1      48.490   6.696  13.780  0.00  0.00    +0.000 C 
ATOM      8  N   UNL     1      48.179   6.905  15.094  0.00  0.00    +0.000 N 
ATOM      9  O   UNL     1      49.597   6.961  13.325  0.00  0.00    +0.000 OA
ATOM     10  H   UNL     1      47.252   6.664  15.427  0.00  0.00    +0.000 HD
ATOM     11  H   UNL     1      48.875   7.274  15.725  0.00  0.00    +0.000 HD
ENDBRANCH   4   7
BRANCH   1  12
ATOM     12  N   UNL     1      44.288   4.438  10.690  0.00  0.00    +0.000 N 
BRANCH  12  14
ATOM     13  C   UNL     1      43.342   2.464  11.861  0.00  0.00    +0.000 C 
ATOM     14  C   UNL     1      43.098   3.875  11.347  0.00  0.00    +0.000 C 
ENDBRANCH  12  14
BRANCH  12  15
ATOM     15  C   UNL     1      44.275   4.456   9.215  0.00  0.00    +0.000 C 
BRANCH  15  16
ATOM     16  C   UNL     1      45.234   3.481   8.569  0.00  0.00    +0.000 A 
ATOM     17  C   UNL     1      46.198   3.831   7.619  0.00  0.00    +0.000 A 
ATOM     18  C   UNL     1      47.061   2.865   7.105  0.00  0.00    +0.000 A 
ATOM     19  C   UNL     1      46.925   1.560   7.548  0.00  0.00    +0.000 A 
ATOM     20  N   UNL     1      45.990   1.170   8.437  0.00  0.00    +0.000 NA
ATOM     21  C   UNL     1      45.170   2.133   8.921  0.00  0.00    +0.000 A 
ENDBRANCH  15  16
ENDBRANCH  12  15
ENDBRANCH   1  12
TORSDOF 5
ENDMDL
MODEL 3
REMARK VINA RESULT:    -6.757      1.541      2.083
REMARK INTER + INTRA:          -9.313
REMARK INTER:                  -8.987
REMARK INTRA:                  -0.326
REMARK UNBOUND:                -0.581
REMARK  Name = 
REMARK  6 active torsions:
REMARK  status: ('A' for Active; 'I' for Inactive)
REMARK    1  A    between atoms: C_1  and  C_2
REMARK    2  A    between atoms: C_2  and  N_3
REMARK    3  A    between atoms: N_3  and  C_4
REMARK    4  A    between atoms: N_3  and  C_11
REMARK    5  A    between atoms: C_4  and  C_5
REMARK    6  A    between atoms: C_14  and  C_15
REMARK                            x       y       z     vdW  Elec       q    Type
REMARK                         _______ _______ _______ _____ _____    ______ ____
ROOT
ATOM      1  C   UNL     1      44.839   3.859   9.538  0.00  0.00    +0.000 A 
ATOM      2  C   UNL     1      45.611   4.530   8.577  0.00  0.00    +0.000 A 
ATOM      3  C   UNL     1      46.430   3.843   7.676  0.00  0.00    +0.000 A 
ATOM      4  C   UNL     1      46.469   2.463   7.748  0.00  0.00    +0.000 A 
ATOM      5  N   UNL     1      45.754   1.743   8.648  0.00  0.00    +0.000 NA
ATOM      6  C   UNL     1      44.971   2.461   9.498  0.00  0.00    +0.000 A 
ENDROOT
BRANCH   4   7
ATOM      7  C   UNL     1      47.329   1.686   6.801  0.00  0.00    +0.000 C 
ATOM      8  N   UNL     1      48.365   2.384   6.246  0.00  0.00    +0.000 N 
ATOM      9  O   UNL     1      47.125   0.506   6.536  0.00  0.00    +0.000 OA
ATOM     10  H   UNL     1      48.499   3.356   6.501  0.00  0.00    +0.000 HD
ATOM     11  H   UNL     1      48.998   1.925   5.609  0.00  0.00    +0.000 HD
ENDBRANCH   4   7
BRANCH   1  12
ATOM     12  N   UNL     1      44.022   4.528  10.446  0.00  0.00    +0.000 N 
BRANCH  12  14
ATOM     13  C   UNL     1      43.847   3.423  12.662  0.00  0.00    +0.000 C 
ATOM     14  C   UNL     1      43.138   3.801  11.369  0.00  0.00    +0.000 C 
ENDBRANCH  12  14
BRANCH  12  15
ATOM     15  C   UNL     1      44.075   5.994  10.607  0.00  0.00    +0.000 C 
BRANCH  15  16
ATOM     16  C   UNL     1      45.162   6.482  11.541  0.00  0.00    +0.000 A 
ATOM     17  C   UNL     1      46.355   5.798  11.791  0.00  0.00    +0.000 A 
ATOM     18  C   UNL     1      47.313   6.345  12.643  0.00  0.00    +0.000 A 
ATOM     19  C   UNL     1      47.041   7.564  13.240  0.00  0.00    +0.000 A 
ATOM     20  N   UNL     1      45.892   8.243  13.055  0.00  0.00    +0.000 NA
ATOM     21  C   UNL     1      44.983   7.689  12.217  0.00  0.00    +0.000 A 
ENDBRANCH  15  16
ENDBRANCH  12  15
ENDBRANCH   1  12
TORSDOF 5
ENDMDL
MODEL 4
REMARK VINA RESULT:    -6.740      2.797      5.904
REMARK INTER + INTRA:          -9.291
REMARK INTER:                  -8.611
REMARK INTRA:                  -0.680
REMARK UNBOUND:                -0.581
REMARK  Name = 
REMARK  6 active torsions:
REMARK  status: ('A' for Active; 'I' for Inactive)
REMARK    1  A    between atoms: C_1  and  C_2
REMARK    2  A    between atoms: C_2  and  N_3
REMARK    3  A    between atoms: N_3  and  C_4
REMARK    4  A    between atoms: N_3  and  C_11
REMARK    5  A    between atoms: C_4  and  C_5
REMARK    6  A    between atoms: C_14  and  C_15
REMARK                            x       y       z     vdW  Elec       q    Type
REMARK                         _______ _______ _______ _____ _____    ______ ____
ROOT
ATOM      1  C   UNL     1      45.772   5.212  11.851  0.00  0.00    +0.000 A 
ATOM      2  C   UNL     1      46.290   6.363  11.235  0.00  0.00    +0.000 A 
ATOM      3  C   UNL     1      47.433   7.008  11.717  0.00  0.00    +0.000 A 
ATOM      4  C   UNL     1      48.058   6.485  12.834  0.00  0.00    +0.000 A 
ATOM      5  N   UNL     1      47.618   5.379  13.486  0.00  0.00    +0.000 NA
ATOM      6  C   UNL     1      46.505   4.789  12.972  0.00  0.00    +0.000 A 
ENDROOT
BRANCH   4   7
ATOM      7  C   UNL     1      49.286   7.141  13.382  0.00  0.00    +0.000 C 
ATOM      8  N   UNL     1      50.290   7.350  12.479  0.00  0.00    +0.000 N 
ATOM      9  O   UNL     1      49.392   7.472  14.559  0.00  0.00    +0.000 OA
ATOM     10  H   UNL     1      50.154   7.067  11.515  0.00  0.00    +0.000 HD
ATOM     11  H   UNL     1      51.144   7.802  12.770  0.00  0.00    +0.000 HD
ENDBRANCH   4   7
BRANCH   1  12
ATOM     12  N   UNL     1      44.632   4.561  11.387  0.00  0.00    +0.000 N 
BRANCH  12  14
ATOM     13  C   UNL     1      42.799   4.921  13.022  0.00  0.00    +0.000 C 
ATOM     14  C   UNL     1      43.686   3.911  12.308  0.00  0.00    +0.000 C 
ENDBRANCH  12  14
BRANCH  12  15
ATOM     15  C   UNL     1      44.253   4.575   9.961  0.00  0.00    +0.000 C 
BRANCH  15  16
ATOM     16  C   UNL     1      45.075   3.654   9.087  0.00  0.00    +0.000 A 
ATOM     17  C   UNL     1      45.874   4.080   8.021  0.00  0.00    +0.000 A 
ATOM     18  C   UNL     1      46.623   3.157   7.293  0.00  0.00    +0.000 A 
ATOM     19  C   UNL     1      46.540   1.821   7.643  0.00  0.00    +0.000 A 
ATOM     20  N   UNL     1      45.759   1.361   8.641  0.00  0.00    +0.000 NA
ATOM     21  C   UNL     1      45.047   2.282   9.333  0.00  0.00    +0.000 A 
ENDBRANCH  15  16
ENDBRANCH  12  15
ENDBRANCH   1  12
TORSDOF 5
ENDMDL
MODEL 5
REMARK VINA RESULT:    -6.688      2.389      6.016
REMARK INTER + INTRA:          -9.224
REMARK INTER:                  -8.826
REMARK INTRA:                  -0.399
REMARK UNBOUND:                -0.581
REMARK  Name = 
REMARK  6 active torsions:
REMARK  status: ('A' for Active; 'I' for Inactive)
REMARK    1  A    between atoms: C_1  and  C_2
REMARK    2  A    between atoms: C_2  and  N_3
REMARK    3  A    between atoms: N_3  and  C_4
REMARK    4  A    between atoms: N_3  and  C_11
REMARK    5  A    between atoms: C_4  and  C_5
REMARK    6  A    between atoms: C_14  and  C_15
REMARK                            x       y       z     vdW  Elec       q    Type
REMARK                         _______ _______ _______ _____ _____    ______ ____
ROOT
ATOM      1  C   UNL     1      45.303   4.707  11.841  0.00  0.00    +0.000 A 
ATOM      2  C   UNL     1      45.675   4.030  13.014  0.00  0.00    +0.000 A 
ATOM      3  C   UNL     1      46.674   4.516  13.862  0.00  0.00    +0.000 A 
ATOM      4  C   UNL     1      47.304   5.699  13.521  0.00  0.00    +0.000 A 
ATOM      5  N   UNL     1      47.003   6.410  12.406  0.00  0.00    +0.000 NA
ATOM      6  C   UNL     1      46.020   5.893  11.618  0.00  0.00    +0.000 A 
ENDROOT
BRANCH   4   7
ATOM      7  C   UNL     1      48.377   6.258  14.402  0.00  0.00    +0.000 C 
ATOM      8  N   UNL     1      48.169   6.108  15.744  0.00  0.00    +0.000 N 
ATOM      9  O   UNL     1      49.377   6.813  13.958  0.00  0.00    +0.000 OA
ATOM     10  H   UNL     1      47.331   5.635  16.065  0.00  0.00    +0.000 HD
ATOM     11  H   UNL     1      48.856   6.445  16.402  0.00  0.00    +0.000 HD
ENDBRANCH   4   7
BRANCH   1  12
ATOM     12  N   UNL     1      44.313   4.234  10.983  0.00  0.00    +0.000 N 
BRANCH  12  14
ATOM     13  C   UNL     1      42.348   5.500  11.816  0.00  0.00    +0.000 C 
ATOM     14  C   UNL     1      43.159   5.063  10.605  0.00  0.00    +0.000 C 
ENDBRANCH  12  14
BRANCH  12  15
ATOM     15  C   UNL     1      44.420   2.919  10.323  0.00  0.00    +0.000 C 
BRANCH  15  16
ATOM     16  C   UNL     1      45.294   2.908   9.088  0.00  0.00    +0.000 A 
ATOM     17  C   UNL     1      45.914   1.768   8.568  0.00  0.00    +0.000 A 
ATOM     18  C   UNL     1      46.676   1.853   7.403  0.00  0.00    +0.000 A 
ATOM     19  C   UNL     1      46.812   3.088   6.795  0.00  0.00    +0.000 A 
ATOM     20  N   UNL     1      46.261   4.220   7.279  0.00  0.00    +0.000 NA
ATOM     21  C   UNL     1      45.522   4.104   8.408  0.00  0.00    +0.000 A 
ENDBRANCH  15  16
ENDBRANCH  12  15
ENDBRANCH   1  12
TORSDOF 5
ENDMDL
MODEL 6
REMARK VINA RESULT:    -6.550      3.373      6.344
REMARK INTER + INTRA:          -9.046
REMARK INTER:                  -8.621
REMARK INTRA:                  -0.425
REMARK UNBOUND:                -0.581
REMARK  Name = 
REMARK  6 active torsions:
REMARK  status: ('A' for Active; 'I' for Inactive)
REMARK    1  A    between atoms: C_1  and  C_2
REMARK    2  A    between atoms: C_2  and  N_3
REMARK    3  A    between atoms: N_3  and  C_4
REMARK    4  A    between atoms: N_3  and  C_11
REMARK    5  A    between atoms: C_4  and  C_5
REMARK    6  A    between atoms: C_14  and  C_15
REMARK                            x       y       z     vdW  Elec       q    Type
REMARK                         _______ _______ _______ _____ _____    ______ ____
ROOT
ATOM      1  C   UNL     1      44.930   5.564  11.140  0.00  0.00    +0.000 A 
ATOM      2  C   UNL     1      46.205   6.051  11.470  0.00  0.00    +0.000 A 
ATOM      3  C   UNL     1      46.414   7.382  11.843  0.00  0.00    +0.000 A 
ATOM      4  C   UNL     1      45.322   8.229  11.884  0.00  0.00    +0.000 A 
ATOM      5  N   UNL     1      44.061   7.836  11.578  0.00  0.00    +0.000 NA
ATOM      6  C   UNL     1      43.914   6.530  11.225  0.00  0.00    +0.000 A 
ENDROOT
BRANCH   4   7
ATOM      7  C   UNL     1      45.499   9.661  12.281  0.00  0.00    +0.000 C 
ATOM      8  N   UNL     1      46.725   9.978  12.796  0.00  0.00    +0.000 N 
ATOM      9  O   UNL     1      44.612  10.498  12.157  0.00  0.00    +0.000 OA
ATOM     10  H   UNL     1      47.431   9.254  12.873  0.00  0.00    +0.000 HD
ATOM     11  H   UNL     1      46.926  10.927  13.074  0.00  0.00    +0.000 HD
ENDBRANCH   4   7
BRANCH   1  12
ATOM     12  N   UNL     1      44.706   4.243  10.761  0.00  0.00    +0.000 N 
BRANCH  12  14
ATOM     13  C   UNL     1      43.400   2.548  12.020  0.00  0.00    +0.000 C 
ATOM     14  C   UNL     1      44.773   3.140  11.731  0.00  0.00    +0.000 C 
ENDBRANCH  12  14
BRANCH  12  15
ATOM     15  C   UNL     1      44.285   3.887   9.392  0.00  0.00    +0.000 C 
BRANCH  15  16
ATOM     16  C   UNL     1      45.334   3.150   8.588  0.00  0.00    +0.000 A 
ATOM     17  C   UNL     1      46.201   3.757   7.674  0.00  0.00    +0.000 A 
ATOM     18  C   UNL     1      47.159   2.997   7.004  0.00  0.00    +0.000 A 
ATOM     19  C   UNL     1      47.213   1.637   7.256  0.00  0.00    +0.000 A 
ATOM     20  N   UNL     1      46.377   1.004   8.103  0.00  0.00    +0.000 NA
ATOM     21  C   UNL     1      45.461   1.770   8.743  0.00  0.00    +0.000 A 
ENDBRANCH  15  16
ENDBRANCH  12  15
ENDBRANCH   1  12
TORSDOF 5
ENDMDL
MODEL 7
REMARK VINA RESULT:    -5.768      3.243      6.637
REMARK INTER + INTRA:          -8.035
REMARK INTER:                  -7.604
REMARK INTRA:                  -0.430
REMARK UNBOUND:                -0.581
REMARK  Name = 
REMARK  6 active torsions:
REMARK  status: ('A' for Active; 'I' for Inactive)
REMARK    1  A    between atoms: C_1  and  C_2
REMARK    2  A    between atoms: C_2  and  N_3
REMARK    3  A    between atoms: N_3  and  C_4
REMARK    4  A    between atoms: N_3  and  C_11
REMARK    5  A    between atoms: C_4  and  C_5
REMARK    6  A    between atoms: C_14  and  C_15
REMARK                            x       y       z     vdW  Elec       q    Type
REMARK                         _______ _______ _______ _____ _____    ______ ____
ROOT
ATOM      1  C   UNL     1      46.771   5.322  13.723  0.00  0.00    +0.000 A 
ATOM      2  C   UNL     1      47.349   5.796  14.911  0.00  0.00    +0.000 A 
ATOM      3  C   UNL     1      47.915   4.933  15.854  0.00  0.00    +0.000 A 
ATOM      4  C   UNL     1      47.895   3.575  15.593  0.00  0.00    +0.000 A 
ATOM      5  N   UNL     1      47.355   3.039  14.470  0.00  0.00    +0.000 NA
ATOM      6  C   UNL     1      46.822   3.925  13.585  0.00  0.00    +0.000 A 
ENDROOT
BRANCH   4   7
ATOM      7  C   UNL     1      48.493   2.615  16.573  0.00  0.00    +0.000 C 
ATOM      8  N   UNL     1      48.124   2.803  17.876  0.00  0.00    +0.000 N 
ATOM      9  O   UNL     1      49.260   1.719  16.239  0.00  0.00    +0.000 OA
ATOM     10  H   UNL     1      47.480   3.553  18.103  0.00  0.00    +0.000 HD
ATOM     11  H   UNL     1      48.473   2.186  18.593  0.00  0.00    +0.000 HD
ENDBRANCH   4   7
BRANCH   1  12
ATOM     12  N   UNL     1      46.198   6.167  12.776  0.00  0.00    +0.000 N 
BRANCH  12  14
ATOM     13  C   UNL     1      46.199   8.584  12.210  0.00  0.00    +0.000 C 
ATOM     14  C   UNL     1      46.959   7.266  12.163  0.00  0.00    +0.000 C 
ENDBRANCH  12  14
BRANCH  12  15
ATOM     15  C   UNL     1      44.835   5.946  12.258  0.00  0.00    +0.000 C 
BRANCH  15  16
ATOM     16  C   UNL     1      44.757   4.979  11.097  0.00  0.00    +0.000 A 
ATOM     17  C   UNL     1      45.396   5.166   9.868  0.00  0.00    +0.000 A 
ATOM     18  C   UNL     1      45.292   4.200   8.868  0.00  0.00    +0.000 A 
ATOM     19  C   UNL     1      44.531   3.072   9.121  0.00  0.00    +0.000 A 
ATOM     20  N   UNL     1      43.870   2.864  10.278  0.00  0.00    +0.000 NA
ATOM     21  C   UNL     1      43.995   3.818  11.231  0.00  0.00    +0.000 A 
ENDBRANCH  15  16
ENDBRANCH  12  15
ENDBRANCH   1  12
TORSDOF 5
ENDMDL
MODEL 8
REMARK VINA RESULT:    -5.521      3.273      5.714
REMARK INTER + INTRA:          -7.716
REMARK INTER:                  -7.124
REMARK INTRA:                  -0.592
REMARK UNBOUND:                -0.581
REMARK  Name = 
REMARK  6 active torsions:
REMARK  status: ('A' for Active; 'I' for Inactive)
REMARK    1  A    between atoms: C_1  and  C_2
REMARK    2  A    between atoms: C_2  and  N_3
REMARK    3  A    between atoms: N_3  and  C_4
REMARK    4  A    between atoms: N_3  and  C_11
REMARK    5  A    between atoms: C_4  and  C_5
REMARK    6  A    between atoms: C_14  and  C_15
REMARK                            x       y       z     vdW  Elec       q    Type
REMARK                         _______ _______ _______ _____ _____    ______ ____
ROOT
ATOM      1  C   UNL     1      46.749   5.120  13.962  0.00  0.00    +0.000 A 
ATOM      2  C   UNL     1      46.054   6.100  13.235  0.00  0.00    +0.000 A 
ATOM      3  C   UNL     1      45.115   5.766  12.255  0.00  0.00    +0.000 A 
ATOM      4  C   UNL     1      44.876   4.427  12.007  0.00  0.00    +0.000 A 
ATOM      5  N   UNL     1      45.507   3.422  12.664  0.00  0.00    +0.000 NA
ATOM      6  C   UNL     1      46.408   3.803  13.610  0.00  0.00    +0.000 A 
ENDROOT
BRANCH   4   7
ATOM      7  C   UNL     1      43.876   4.024  10.969  0.00  0.00    +0.000 C 
ATOM      8  N   UNL     1      43.731   4.896   9.926  0.00  0.00    +0.000 N 
ATOM      9  O   UNL     1      43.227   2.985  11.041  0.00  0.00    +0.000 OA
ATOM     10  H   UNL     1      44.294   5.739   9.906  0.00  0.00    +0.000 HD
ATOM     11  H   UNL     1      43.086   4.686   9.179  0.00  0.00    +0.000 HD
ENDBRANCH   4   7
BRANCH   1  12
ATOM     12  N   UNL     1      47.692   5.435  14.937  0.00  0.00    +0.000 N 
BRANCH  12  14
ATOM     13  C   UNL     1      48.482   7.734  15.438  0.00  0.00    +0.000 C 
ATOM     14  C   UNL     1      48.747   6.431  14.696  0.00  0.00    +0.000 C 
ENDBRANCH  12  14
BRANCH  12  15
ATOM     15  C   UNL     1      47.624   4.868  16.297  0.00  0.00    +0.000 C 
BRANCH  15  16
ATOM     16  C   UNL     1      48.739   3.901  16.628  0.00  0.00    +0.000 A 
ATOM     17  C   UNL     1      49.850   4.214  17.416  0.00  0.00    +0.000 A 
ATOM     18  C   UNL     1      50.811   3.243  17.693  0.00  0.00    +0.000 A 
ATOM     19  C   UNL     1      50.640   1.978  17.157  0.00  0.00    +0.000 A 
ATOM     20  N   UNL     1      49.603   1.640  16.365  0.00  0.00    +0.000 NA
ATOM     21  C   UNL     1      48.684   2.603  16.119  0.00  0.00    +0.000 A 
ENDBRANCH  15  16
ENDBRANCH  12  15
ENDBRANCH   1  12
TORSDOF 5
ENDMDL
MODEL 9
REMARK VINA RESULT:    -5.489      3.656      5.698
REMARK INTER + INTRA:          -7.675
REMARK INTER:                  -7.074
REMARK INTRA:                  -0.601
REMARK UNBOUND:                -0.581
REMARK  Name = 
REMARK  6 active torsions:
REMARK  status: ('A' for Active; 'I' for Inactive)
REMARK    1  A    between atoms: C_1  and  C_2
REMARK    2  A    between atoms: C_2  and  N_3
REMARK    3  A    between atoms: N_3  and  C_4
REMARK    4  A    between atoms: N_3  and  C_11
REMARK    5  A    between atoms: C_4  and  C_5
REMARK    6  A    between atoms: C_14  and  C_15
REMARK                            x       y       z     vdW  Elec       q    Type
REMARK                         _______ _______ _______ _____ _____    ______ ____
ROOT
ATOM      1  C   UNL     1      46.792   6.273  12.709  0.00  0.00    +0.000 A 
ATOM      2  C   UNL     1      46.313   6.185  11.393  0.00  0.00    +0.000 A 
ATOM      3  C   UNL     1      45.398   5.202  11.004  0.00  0.00    +0.000 A 
ATOM      4  C   UNL     1      44.963   4.299  11.956  0.00  0.00    +0.000 A 
ATOM      5  N   UNL     1      45.380   4.317  13.246  0.00  0.00    +0.000 NA
ATOM      6  C   UNL     1      46.267   5.296  13.571  0.00  0.00    +0.000 A 
ENDROOT
BRANCH   4   7
ATOM      7  C   UNL     1      43.981   3.233  11.584  0.00  0.00    +0.000 C 
ATOM      8  N   UNL     1      43.740   2.298  12.551  0.00  0.00    +0.000 N 
ATOM      9  O   UNL     1      43.427   3.193  10.491  0.00  0.00    +0.000 OA
ATOM     10  H   UNL     1      44.215   2.375  13.444  0.00  0.00    +0.000 HD
ATOM     11  H   UNL     1      43.078   1.555  12.381  0.00  0.00    +0.000 HD
ENDBRANCH   4   7
BRANCH   1  12
ATOM     12  N   UNL     1      47.708   7.242  13.112  0.00  0.00    +0.000 N 
BRANCH  12  14
ATOM     13  C   UNL     1      49.591   7.650  11.547  0.00  0.00    +0.000 C 
ATOM     14  C   UNL     1      49.153   7.079  12.888  0.00  0.00    +0.000 C 
ENDBRANCH  12  14
BRANCH  12  15
ATOM     15  C   UNL     1      47.276   8.530  13.689  0.00  0.00    +0.000 C 
BRANCH  15  16
ATOM     16  C   UNL     1      46.514   9.419  12.731  0.00  0.00    +0.000 A 
ATOM     17  C   UNL     1      45.134   9.354  12.519  0.00  0.00    +0.000 A 
ATOM     18  C   UNL     1      44.516  10.241  11.639  0.00  0.00    +0.000 A 
ATOM     19  C   UNL     1      45.304  11.165  10.976  0.00  0.00    +0.000 A 
ATOM     20  N   UNL     1      46.642  11.243  11.123  0.00  0.00    +0.000 NA
ATOM     21  C   UNL     1      47.212  10.372  11.989  0.00  0.00    +0.000 A 
ENDBRANCH  15  16
ENDBRANCH  12  15
ENDBRANCH   1  12
TORSDOF 5
ENDMDL
