MODEL 1
REMARK VINA RESULT:    -7.826      0.000      0.000
REMARK INTER + INTRA:         -11.069
REMARK INTER:                 -10.343
REMARK INTRA:                  -0.726
REMARK UNBOUND:                -0.726
REMARK  Name = 
REMARK  6 active torsions:
REMARK  status: ('A' for Active; 'I' for Inactive)
REMARK    1  A    between atoms: N_1  and  C_2
REMARK    2  A    between atoms: C_2  and  C_3
REMARK    3  A    between atoms: C_3  and  C_4
REMARK    4  A    between atoms: C_7  and  C_8
REMARK    5  A    between atoms: C_8  and  N_9
REMARK    6  A    between atoms: C_14  and  C_15
REMARK                            x       y       z     vdW  Elec       q    Type
REMARK                         _______ _______ _______ _____ _____    ______ ____
ROOT
ATOM      1  N   UNL     1      43.879   4.358  10.531  0.00  0.00    +0.000 N 
ATOM      2  C   UNL     1      43.388   3.220  11.116  0.00  0.00    +0.000 A 
ATOM      3  N   UNL     1      43.870   2.133  10.557  0.00  0.00    +0.000 NA
ATOM      4  C   UNL     1      44.692   2.579   9.556  0.00  0.00    +0.000 A 
ATOM      5  C   UNL     1      45.571   1.852   8.742  0.00  0.00    +0.000 A 
ATOM      6  C   UNL     1      46.371   2.538   7.813  0.00  0.00    +0.000 A 
ATOM      7  C   UNL     1      46.191   3.917   7.621  0.00  0.00    +0.000 A 
ATOM      8  C   UNL     1      45.311   4.659   8.427  0.00  0.00    +0.000 A 
ATOM      9  C   UNL     1      44.626   3.965   9.432  0.00  0.00    +0.000 A 
ENDROOT
BRANCH   6  10
ATOM     10  C   UNL     1      47.451   1.745   7.149  0.00  0.00    +0.000 C 
ATOM     11  N   UNL     1      48.465   2.407   6.513  0.00  0.00    +0.000 N 
ATOM     12  O   UNL     1      47.474   0.523   7.203  0.00  0.00    +0.000 OA
ATOM     13  H   UNL     1      48.529   3.403   6.383  0.00  0.00    +0.000 HD
ATOM     14  H   UNL     1      49.201   1.827   6.131  0.00  0.00    +0.000 HD
ENDBRANCH   6  10
BRANCH   1  15
ATOM     15  C   UNL     1      44.003   5.654  11.190  0.00  0.00    +0.000 C 
BRANCH  15  19
ATOM     16  C   UNL     1      47.727   6.427  13.277  0.00  0.00    +0.000 A 
ATOM     17  C   UNL     1      47.439   7.080  12.071  0.00  0.00    +0.000 A 
ATOM     18  C   UNL     1      46.243   6.823  11.393  0.00  0.00    +0.000 A 
ATOM     19  C   UNL     1      45.309   5.904  11.902  0.00  0.00    +0.000 A 
ATOM     20  C   UNL     1      45.596   5.259  13.111  0.00  0.00    +0.000 A 
ATOM     21  C   UNL     1      46.787   5.527  13.795  0.00  0.00    +0.000 A 
BRANCH  16  22
ATOM     22  C   UNL     1      49.035   6.667  13.997  0.00  0.00    +0.000 C 
BRANCH  22  23
ATOM     23  C   UNL     1      48.885   6.743  15.520  0.00  0.00    +0.000 C 
BRANCH  23  24
ATOM     24  N   UNL     1      49.902   5.922  16.183  0.00  0.00    +0.000 NA
ATOM     25  H   UNL     1      50.512   5.507  15.483  0.00  0.00    +0.000 HD
ATOM     26  H   UNL     1      49.452   5.145  16.667  0.00  0.00    +0.000 HD
ENDBRANCH  23  24
ENDBRANCH  22  23
ENDBRANCH  16  22
ENDBRANCH  15  19
ENDBRANCH   1  15
TORSDOF 6
ENDMDL
MODEL 2
REMARK VINA RESULT:    -7.779      1.170      1.292
REMARK INTER + INTRA:         -11.006
REMARK INTER:                 -10.254
REMARK INTRA:                  -0.752
REMARK UNBOUND:                -0.726
REMARK  Name = 
REMARK  6 active torsions:
REMARK  status: ('A' for Active; 'I' for Inactive)
REMARK    1  A    between atoms: N_1  and  C_2
REMARK    2  A    between atoms: C_2  and  C_3
REMARK    3  A    between atoms: C_3  and  C_4
REMARK    4  A    between atoms: C_7  and  C_8
REMARK    5  A    between atoms: C_8  and  N_9
REMARK    6  A    between atoms: C_14  and  C_15
REMARK                            x       y       z     vdW  Elec       q    Type
REMARK                         _______ _______ _______ _____ _____    ______ ____
ROOT
ATOM      1  N   UNL     1      43.820   4.305  10.559  0.00  0.00    +0.000 N 
ATOM      2  C   UNL     1      43.346   3.160  11.143  0.00  0.00    +0.000 A 
ATOM      3  N   UNL     1      43.842   2.081  10.582  0.00  0.00    +0.000 NA
ATOM      4  C   UNL     1      44.656   2.539   9.581  0.00  0.00    +0.000 A 
ATOM      5  C   UNL     1      45.544   1.826   8.764  0.00  0.00    +0.000 A 
ATOM      6  C   UNL     1      46.333   2.524   7.835  0.00  0.00    +0.000 A 
ATOM      7  C   UNL     1      46.134   3.900   7.645  0.00  0.00    +0.000 A 
ATOM      8  C   UNL     1      45.245   4.629   8.454  0.00  0.00    +0.000 A 
ATOM      9  C   UNL     1      44.571   3.924   9.459  0.00  0.00    +0.000 A 
ENDROOT
BRANCH   6  10
ATOM     10  C   UNL     1      47.423   1.747   7.168  0.00  0.00    +0.000 C 
ATOM     11  N   UNL     1      48.439   2.425   6.551  0.00  0.00    +0.000 N 
ATOM     12  O   UNL     1      47.452   0.525   7.204  0.00  0.00    +0.000 OA
ATOM     13  H   UNL     1      48.499   3.422   6.437  0.00  0.00    +0.000 HD
ATOM     14  H   UNL     1      49.181   1.854   6.167  0.00  0.00    +0.000 HD
ENDBRANCH   6  10
BRANCH   1  15
ATOM     15  C   UNL     1      43.927   5.602  11.220  0.00  0.00    +0.000 C 
BRANCH  15  19
ATOM     16  C   UNL     1      47.804   6.611  12.886  0.00  0.00    +0.000 A 
ATOM     17  C   UNL     1      47.161   7.486  12.000  0.00  0.00    +0.000 A 
ATOM     18  C   UNL     1      45.915   7.155  11.455  0.00  0.00    +0.000 A 
ATOM     19  C   UNL     1      45.286   5.942  11.779  0.00  0.00    +0.000 A 
ATOM     20  C   UNL     1      45.927   5.073  12.670  0.00  0.00    +0.000 A 
ATOM     21  C   UNL     1      47.167   5.410  13.225  0.00  0.00    +0.000 A 
BRANCH  16  22
ATOM     22  C   UNL     1      49.168   6.940  13.449  0.00  0.00    +0.000 C 
BRANCH  22  23
ATOM     23  C   UNL     1      49.932   7.979  12.622  0.00  0.00    +0.000 C 
BRANCH  23  24
ATOM     24  N   UNL     1      50.742   7.326  11.590  0.00  0.00    +0.000 NA
ATOM     25  H   UNL     1      50.464   7.666  10.673  0.00  0.00    +0.000 HD
ATOM     26  H   UNL     1      50.554   6.324  11.592  0.00  0.00    +0.000 HD
ENDBRANCH  23  24
ENDBRANCH  22  23
ENDBRANCH  16  22
ENDBRANCH  15  19
ENDBRANCH   1  15
TORSDOF 6
ENDMDL
MODEL 3
REMARK VINA RESULT:    -7.743      2.580      6.467
REMARK INTER + INTRA:         -10.959
REMARK INTER:                 -10.309
REMARK INTRA:                  -0.650
REMARK UNBOUND:                -0.726
REMARK  Name = 
REMARK  6 active torsions:
REMARK  status: ('A' for Active; 'I' for Inactive)
REMARK    1  A    between atoms: N_1  and  C_2
REMARK    2  A    between atoms: C_2  and  C_3
REMARK    3  A    between atoms: C_3  and  C_4
REMARK    4  A    between atoms: C_7  and  C_8
REMARK    5  A    between atoms: C_8  and  N_9
REMARK    6  A    between atoms: C_14  and  C_15
REMARK                            x       y       z     vdW  Elec       q    Type
REMARK                         _______ _______ _______ _____ _____    ______ ____
ROOT
ATOM      1  N   UNL     1      43.831   5.870  11.547  0.00  0.00    +0.000 N 
ATOM      2  C   UNL     1      43.631   7.146  11.089  0.00  0.00    +0.000 A 
ATOM      3  N   UNL     1      44.631   7.941  11.393  0.00  0.00    +0.000 NA
ATOM      4  C   UNL     1      45.510   7.158  12.095  0.00  0.00    +0.000 A 
ATOM      5  C   UNL     1      46.807   7.456  12.533  0.00  0.00    +0.000 A 
ATOM      6  C   UNL     1      47.555   6.464  13.188  0.00  0.00    +0.000 A 
ATOM      7  C   UNL     1      46.955   5.237  13.510  0.00  0.00    +0.000 A 
ATOM      8  C   UNL     1      45.653   4.924  13.081  0.00  0.00    +0.000 A 
ATOM      9  C   UNL     1      44.984   5.887  12.316  0.00  0.00    +0.000 A 
ENDROOT
BRANCH   6  10
ATOM     10  C   UNL     1      49.003   6.760  13.415  0.00  0.00    +0.000 C 
ATOM     11  N   UNL     1      49.780   7.126  12.350  0.00  0.00    +0.000 N 
ATOM     12  O   UNL     1      49.495   6.730  14.534  0.00  0.00    +0.000 OA
ATOM     13  H   UNL     1      49.487   7.155  11.388  0.00  0.00    +0.000 HD
ATOM     14  H   UNL     1      50.738   7.373  12.566  0.00  0.00    +0.000 HD
ENDBRANCH   6  10
BRANCH   1  15
ATOM     15  C   UNL     1      43.249   4.667  10.962  0.00  0.00    +0.000 C 
BRANCH  15  19
ATOM     16  C   UNL     1      45.837   2.517   8.222  0.00  0.00    +0.000 A 
ATOM     17  C   UNL     1      45.772   3.917   8.189  0.00  0.00    +0.000 A 
ATOM     18  C   UNL     1      44.930   4.609   9.065  0.00  0.00    +0.000 A 
ATOM     19  C   UNL     1      44.130   3.919   9.992  0.00  0.00    +0.000 A 
ATOM     20  C   UNL     1      44.202   2.522  10.028  0.00  0.00    +0.000 A 
ATOM     21  C   UNL     1      45.055   1.830   9.159  0.00  0.00    +0.000 A 
BRANCH  16  22
ATOM     22  C   UNL     1      46.713   1.757   7.252  0.00  0.00    +0.000 C 
BRANCH  22  23
ATOM     23  C   UNL     1      47.880   2.588   6.709  0.00  0.00    +0.000 C 
BRANCH  23  24
ATOM     24  N   UNL     1      48.541   1.891   5.602  0.00  0.00    +0.000 NA
ATOM     25  H   UNL     1      49.184   2.526   5.135  0.00  0.00    +0.000 HD
ATOM     26  H   UNL     1      47.847   1.623   4.904  0.00  0.00    +0.000 HD
ENDBRANCH  23  24
ENDBRANCH  22  23
ENDBRANCH  16  22
ENDBRANCH  15  19
ENDBRANCH   1  15
TORSDOF 6
ENDMDL
MODEL 4
REMARK VINA RESULT:    -6.818      2.396      6.700
REMARK INTER + INTRA:          -9.736
REMARK INTER:                  -8.986
REMARK INTRA:                  -0.750
REMARK UNBOUND:                -0.726
REMARK  Name = 
REMARK  6 active torsions:
REMARK  status: ('A' for Active; 'I' for Inactive)
REMARK    1  A    between atoms: N_1  and  C_2
REMARK    2  A    between atoms: C_2  and  C_3
REMARK    3  A    between atoms: C_3  and  C_4
REMARK    4  A    between atoms: C_7  and  C_8
REMARK    5  A    between atoms: C_8  and  N_9
REMARK    6  A    between atoms: C_14  and  C_15
REMARK                            x       y       z     vdW  Elec       q    Type
REMARK                         _______ _______ _______ _____ _____    ______ ____
ROOT
ATOM      1  N   UNL     1      44.241   5.830  11.092  0.00  0.00    +0.000 N 
ATOM      2  C   UNL     1      44.835   7.057  10.960  0.00  0.00    +0.000 A 
ATOM      3  N   UNL     1      45.741   7.267  11.887  0.00  0.00    +0.000 NA
ATOM      4  C   UNL     1      45.724   6.140  12.666  0.00  0.00    +0.000 A 
ATOM      5  C   UNL     1      46.589   5.768  13.704  0.00  0.00    +0.000 A 
ATOM      6  C   UNL     1      46.416   4.521  14.327  0.00  0.00    +0.000 A 
ATOM      7  C   UNL     1      45.310   3.723  13.995  0.00  0.00    +0.000 A 
ATOM      8  C   UNL     1      44.432   4.084  12.959  0.00  0.00    +0.000 A 
ATOM      9  C   UNL     1      44.711   5.271  12.269  0.00  0.00    +0.000 A 
ENDROOT
BRANCH   6  10
ATOM     10  C   UNL     1      47.504   4.081  15.253  0.00  0.00    +0.000 C 
ATOM     11  N   UNL     1      47.945   4.945  16.217  0.00  0.00    +0.000 N 
ATOM     12  O   UNL     1      47.973   2.952  15.200  0.00  0.00    +0.000 OA
ATOM     13  H   UNL     1      47.653   5.901  16.331  0.00  0.00    +0.000 HD
ATOM     14  H   UNL     1      48.640   4.579  16.855  0.00  0.00    +0.000 HD
ENDBRANCH   6  10
BRANCH   1  15
ATOM     15  C   UNL     1      43.635   5.069  10.003  0.00  0.00    +0.000 C 
BRANCH  15  19
ATOM     16  C   UNL     1      46.216   2.279   7.909  0.00  0.00    +0.000 A 
ATOM     17  C   UNL     1      45.245   1.814   8.807  0.00  0.00    +0.000 A 
ATOM     18  C   UNL     1      44.420   2.714   9.490  0.00  0.00    +0.000 A 
ATOM     19  C   UNL     1      44.549   4.100   9.295  0.00  0.00    +0.000 A 
ATOM     20  C   UNL     1      45.513   4.562   8.392  0.00  0.00    +0.000 A 
ATOM     21  C   UNL     1      46.330   3.659   7.699  0.00  0.00    +0.000 A 
BRANCH  16  22
ATOM     22  C   UNL     1      47.139   1.317   7.197  0.00  0.00    +0.000 C 
BRANCH  22  23
ATOM     23  C   UNL     1      48.399   1.986   6.636  0.00  0.00    +0.000 C 
BRANCH  23  24
ATOM     24  N   UNL     1      48.374   1.991   5.171  0.00  0.00    +0.000 NA
ATOM     25  H   UNL     1      49.272   2.311   4.817  0.00  0.00    +0.000 HD
ATOM     26  H   UNL     1      47.681   2.664   4.843  0.00  0.00    +0.000 HD
ENDBRANCH  23  24
ENDBRANCH  22  23
ENDBRANCH  16  22
ENDBRANCH  15  19
ENDBRANCH   1  15
TORSDOF 6
ENDMDL
MODEL 5
REMARK VINA RESULT:    -6.702      3.099      7.329
REMARK INTER + INTRA:          -9.582
REMARK INTER:                  -9.002
REMARK INTRA:                  -0.580
REMARK UNBOUND:                -0.726
REMARK  Name = 
REMARK  6 active torsions:
REMARK  status: ('A' for Active; 'I' for Inactive)
REMARK    1  A    between atoms: N_1  and  C_2
REMARK    2  A    between atoms: C_2  and  C_3
REMARK    3  A    between atoms: C_3  and  C_4
REMARK    4  A    between atoms: C_7  and  C_8
REMARK    5  A    between atoms: C_8  and  N_9
REMARK    6  A    between atoms: C_14  and  C_15
REMARK                            x       y       z     vdW  Elec       q    Type
REMARK                         _______ _______ _______ _____ _____    ______ ____
ROOT
ATOM      1  N   UNL     1      46.126   4.545  12.406  0.00  0.00    +0.000 N 
ATOM      2  C   UNL     1      46.427   3.692  13.436  0.00  0.00    +0.000 A 
ATOM      3  N   UNL     1      47.135   4.282  14.372  0.00  0.00    +0.000 NA
ATOM      4  C   UNL     1      47.320   5.564  13.927  0.00  0.00    +0.000 A 
ATOM      5  C   UNL     1      47.877   6.662  14.596  0.00  0.00    +0.000 A 
ATOM      6  C   UNL     1      47.907   7.912  13.956  0.00  0.00    +0.000 A 
ATOM      7  C   UNL     1      47.501   8.020  12.617  0.00  0.00    +0.000 A 
ATOM      8  C   UNL     1      46.943   6.928  11.931  0.00  0.00    +0.000 A 
ATOM      9  C   UNL     1      46.806   5.729  12.643  0.00  0.00    +0.000 A 
ENDROOT
BRANCH   6  10
ATOM     10  C   UNL     1      48.289   9.085  14.800  0.00  0.00    +0.000 C 
ATOM     11  N   UNL     1      47.634   9.293  15.983  0.00  0.00    +0.000 N 
ATOM     12  O   UNL     1      49.205   9.832  14.483  0.00  0.00    +0.000 OA
ATOM     13  H   UNL     1      46.851   8.762  16.325  0.00  0.00    +0.000 HD
ATOM     14  H   UNL     1      47.970  10.065  16.545  0.00  0.00    +0.000 HD
ENDBRANCH   6  10
BRANCH   1  15
ATOM     15  C   UNL     1      44.970   4.421  11.525  0.00  0.00    +0.000 C 
BRANCH  15  19
ATOM     16  C   UNL     1      45.871   2.956   7.541  0.00  0.00    +0.000 A 
ATOM     17  C   UNL     1      46.001   4.318   7.844  0.00  0.00    +0.000 A 
ATOM     18  C   UNL     1      45.700   4.792   9.126  0.00  0.00    +0.000 A 
ATOM     19  C   UNL     1      45.259   3.917  10.132  0.00  0.00    +0.000 A 
ATOM     20  C   UNL     1      45.138   2.556   9.830  0.00  0.00    +0.000 A 
ATOM     21  C   UNL     1      45.452   2.081   8.551  0.00  0.00    +0.000 A 
BRANCH  16  22
ATOM     22  C   UNL     1      46.155   2.440   6.149  0.00  0.00    +0.000 C 
BRANCH  22  23
ATOM     23  C   UNL     1      47.522   2.873   5.608  0.00  0.00    +0.000 C 
BRANCH  23  24
ATOM     24  N   UNL     1      48.489   1.776   5.709  0.00  0.00    +0.000 NA
ATOM     25  H   UNL     1      48.764   1.478   4.776  0.00  0.00    +0.000 HD
ATOM     26  H   UNL     1      48.046   0.969   6.147  0.00  0.00    +0.000 HD
ENDBRANCH  23  24
ENDBRANCH  22  23
ENDBRANCH  16  22
ENDBRANCH  15  19
ENDBRANCH   1  15
TORSDOF 6
ENDMDL
MODEL 6
REMARK VINA RESULT:    -6.078      1.784      2.093
REMARK INTER + INTRA:          -8.759
REMARK INTER:                  -8.133
REMARK INTRA:                  -0.626
REMARK UNBOUND:                -0.726
REMARK  Name = 
REMARK  6 active torsions:
REMARK  status: ('A' for Active; 'I' for Inactive)
REMARK    1  A    between atoms: N_1  and  C_2
REMARK    2  A    between atoms: C_2  and  C_3
REMARK    3  A    between atoms: C_3  and  C_4
REMARK    4  A    between atoms: C_7  and  C_8
REMARK    5  A    between atoms: C_8  and  N_9
REMARK    6  A    between atoms: C_14  and  C_15
REMARK                            x       y       z     vdW  Elec       q    Type
REMARK                         _______ _______ _______ _____ _____    ______ ____
ROOT
ATOM      1  N   UNL     1      43.607   4.609  12.250  0.00  0.00    +0.000 N 
ATOM      2  C   UNL     1      43.466   3.426  12.926  0.00  0.00    +0.000 A 
ATOM      3  N   UNL     1      43.836   2.396  12.200  0.00  0.00    +0.000 NA
ATOM      4  C   UNL     1      44.214   2.926  10.994  0.00  0.00    +0.000 A 
ATOM      5  C   UNL     1      44.830   2.297   9.904  0.00  0.00    +0.000 A 
ATOM      6  C   UNL     1      45.188   3.063   8.783  0.00  0.00    +0.000 A 
ATOM      7  C   UNL     1      44.813   4.414   8.712  0.00  0.00    +0.000 A 
ATOM      8  C   UNL     1      44.192   5.058   9.795  0.00  0.00    +0.000 A 
ATOM      9  C   UNL     1      43.969   4.297  10.949  0.00  0.00    +0.000 A 
ENDROOT
BRANCH   6  10
ATOM     10  C   UNL     1      46.050   2.390   7.763  0.00  0.00    +0.000 C 
ATOM     11  N   UNL     1      46.364   3.061   6.612  0.00  0.00    +0.000 N 
ATOM     12  O   UNL     1      46.518   1.277   7.954  0.00  0.00    +0.000 OA
ATOM     13  H   UNL     1      46.011   3.963   6.341  0.00  0.00    +0.000 HD
ATOM     14  H   UNL     1      46.997   2.586   5.982  0.00  0.00    +0.000 HD
ENDBRANCH   6  10
BRANCH   1  15
ATOM     15  C   UNL     1      43.816   5.912  12.872  0.00  0.00    +0.000 C 
BRANCH  15  19
ATOM     16  C   UNL     1      47.640   7.821  12.123  0.00  0.00    +0.000 A 
ATOM     17  C   UNL     1      46.443   8.523  11.923  0.00  0.00    +0.000 A 
ATOM     18  C   UNL     1      45.210   7.904  12.154  0.00  0.00    +0.000 A 
ATOM     19  C   UNL     1      45.145   6.569  12.587  0.00  0.00    +0.000 A 
ATOM     20  C   UNL     1      46.341   5.872  12.794  0.00  0.00    +0.000 A 
ATOM     21  C   UNL     1      47.574   6.497  12.575  0.00  0.00    +0.000 A 
BRANCH  16  22
ATOM     22  C   UNL     1      48.977   8.467  11.838  0.00  0.00    +0.000 C 
BRANCH  22  23
ATOM     23  C   UNL     1      50.135   7.839  12.620  0.00  0.00    +0.000 C 
BRANCH  23  24
ATOM     24  N   UNL     1      51.330   7.732  11.779  0.00  0.00    +0.000 NA
ATOM     25  H   UNL     1      51.370   6.806  11.361  0.00  0.00    +0.000 HD
ATOM     26  H   UNL     1      52.165   7.820  12.359  0.00  0.00    +0.000 HD
ENDBRANCH  23  24
ENDBRANCH  22  23
ENDBRANCH  16  22
ENDBRANCH  15  19
ENDBRANCH   1  15
TORSDOF 6
ENDMDL
MODEL 7
REMARK VINA RESULT:    -5.930      3.891      6.408
REMARK INTER + INTRA:          -8.562
REMARK INTER:                  -8.035
REMARK INTRA:                  -0.527
REMARK UNBOUND:                -0.726
REMARK  Name = 
REMARK  6 active torsions:
REMARK  status: ('A' for Active; 'I' for Inactive)
REMARK    1  A    between atoms: N_1  and  C_2
REMARK    2  A    between atoms: C_2  and  C_3
REMARK    3  A    between atoms: C_3  and  C_4
REMARK    4  A    between atoms: C_7  and  C_8
REMARK    5  A    between atoms: C_8  and  N_9
REMARK    6  A    between atoms: C_14  and  C_15
REMARK                            x       y       z     vdW  Elec       q    Type
REMARK                         _______ _______ _______ _____ _____    ______ ____
ROOT
ATOM      1  N   UNL     1      47.828   5.334  15.058  0.00  0.00    +0.000 N 
ATOM      2  C   UNL     1      48.211   6.620  14.779  0.00  0.00    +0.000 A 
ATOM      3  N   UNL     1      47.673   7.063  13.666  0.00  0.00    +0.000 NA
ATOM      4  C   UNL     1      46.926   6.019  13.189  0.00  0.00    +0.000 A 
ATOM      5  C   UNL     1      46.028   5.991  12.114  0.00  0.00    +0.000 A 
ATOM      6  C   UNL     1      45.317   4.809  11.844  0.00  0.00    +0.000 A 
ATOM      7  C   UNL     1      45.605   3.642  12.568  0.00  0.00    +0.000 A 
ATOM      8  C   UNL     1      46.504   3.653  13.647  0.00  0.00    +0.000 A 
ATOM      9  C   UNL     1      47.097   4.880  13.972  0.00  0.00    +0.000 A 
ENDROOT
BRANCH   6  10
ATOM     10  C   UNL     1      44.209   4.911  10.846  0.00  0.00    +0.000 C 
ATOM     11  N   UNL     1      43.422   6.030  10.838  0.00  0.00    +0.000 N 
ATOM     12  O   UNL     1      44.021   4.041  10.007  0.00  0.00    +0.000 OA
ATOM     13  H   UNL     1      43.468   6.788  11.498  0.00  0.00    +0.000 HD
ATOM     14  H   UNL     1      42.725   6.076  10.106  0.00  0.00    +0.000 HD
ENDBRANCH   6  10
BRANCH   1  15
ATOM     15  C   UNL     1      47.774   4.745  16.392  0.00  0.00    +0.000 C 
BRANCH  15  19
ATOM     16  C   UNL     1      51.405   2.719  17.632  0.00  0.00    +0.000 A 
ATOM     17  C   UNL     1      50.332   1.992  17.096  0.00  0.00    +0.000 A 
ATOM     18  C   UNL     1      49.157   2.645  16.707  0.00  0.00    +0.000 A 
ATOM     19  C   UNL     1      49.026   4.037  16.846  0.00  0.00    +0.000 A 
ATOM     20  C   UNL     1      50.102   4.761  17.374  0.00  0.00    +0.000 A 
ATOM     21  C   UNL     1      51.281   4.108  17.752  0.00  0.00    +0.000 A 
BRANCH  16  22
ATOM     22  C   UNL     1      52.663   2.018  18.094  0.00  0.00    +0.000 C 
BRANCH  22  23
ATOM     23  C   UNL     1      52.884   0.660  17.419  0.00  0.00    +0.000 C 
BRANCH  23  24
ATOM     24  N   UNL     1      52.926  -0.413  18.416  0.00  0.00    +0.000 NA
ATOM     25  H   UNL     1      53.870  -0.785  18.476  0.00  0.00    +0.000 HD
ATOM     26  H   UNL     1      52.332  -1.185  18.112  0.00  0.00    +0.000 HD
ENDBRANCH  23  24
ENDBRANCH  22  23
ENDBRANCH  16  22
ENDBRANCH  15  19
ENDBRANCH   1  15
TORSDOF 6
ENDMDL
MODEL 8
REMARK VINA RESULT:    -5.496      3.337      5.875
REMARK INTER + INTRA:          -7.989
REMARK INTER:                  -7.403
REMARK INTRA:                  -0.586
REMARK UNBOUND:                -0.726
REMARK  Name = 
REMARK  6 active torsions:
REMARK  status: ('A' for Active; 'I' for Inactive)
REMARK    1  A    between atoms: N_1  and  C_2
REMARK    2  A    between atoms: C_2  and  C_3
REMARK    3  A    between atoms: C_3  and  C_4
REMARK    4  A    between atoms: C_7  and  C_8
REMARK    5  A    between atoms: C_8  and  N_9
REMARK    6  A    between atoms: C_14  and  C_15
REMARK                            x       y       z     vdW  Elec       q    Type
REMARK                         _______ _______ _______ _____ _____    ______ ____
ROOT
ATOM      1  N   UNL     1      48.232   6.997  13.654  0.00  0.00    +0.000 N 
ATOM      2  C   UNL     1      48.794   7.633  12.577  0.00  0.00    +0.000 A 
ATOM      3  N   UNL     1      48.124   7.409  11.470  0.00  0.00    +0.000 NA
ATOM      4  C   UNL     1      47.097   6.578  11.834  0.00  0.00    +0.000 A 
ATOM      5  C   UNL     1      45.998   6.145  11.080  0.00  0.00    +0.000 A 
ATOM      6  C   UNL     1      45.024   5.336  11.689  0.00  0.00    +0.000 A 
ATOM      7  C   UNL     1      45.225   4.868  12.997  0.00  0.00    +0.000 A 
ATOM      8  C   UNL     1      46.323   5.291  13.765  0.00  0.00    +0.000 A 
ATOM      9  C   UNL     1      47.205   6.202  13.171  0.00  0.00    +0.000 A 
ENDROOT
BRANCH   6  10
ATOM     10  C   UNL     1      43.767   5.107  10.913  0.00  0.00    +0.000 C 
ATOM     11  N   UNL     1      43.854   4.818   9.579  0.00  0.00    +0.000 N 
ATOM     12  O   UNL     1      42.669   5.124  11.453  0.00  0.00    +0.000 OA
ATOM     13  H   UNL     1      44.697   4.808   9.031  0.00  0.00    +0.000 HD
ATOM     14  H   UNL     1      42.979   4.613   9.113  0.00  0.00    +0.000 HD
ENDBRANCH   6  10
BRANCH   1  15
ATOM     15  C   UNL     1      48.356   7.430  15.042  0.00  0.00    +0.000 C 
BRANCH  15  19
ATOM     16  C   UNL     1      50.655   4.763  17.578  0.00  0.00    +0.000 A 
ATOM     17  C   UNL     1      49.273   4.587  17.429  0.00  0.00    +0.000 A 
ATOM     18  C   UNL     1      48.530   5.454  16.620  0.00  0.00    +0.000 A 
ATOM     19  C   UNL     1      49.151   6.518  15.944  0.00  0.00    +0.000 A 
ATOM     20  C   UNL     1      50.532   6.687  16.088  0.00  0.00    +0.000 A 
ATOM     21  C   UNL     1      51.277   5.812  16.888  0.00  0.00    +0.000 A 
BRANCH  16  22
ATOM     22  C   UNL     1      51.461   3.858  18.482  0.00  0.00    +0.000 C 
BRANCH  22  23
ATOM     23  C   UNL     1      52.140   2.704  17.736  0.00  0.00    +0.000 C 
BRANCH  23  24
ATOM     24  N   UNL     1      51.348   1.476  17.850  0.00  0.00    +0.000 NA
ATOM     25  H   UNL     1      50.653   1.450  17.108  0.00  0.00    +0.000 HD
ATOM     26  H   UNL     1      50.827   1.486  18.728  0.00  0.00    +0.000 HD
ENDBRANCH  23  24
ENDBRANCH  22  23
ENDBRANCH  16  22
ENDBRANCH  15  19
ENDBRANCH   1  15
TORSDOF 6
ENDMDL
MODEL 9
REMARK VINA RESULT:    -5.462      2.675      3.953
REMARK INTER + INTRA:          -7.944
REMARK INTER:                  -7.330
REMARK INTRA:                  -0.614
REMARK UNBOUND:                -0.726
REMARK  Name = 
REMARK  6 active torsions:
REMARK  status: ('A' for Active; 'I' for Inactive)
REMARK    1  A    between atoms: N_1  and  C_2
REMARK    2  A    between atoms: C_2  and  C_3
REMARK    3  A    between atoms: C_3  and  C_4
REMARK    4  A    between atoms: C_7  and  C_8
REMARK    5  A    between atoms: C_8  and  N_9
REMARK    6  A    between atoms: C_14  and  C_15
REMARK                            x       y       z     vdW  Elec       q    Type
REMARK                         _______ _______ _______ _____ _____    ______ ____
ROOT
ATOM      1  N   UNL     1      45.825   6.029  13.277  0.00  0.00    +0.000 N 
ATOM      2  C   UNL     1      46.367   5.041  14.056  0.00  0.00    +0.000 A 
ATOM      3  N   UNL     1      46.256   3.858  13.497  0.00  0.00    +0.000 NA
ATOM      4  C   UNL     1      45.596   4.080  12.317  0.00  0.00    +0.000 A 
ATOM      5  C   UNL     1      45.344   3.192  11.262  0.00  0.00    +0.000 A 
ATOM      6  C   UNL     1      44.697   3.664  10.108  0.00  0.00    +0.000 A 
ATOM      7  C   UNL     1      44.198   4.976  10.075  0.00  0.00    +0.000 A 
ATOM      8  C   UNL     1      44.440   5.877  11.126  0.00  0.00    +0.000 A 
ATOM      9  C   UNL     1      45.203   5.412  12.204  0.00  0.00    +0.000 A 
ENDROOT
BRANCH   6  10
ATOM     10  C   UNL     1      44.671   2.741   8.933  0.00  0.00    +0.000 C 
ATOM     11  N   UNL     1      44.617   1.391   9.150  0.00  0.00    +0.000 N 
ATOM     12  O   UNL     1      44.648   3.164   7.786  0.00  0.00    +0.000 OA
ATOM     13  H   UNL     1      44.662   0.935  10.046  0.00  0.00    +0.000 HD
ATOM     14  H   UNL     1      44.542   0.812   8.323  0.00  0.00    +0.000 HD
ENDBRANCH   6  10
BRANCH   1  15
ATOM     15  C   UNL     1      46.228   7.432  13.300  0.00  0.00    +0.000 C 
BRANCH  15  19
ATOM     16  C   UNL     1      50.400   8.138  12.342  0.00  0.00    +0.000 A 
ATOM     17  C   UNL     1      49.968   8.133  13.675  0.00  0.00    +0.000 A 
ATOM     18  C   UNL     1      48.620   7.916  13.983  0.00  0.00    +0.000 A 
ATOM     19  C   UNL     1      47.674   7.703  12.966  0.00  0.00    +0.000 A 
ATOM     20  C   UNL     1      48.110   7.700  11.636  0.00  0.00    +0.000 A 
ATOM     21  C   UNL     1      49.461   7.905  11.330  0.00  0.00    +0.000 A 
BRANCH  16  22
ATOM     22  C   UNL     1      51.847   8.412  11.996  0.00  0.00    +0.000 C 
BRANCH  22  23
ATOM     23  C   UNL     1      52.214   8.013  10.563  0.00  0.00    +0.000 C 
BRANCH  23  24
ATOM     24  N   UNL     1      52.560   6.591  10.493  0.00  0.00    +0.000 NA
ATOM     25  H   UNL     1      51.966   6.065  11.129  0.00  0.00    +0.000 HD
ATOM     26  H   UNL     1      53.517   6.456  10.819  0.00  0.00    +0.000 HD
ENDBRANCH  23  24
ENDBRANCH  22  23
ENDBRANCH  16  22
ENDBRANCH  15  19
ENDBRANCH   1  15
TORSDOF 6
ENDMDL
