MODEL 1
REMARK VINA RESULT:    -7.745      0.000      0.000
REMARK INTER + INTRA:         -11.436
REMARK INTER:                 -10.462
REMARK INTRA:                  -0.974
REMARK UNBOUND:                -0.974
REMARK  Name = 
REMARK  7 active torsions:
REMARK  status: ('A' for Active; 'I' for Inactive)
REMARK    1  A    between atoms: C_1  and  N_2
REMARK    2  A    between atoms: C_5  and  C_6
REMARK    3  A    between atoms: N_8  and  C_9
REMARK    4  A    between atoms: C_9  and  C_10
REMARK    5  A    between atoms: C_13  and  C_14
REMARK    6  A    between atoms: C_14  and  N_15
REMARK    7  A    between atoms: C_16  and  C_18
REMARK                            x       y       z     vdW  Elec       q    Type
REMARK                         _______ _______ _______ _____ _____    ______ ____
ROOT
ATOM      1  C   UNL     1      44.883   6.289  11.293  0.00  0.00    +0.000 A 
ATOM      2  C   UNL     1      46.040   5.710  11.834  0.00  0.00    +0.000 A 
ATOM      3  C   UNL     1      46.889   6.447  12.670  0.00  0.00    +0.000 A 
ATOM      4  C   UNL     1      46.589   7.774  13.002  0.00  0.00    +0.000 A 
ATOM      5  C   UNL     1      45.439   8.357  12.454  0.00  0.00    +0.000 A 
ATOM      6  C   UNL     1      44.589   7.620  11.619  0.00  0.00    +0.000 A 
ENDROOT
BRANCH   1   7
ATOM      7  C   UNL     1      43.989   5.503  10.368  0.00  0.00    +0.000 C 
BRANCH   7  10
ATOM      8  C   UNL     1      44.650   3.353   9.375  0.00  0.00    +0.000 C 
ATOM      9  O   UNL     1      43.955   2.700  10.145  0.00  0.00    +0.000 OA
ATOM     10  N   UNL     1      44.719   4.731   9.397  0.00  0.00    +0.000 N 
ATOM     11  H   UNL     1      45.358   5.166   8.738  0.00  0.00    +0.000 HD
BRANCH   8  16
ATOM     12  C   UNL     1      47.194   2.863   5.277  0.00  0.00    +0.000 C 
ATOM     13  N   UNL     1      46.612   2.492   6.544  0.00  0.00    +0.000 N 
ATOM     14  C   UNL     1      46.750   1.297   7.185  0.00  0.00    +0.000 A 
ATOM     15  C   UNL     1      46.042   1.419   8.357  0.00  0.00    +0.000 A 
ATOM     16  C   UNL     1      45.496   2.731   8.339  0.00  0.00    +0.000 A 
ATOM     17  N   UNL     1      45.857   3.384   7.214  0.00  0.00    +0.000 NA
ENDBRANCH   8  16
ENDBRANCH   7  10
ENDBRANCH   1   7
BRANCH   4  18
ATOM     18  C   UNL     1      47.486   8.573  13.916  0.00  0.00    +0.000 C 
BRANCH  18  19
ATOM     19  N   UNL     1      47.876   7.819  15.083  0.00  0.00    +0.000 N 
ATOM     20  C   UNL     1      49.119   7.242  15.172  0.00  0.00    +0.000 C 
ATOM     21  O   UNL     1      49.964   7.374  14.291  0.00  0.00    +0.000 OA
ATOM     22  H   UNL     1      47.132   7.495  15.691  0.00  0.00    +0.000 HD
BRANCH  20  23
ATOM     23  C   UNL     1      49.413   6.505  16.408  0.00  0.00    +0.000 A 
ATOM     24  C   UNL     1      50.425   6.946  17.253  0.00  0.00    +0.000 A 
ATOM     25  S   UNL     1      50.591   6.009  18.668  0.00  0.00    +0.000 S 
ATOM     26  C   UNL     1      49.354   4.949  18.178  0.00  0.00    +0.000 A 
ATOM     27  N   UNL     1      49.002   3.881  18.944  0.00  0.00    +0.000 NA
ATOM     28  C   UNL     1      48.068   3.146  18.440  0.00  0.00    +0.000 A 
ATOM     29  N   UNL     1      47.452   3.385  17.239  0.00  0.00    +0.000 N 
ATOM     30  C   UNL     1      47.756   4.464  16.445  0.00  0.00    +0.000 A 
ATOM     31  O   UNL     1      47.157   4.669  15.393  0.00  0.00    +0.000 OA
ATOM     32  C   UNL     1      48.808   5.318  16.962  0.00  0.00    +0.000 A 
ATOM     33  H   UNL     1      46.721   2.775  16.901  0.00  0.00    +0.000 HD
ENDBRANCH  20  23
ENDBRANCH  18  19
ENDBRANCH   4  18
TORSDOF 6
ENDMDL
MODEL 2
REMARK VINA RESULT:    -7.640      1.087      1.575
REMARK INTER + INTRA:         -11.294
REMARK INTER:                 -10.736
REMARK INTRA:                  -0.557
REMARK UNBOUND:                -0.974
REMARK  Name = 
REMARK  7 active torsions:
REMARK  status: ('A' for Active; 'I' for Inactive)
REMARK    1  A    between atoms: C_1  and  N_2
REMARK    2  A    between atoms: C_5  and  C_6
REMARK    3  A    between atoms: N_8  and  C_9
REMARK    4  A    between atoms: C_9  and  C_10
REMARK    5  A    between atoms: C_13  and  C_14
REMARK    6  A    between atoms: C_14  and  N_15
REMARK    7  A    between atoms: C_16  and  C_18
REMARK                            x       y       z     vdW  Elec       q    Type
REMARK                         _______ _______ _______ _____ _____    ______ ____
ROOT
ATOM      1  C   UNL     1      44.752   5.572  11.291  0.00  0.00    +0.000 A 
ATOM      2  C   UNL     1      44.456   6.941  11.364  0.00  0.00    +0.000 A 
ATOM      3  C   UNL     1      45.244   7.805  12.134  0.00  0.00    +0.000 A 
ATOM      4  C   UNL     1      46.358   7.325  12.834  0.00  0.00    +0.000 A 
ATOM      5  C   UNL     1      46.648   5.956  12.771  0.00  0.00    +0.000 A 
ATOM      6  C   UNL     1      45.862   5.091  11.999  0.00  0.00    +0.000 A 
ENDROOT
BRANCH   1   7
ATOM      7  C   UNL     1      43.883   4.639  10.486  0.00  0.00    +0.000 C 
BRANCH   7  10
ATOM      8  C   UNL     1      45.489   4.053   8.719  0.00  0.00    +0.000 C 
ATOM      9  O   UNL     1      45.682   5.222   8.405  0.00  0.00    +0.000 OA
ATOM     10  N   UNL     1      44.638   3.670   9.736  0.00  0.00    +0.000 N 
ATOM     11  H   UNL     1      44.525   2.671   9.883  0.00  0.00    +0.000 HD
BRANCH   8  16
ATOM     12  C   UNL     1      46.661  -0.514   7.589  0.00  0.00    +0.000 C 
ATOM     13  N   UNL     1      46.680   0.928   7.528  0.00  0.00    +0.000 N 
ATOM     14  C   UNL     1      47.411   1.697   6.673  0.00  0.00    +0.000 A 
ATOM     15  C   UNL     1      47.085   2.999   6.971  0.00  0.00    +0.000 A 
ATOM     16  C   UNL     1      46.146   2.923   8.035  0.00  0.00    +0.000 A 
ATOM     17  N   UNL     1      45.903   1.638   8.369  0.00  0.00    +0.000 NA
ENDBRANCH   8  16
ENDBRANCH   7  10
ENDBRANCH   1   7
BRANCH   4  18
ATOM     18  C   UNL     1      47.225   8.250  13.653  0.00  0.00    +0.000 C 
BRANCH  18  19
ATOM     19  N   UNL     1      47.710   7.614  14.853  0.00  0.00    +0.000 N 
ATOM     20  C   UNL     1      48.974   7.078  14.912  0.00  0.00    +0.000 C 
ATOM     21  O   UNL     1      49.758   7.152  13.970  0.00  0.00    +0.000 OA
ATOM     22  H   UNL     1      47.016   7.326  15.534  0.00  0.00    +0.000 HD
BRANCH  20  23
ATOM     23  C   UNL     1      49.366   6.462  16.186  0.00  0.00    +0.000 A 
ATOM     24  C   UNL     1      50.385   7.027  16.944  0.00  0.00    +0.000 A 
ATOM     25  S   UNL     1      50.670   6.220  18.419  0.00  0.00    +0.000 S 
ATOM     26  C   UNL     1      49.481   5.054  18.074  0.00  0.00    +0.000 A 
ATOM     27  N   UNL     1      49.230   4.033  18.936  0.00  0.00    +0.000 NA
ATOM     28  C   UNL     1      48.321   3.206  18.538  0.00  0.00    +0.000 A 
ATOM     29  N   UNL     1      47.639   3.311  17.353  0.00  0.00    +0.000 N 
ATOM     30  C   UNL     1      47.842   4.338  16.463  0.00  0.00    +0.000 A 
ATOM     31  O   UNL     1      47.186   4.422  15.428  0.00  0.00    +0.000 OA
ATOM     32  C   UNL     1      48.860   5.290  16.860  0.00  0.00    +0.000 A 
ATOM     33  H   UNL     1      46.934   2.635  17.100  0.00  0.00    +0.000 HD
ENDBRANCH  20  23
ENDBRANCH  18  19
ENDBRANCH   4  18
TORSDOF 6
ENDMDL
MODEL 3
REMARK VINA RESULT:    -7.384      4.814      9.881
REMARK INTER + INTRA:         -10.948
REMARK INTER:                 -10.124
REMARK INTRA:                  -0.824
REMARK UNBOUND:                -0.974
REMARK  Name = 
REMARK  7 active torsions:
REMARK  status: ('A' for Active; 'I' for Inactive)
REMARK    1  A    between atoms: C_1  and  N_2
REMARK    2  A    between atoms: C_5  and  C_6
REMARK    3  A    between atoms: N_8  and  C_9
REMARK    4  A    between atoms: C_9  and  C_10
REMARK    5  A    between atoms: C_13  and  C_14
REMARK    6  A    between atoms: C_14  and  N_15
REMARK    7  A    between atoms: C_16  and  C_18
REMARK                            x       y       z     vdW  Elec       q    Type
REMARK                         _______ _______ _______ _____ _____    ______ ____
ROOT
ATOM      1  C   UNL     1      51.458   2.953  17.737  0.00  0.00    +0.000 A 
ATOM      2  C   UNL     1      50.864   4.201  17.974  0.00  0.00    +0.000 A 
ATOM      3  C   UNL     1      49.507   4.414  17.698  0.00  0.00    +0.000 A 
ATOM      4  C   UNL     1      48.707   3.379  17.199  0.00  0.00    +0.000 A 
ATOM      5  C   UNL     1      49.302   2.134  16.952  0.00  0.00    +0.000 A 
ATOM      6  C   UNL     1      50.659   1.920  17.229  0.00  0.00    +0.000 A 
ENDROOT
BRANCH   1   7
ATOM      7  C   UNL     1      52.926   2.737  18.005  0.00  0.00    +0.000 C 
BRANCH   7  10
ATOM      8  C   UNL     1      54.158   0.629  17.717  0.00  0.00    +0.000 C 
ATOM      9  O   UNL     1      54.791   1.046  16.753  0.00  0.00    +0.000 OA
ATOM     10  N   UNL     1      53.234   1.389  18.405  0.00  0.00    +0.000 N 
ATOM     11  H   UNL     1      52.740   0.929  19.164  0.00  0.00    +0.000 HD
BRANCH   8  16
ATOM     12  C   UNL     1      53.336  -3.332  20.388  0.00  0.00    +0.000 C 
ATOM     13  N   UNL     1      53.975  -2.486  19.410  0.00  0.00    +0.000 N 
ATOM     14  C   UNL     1      55.025  -2.819  18.607  0.00  0.00    +0.000 A 
ATOM     15  C   UNL     1      55.268  -1.710  17.832  0.00  0.00    +0.000 A 
ATOM     16  C   UNL     1      54.314  -0.740  18.244  0.00  0.00    +0.000 A 
ATOM     17  N   UNL     1      53.521  -1.233  19.218  0.00  0.00    +0.000 NA
ENDBRANCH   8  16
ENDBRANCH   7  10
ENDBRANCH   1   7
BRANCH   4  18
ATOM     18  C   UNL     1      47.240   3.591  16.915  0.00  0.00    +0.000 C 
BRANCH  18  19
ATOM     19  N   UNL     1      47.026   4.598  15.905  0.00  0.00    +0.000 N 
ATOM     20  C   UNL     1      47.085   4.287  14.569  0.00  0.00    +0.000 C 
ATOM     21  O   UNL     1      47.279   3.141  14.174  0.00  0.00    +0.000 OA
ATOM     22  H   UNL     1      47.113   5.566  16.196  0.00  0.00    +0.000 HD
BRANCH  20  23
ATOM     23  C   UNL     1      46.842   5.389  13.628  0.00  0.00    +0.000 A 
ATOM     24  C   UNL     1      47.875   6.261  13.304  0.00  0.00    +0.000 A 
ATOM     25  S   UNL     1      47.437   7.443  12.155  0.00  0.00    +0.000 S 
ATOM     26  C   UNL     1      45.838   6.867  12.091  0.00  0.00    +0.000 A 
ATOM     27  N   UNL     1      44.909   7.466  11.299  0.00  0.00    +0.000 NA
ATOM     28  C   UNL     1      43.730   6.943  11.366  0.00  0.00    +0.000 A 
ATOM     29  N   UNL     1      43.398   5.871  12.155  0.00  0.00    +0.000 N 
ATOM     30  C   UNL     1      44.308   5.219  12.950  0.00  0.00    +0.000 A 
ATOM     31  O   UNL     1      43.985   4.238  13.615  0.00  0.00    +0.000 OA
ATOM     32  C   UNL     1      45.647   5.775  12.918  0.00  0.00    +0.000 A 
ATOM     33  H   UNL     1      42.458   5.503  12.158  0.00  0.00    +0.000 HD
ENDBRANCH  20  23
ENDBRANCH  18  19
ENDBRANCH   4  18
TORSDOF 6
ENDMDL
MODEL 4
REMARK VINA RESULT:    -7.140      2.076      2.652
REMARK INTER + INTRA:         -10.619
REMARK INTER:                  -9.746
REMARK INTRA:                  -0.873
REMARK UNBOUND:                -0.974
REMARK  Name = 
REMARK  7 active torsions:
REMARK  status: ('A' for Active; 'I' for Inactive)
REMARK    1  A    between atoms: C_1  and  N_2
REMARK    2  A    between atoms: C_5  and  C_6
REMARK    3  A    between atoms: N_8  and  C_9
REMARK    4  A    between atoms: C_9  and  C_10
REMARK    5  A    between atoms: C_13  and  C_14
REMARK    6  A    between atoms: C_14  and  N_15
REMARK    7  A    between atoms: C_16  and  C_18
REMARK                            x       y       z     vdW  Elec       q    Type
REMARK                         _______ _______ _______ _____ _____    ______ ____
ROOT
ATOM      1  C   UNL     1      45.302   6.623  11.438  0.00  0.00    +0.000 A 
ATOM      2  C   UNL     1      44.911   7.780  12.127  0.00  0.00    +0.000 A 
ATOM      3  C   UNL     1      45.776   8.399  13.039  0.00  0.00    +0.000 A 
ATOM      4  C   UNL     1      47.059   7.887  13.269  0.00  0.00    +0.000 A 
ATOM      5  C   UNL     1      47.446   6.724  12.589  0.00  0.00    +0.000 A 
ATOM      6  C   UNL     1      46.583   6.106  11.675  0.00  0.00    +0.000 A 
ENDROOT
BRANCH   1   7
ATOM      7  C   UNL     1      44.357   5.941  10.480  0.00  0.00    +0.000 C 
BRANCH   7  10
ATOM      8  C   UNL     1      44.673   3.671   9.591  0.00  0.00    +0.000 C 
ATOM      9  O   UNL     1      43.783   3.196  10.287  0.00  0.00    +0.000 OA
ATOM     10  N   UNL     1      45.015   5.008   9.605  0.00  0.00    +0.000 N 
ATOM     11  H   UNL     1      45.795   5.285   9.015  0.00  0.00    +0.000 HD
BRANCH   8  16
ATOM     12  C   UNL     1      46.759  -0.224   7.597  0.00  0.00    +0.000 C 
ATOM     13  N   UNL     1      46.412   1.165   7.775  0.00  0.00    +0.000 N 
ATOM     14  C   UNL     1      46.796   2.208   6.986  0.00  0.00    +0.000 A 
ATOM     15  C   UNL     1      46.205   3.324   7.530  0.00  0.00    +0.000 A 
ATOM     16  C   UNL     1      45.481   2.859   8.662  0.00  0.00    +0.000 A 
ATOM     17  N   UNL     1      45.616   1.523   8.801  0.00  0.00    +0.000 NA
ENDBRANCH   8  16
ENDBRANCH   7  10
ENDBRANCH   1   7
BRANCH   4  18
ATOM     18  C   UNL     1      48.006   8.555  14.235  0.00  0.00    +0.000 C 
BRANCH  18  19
ATOM     19  N   UNL     1      47.947   7.959  15.548  0.00  0.00    +0.000 N 
ATOM     20  C   UNL     1      48.887   7.045  15.955  0.00  0.00    +0.000 C 
ATOM     21  O   UNL     1      49.837   6.725  15.246  0.00  0.00    +0.000 OA
ATOM     22  H   UNL     1      47.061   8.015  16.038  0.00  0.00    +0.000 HD
BRANCH  20  23
ATOM     23  C   UNL     1      48.734   6.509  17.315  0.00  0.00    +0.000 A 
ATOM     24  C   UNL     1      48.989   5.165  17.561  0.00  0.00    +0.000 A 
ATOM     25  S   UNL     1      48.820   4.726  19.200  0.00  0.00    +0.000 S 
ATOM     26  C   UNL     1      48.347   6.302  19.631  0.00  0.00    +0.000 A 
ATOM     27  N   UNL     1      48.023   6.610  20.916  0.00  0.00    +0.000 NA
ATOM     28  C   UNL     1      47.657   7.836  21.097  0.00  0.00    +0.000 A 
ATOM     29  N   UNL     1      47.589   8.781  20.106  0.00  0.00    +0.000 N 
ATOM     30  C   UNL     1      47.930   8.523  18.802  0.00  0.00    +0.000 A 
ATOM     31  O   UNL     1      47.893   9.404  17.947  0.00  0.00    +0.000 OA
ATOM     32  C   UNL     1      48.339   7.156  18.543  0.00  0.00    +0.000 A 
ATOM     33  H   UNL     1      47.301   9.727  20.313  0.00  0.00    +0.000 HD
ENDBRANCH  20  23
ENDBRANCH  18  19
ENDBRANCH   4  18
TORSDOF 6
ENDMDL
MODEL 5
REMARK VINA RESULT:    -7.088      4.784      9.780
REMARK INTER + INTRA:         -10.548
REMARK INTER:                  -9.444
REMARK INTRA:                  -1.104
REMARK UNBOUND:                -0.974
REMARK  Name = 
REMARK  7 active torsions:
REMARK  status: ('A' for Active; 'I' for Inactive)
REMARK    1  A    between atoms: C_1  and  N_2
REMARK    2  A    between atoms: C_5  and  C_6
REMARK    3  A    between atoms: N_8  and  C_9
REMARK    4  A    between atoms: C_9  and  C_10
REMARK    5  A    between atoms: C_13  and  C_14
REMARK    6  A    between atoms: C_14  and  N_15
REMARK    7  A    between atoms: C_16  and  C_18
REMARK                            x       y       z     vdW  Elec       q    Type
REMARK                         _______ _______ _______ _____ _____    ______ ____
ROOT
ATOM      1  C   UNL     1      51.325   2.976  17.791  0.00  0.00    +0.000 A 
ATOM      2  C   UNL     1      50.762   4.242  18.008  0.00  0.00    +0.000 A 
ATOM      3  C   UNL     1      49.426   4.500  17.679  0.00  0.00    +0.000 A 
ATOM      4  C   UNL     1      48.614   3.492  17.142  0.00  0.00    +0.000 A 
ATOM      5  C   UNL     1      49.179   2.230  16.914  0.00  0.00    +0.000 A 
ATOM      6  C   UNL     1      50.515   1.971  17.246  0.00  0.00    +0.000 A 
ENDROOT
BRANCH   1   7
ATOM      7  C   UNL     1      52.773   2.711  18.118  0.00  0.00    +0.000 C 
BRANCH   7  10
ATOM      8  C   UNL     1      54.091   0.657  17.811  0.00  0.00    +0.000 C 
ATOM      9  O   UNL     1      54.869   1.188  17.027  0.00  0.00    +0.000 OA
ATOM     10  N   UNL     1      53.043   1.328  18.409  0.00  0.00    +0.000 N 
ATOM     11  H   UNL     1      52.437   0.779  19.013  0.00  0.00    +0.000 HD
BRANCH   8  16
ATOM     12  C   UNL     1      53.251  -3.462  20.225  0.00  0.00    +0.000 C 
ATOM     13  N   UNL     1      53.840  -2.579  19.248  0.00  0.00    +0.000 N 
ATOM     14  C   UNL     1      54.753  -2.915  18.293  0.00  0.00    +0.000 A 
ATOM     15  C   UNL     1      54.997  -1.759  17.589  0.00  0.00    +0.000 A 
ATOM     16  C   UNL     1      54.188  -0.763  18.198  0.00  0.00    +0.000 A 
ATOM     17  N   UNL     1      53.477  -1.282  19.221  0.00  0.00    +0.000 NA
ENDBRANCH   8  16
ENDBRANCH   7  10
ENDBRANCH   1   7
BRANCH   4  18
ATOM     18  C   UNL     1      47.168   3.752  16.799  0.00  0.00    +0.000 C 
BRANCH  18  19
ATOM     19  N   UNL     1      47.030   4.732  15.750  0.00  0.00    +0.000 N 
ATOM     20  C   UNL     1      47.075   4.366  14.427  0.00  0.00    +0.000 C 
ATOM     21  O   UNL     1      47.191   3.195  14.077  0.00  0.00    +0.000 OA
ATOM     22  H   UNL     1      47.182   5.702  16.003  0.00  0.00    +0.000 HD
BRANCH  20  23
ATOM     23  C   UNL     1      46.915   5.445  13.443  0.00  0.00    +0.000 A 
ATOM     24  C   UNL     1      45.877   5.391  12.520  0.00  0.00    +0.000 A 
ATOM     25  S   UNL     1      45.803   6.751  11.493  0.00  0.00    +0.000 S 
ATOM     26  C   UNL     1      47.188   7.434  12.206  0.00  0.00    +0.000 A 
ATOM     27  N   UNL     1      47.692   8.617  11.765  0.00  0.00    +0.000 NA
ATOM     28  C   UNL     1      48.761   9.006  12.378  0.00  0.00    +0.000 A 
ATOM     29  N   UNL     1      49.368   8.316  13.396  0.00  0.00    +0.000 N 
ATOM     30  C   UNL     1      48.881   7.132  13.890  0.00  0.00    +0.000 A 
ATOM     31  O   UNL     1      49.430   6.560  14.828  0.00  0.00    +0.000 OA
ATOM     32  C   UNL     1      47.686   6.645  13.228  0.00  0.00    +0.000 A 
ATOM     33  H   UNL     1      50.200   8.677  13.840  0.00  0.00    +0.000 HD
ENDBRANCH  20  23
ENDBRANCH  18  19
ENDBRANCH   4  18
TORSDOF 6
ENDMDL
MODEL 6
REMARK VINA RESULT:    -6.974      3.350      4.412
REMARK INTER + INTRA:         -10.394
REMARK INTER:                  -9.482
REMARK INTRA:                  -0.913
REMARK UNBOUND:                -0.974
REMARK  Name = 
REMARK  7 active torsions:
REMARK  status: ('A' for Active; 'I' for Inactive)
REMARK    1  A    between atoms: C_1  and  N_2
REMARK    2  A    between atoms: C_5  and  C_6
REMARK    3  A    between atoms: N_8  and  C_9
REMARK    4  A    between atoms: C_9  and  C_10
REMARK    5  A    between atoms: C_13  and  C_14
REMARK    6  A    between atoms: C_14  and  N_15
REMARK    7  A    between atoms: C_16  and  C_18
REMARK                            x       y       z     vdW  Elec       q    Type
REMARK                         _______ _______ _______ _____ _____    ______ ____
ROOT
ATOM      1  C   UNL     1      47.260   6.298  13.687  0.00  0.00    +0.000 A 
ATOM      2  C   UNL     1      46.721   5.067  14.089  0.00  0.00    +0.000 A 
ATOM      3  C   UNL     1      47.136   4.456  15.279  0.00  0.00    +0.000 A 
ATOM      4  C   UNL     1      48.085   5.071  16.106  0.00  0.00    +0.000 A 
ATOM      5  C   UNL     1      48.632   6.295  15.700  0.00  0.00    +0.000 A 
ATOM      6  C   UNL     1      48.216   6.907  14.511  0.00  0.00    +0.000 A 
ENDROOT
BRANCH   1   7
ATOM      7  C   UNL     1      46.835   6.937  12.389  0.00  0.00    +0.000 C 
BRANCH   7  10
ATOM      8  C   UNL     1      45.276   5.791  10.872  0.00  0.00    +0.000 C 
ATOM      9  O   UNL     1      44.308   6.432  11.265  0.00  0.00    +0.000 OA
ATOM     10  N   UNL     1      46.557   5.979  11.352  0.00  0.00    +0.000 N 
ATOM     11  H   UNL     1      47.277   5.365  10.982  0.00  0.00    +0.000 HD
BRANCH   8  16
ATOM     12  C   UNL     1      46.092   3.380   6.746  0.00  0.00    +0.000 C 
ATOM     13  N   UNL     1      45.513   3.670   8.035  0.00  0.00    +0.000 N 
ATOM     14  C   UNL     1      44.610   2.906   8.713  0.00  0.00    +0.000 A 
ATOM     15  C   UNL     1      44.372   3.569   9.893  0.00  0.00    +0.000 A 
ATOM     16  C   UNL     1      45.175   4.740   9.841  0.00  0.00    +0.000 A 
ATOM     17  N   UNL     1      45.875   4.790   8.689  0.00  0.00    +0.000 NA
ENDBRANCH   8  16
ENDBRANCH   7  10
ENDBRANCH   1   7
BRANCH   4  18
ATOM     18  C   UNL     1      48.526   4.432  17.400  0.00  0.00    +0.000 C 
BRANCH  18  19
ATOM     19  N   UNL     1      49.915   4.045  17.365  0.00  0.00    +0.000 N 
ATOM     20  C   UNL     1      50.728   4.223  18.457  0.00  0.00    +0.000 C 
ATOM     21  O   UNL     1      50.307   4.674  19.518  0.00  0.00    +0.000 OA
ATOM     22  H   UNL     1      50.332   3.910  16.450  0.00  0.00    +0.000 HD
BRANCH  20  23
ATOM     23  C   UNL     1      52.124   3.786  18.313  0.00  0.00    +0.000 A 
ATOM     24  C   UNL     1      53.158   4.673  18.590  0.00  0.00    +0.000 A 
ATOM     25  S   UNL     1      54.710   3.985  18.429  0.00  0.00    +0.000 S 
ATOM     26  C   UNL     1      54.059   2.495  17.929  0.00  0.00    +0.000 A 
ATOM     27  N   UNL     1      54.867   1.452  17.599  0.00  0.00    +0.000 NA
ATOM     28  C   UNL     1      54.241   0.390  17.212  0.00  0.00    +0.000 A 
ATOM     29  N   UNL     1      52.877   0.279  17.128  0.00  0.00    +0.000 N 
ATOM     30  C   UNL     1      52.022   1.297  17.474  0.00  0.00    +0.000 A 
ATOM     31  O   UNL     1      50.803   1.149  17.422  0.00  0.00    +0.000 OA
ATOM     32  C   UNL     1      52.675   2.516  17.907  0.00  0.00    +0.000 A 
ATOM     33  H   UNL     1      52.446  -0.582  16.824  0.00  0.00    +0.000 HD
ENDBRANCH  20  23
ENDBRANCH  18  19
ENDBRANCH   4  18
TORSDOF 6
ENDMDL
MODEL 7
REMARK VINA RESULT:    -6.859      3.651      8.599
REMARK INTER + INTRA:         -10.239
REMARK INTER:                  -9.347
REMARK INTRA:                  -0.893
REMARK UNBOUND:                -0.974
REMARK  Name = 
REMARK  7 active torsions:
REMARK  status: ('A' for Active; 'I' for Inactive)
REMARK    1  A    between atoms: C_1  and  N_2
REMARK    2  A    between atoms: C_5  and  C_6
REMARK    3  A    between atoms: N_8  and  C_9
REMARK    4  A    between atoms: C_9  and  C_10
REMARK    5  A    between atoms: C_13  and  C_14
REMARK    6  A    between atoms: C_14  and  N_15
REMARK    7  A    between atoms: C_16  and  C_18
REMARK                            x       y       z     vdW  Elec       q    Type
REMARK                         _______ _______ _______ _____ _____    ______ ____
ROOT
ATOM      1  C   UNL     1      50.192   7.029  15.865  0.00  0.00    +0.000 A 
ATOM      2  C   UNL     1      50.879   7.758  14.884  0.00  0.00    +0.000 A 
ATOM      3  C   UNL     1      50.269   8.071  13.663  0.00  0.00    +0.000 A 
ATOM      4  C   UNL     1      48.949   7.681  13.402  0.00  0.00    +0.000 A 
ATOM      5  C   UNL     1      48.265   6.943  14.377  0.00  0.00    +0.000 A 
ATOM      6  C   UNL     1      48.874   6.631  15.599  0.00  0.00    +0.000 A 
ENDROOT
BRANCH   1   7
ATOM      7  C   UNL     1      50.863   6.667  17.166  0.00  0.00    +0.000 C 
BRANCH   7  10
ATOM      8  C   UNL     1      50.857   4.345  17.978  0.00  0.00    +0.000 C 
ATOM      9  O   UNL     1      49.889   4.527  18.708  0.00  0.00    +0.000 OA
ATOM     10  N   UNL     1      51.395   5.330  17.174  0.00  0.00    +0.000 N 
ATOM     11  H   UNL     1      52.222   5.079  16.639  0.00  0.00    +0.000 HD
BRANCH   8  16
ATOM     12  C   UNL     1      54.351   1.023  18.480  0.00  0.00    +0.000 C 
ATOM     13  N   UNL     1      53.079   1.579  18.088  0.00  0.00    +0.000 N 
ATOM     14  C   UNL     1      52.062   0.924  17.459  0.00  0.00    +0.000 A 
ATOM     15  C   UNL     1      51.055   1.848  17.316  0.00  0.00    +0.000 A 
ATOM     16  C   UNL     1      51.556   3.050  17.884  0.00  0.00    +0.000 A 
ATOM     17  N   UNL     1      52.807   2.870  18.359  0.00  0.00    +0.000 NA
ENDBRANCH   8  16
ENDBRANCH   7  10
ENDBRANCH   1   7
BRANCH   4  18
ATOM     18  C   UNL     1      48.275   8.028  12.097  0.00  0.00    +0.000 C 
BRANCH  18  19
ATOM     19  N   UNL     1      47.575   6.899  11.534  0.00  0.00    +0.000 N 
ATOM     20  C   UNL     1      46.212   6.918  11.372  0.00  0.00    +0.000 C 
ATOM     21  O   UNL     1      45.534   7.902  11.658  0.00  0.00    +0.000 OA
ATOM     22  H   UNL     1      48.065   6.011  11.528  0.00  0.00    +0.000 HD
BRANCH  20  23
ATOM     23  C   UNL     1      45.605   5.717  10.782  0.00  0.00    +0.000 A 
ATOM     24  C   UNL     1      45.751   5.467   9.422  0.00  0.00    +0.000 A 
ATOM     25  S   UNL     1      45.036   4.003   8.916  0.00  0.00    +0.000 S 
ATOM     26  C   UNL     1      44.459   3.679  10.483  0.00  0.00    +0.000 A 
ATOM     27  N   UNL     1      43.724   2.564  10.742  0.00  0.00    +0.000 NA
ATOM     28  C   UNL     1      43.329   2.456  11.967  0.00  0.00    +0.000 A 
ATOM     29  N   UNL     1      43.606   3.364  12.957  0.00  0.00    +0.000 N 
ATOM     30  C   UNL     1      44.364   4.489  12.747  0.00  0.00    +0.000 A 
ATOM     31  O   UNL     1      44.625   5.262  13.666  0.00  0.00    +0.000 OA
ATOM     32  C   UNL     1      44.826   4.663  11.384  0.00  0.00    +0.000 A 
ATOM     33  H   UNL     1      43.273   3.220  13.899  0.00  0.00    +0.000 HD
ENDBRANCH  20  23
ENDBRANCH  18  19
ENDBRANCH   4  18
TORSDOF 6
ENDMDL
MODEL 8
REMARK VINA RESULT:    -6.621      3.421      4.279
REMARK INTER + INTRA:          -9.917
REMARK INTER:                  -8.930
REMARK INTRA:                  -0.987
REMARK UNBOUND:                -0.974
REMARK  Name = 
REMARK  7 active torsions:
REMARK  status: ('A' for Active; 'I' for Inactive)
REMARK    1  A    between atoms: C_1  and  N_2
REMARK    2  A    between atoms: C_5  and  C_6
REMARK    3  A    between atoms: N_8  and  C_9
REMARK    4  A    between atoms: C_9  and  C_10
REMARK    5  A    between atoms: C_13  and  C_14
REMARK    6  A    between atoms: C_14  and  N_15
REMARK    7  A    between atoms: C_16  and  C_18
REMARK                            x       y       z     vdW  Elec       q    Type
REMARK                         _______ _______ _______ _____ _____    ______ ____
ROOT
ATOM      1  C   UNL     1      44.772   5.055  11.851  0.00  0.00    +0.000 A 
ATOM      2  C   UNL     1      44.187   6.246  11.399  0.00  0.00    +0.000 A 
ATOM      3  C   UNL     1      44.672   7.490  11.822  0.00  0.00    +0.000 A 
ATOM      4  C   UNL     1      45.767   7.573  12.691  0.00  0.00    +0.000 A 
ATOM      5  C   UNL     1      46.345   6.383  13.153  0.00  0.00    +0.000 A 
ATOM      6  C   UNL     1      45.862   5.139  12.729  0.00  0.00    +0.000 A 
ENDROOT
BRANCH   1   7
ATOM      7  C   UNL     1      44.227   3.717  11.419  0.00  0.00    +0.000 C 
BRANCH   7  10
ATOM      8  C   UNL     1      44.899   3.368   9.080  0.00  0.00    +0.000 C 
ATOM      9  O   UNL     1      44.111   4.203   8.652  0.00  0.00    +0.000 OA
ATOM     10  N   UNL     1      45.038   3.072  10.421  0.00  0.00    +0.000 N 
ATOM     11  H   UNL     1      45.695   2.334  10.659  0.00  0.00    +0.000 HD
BRANCH   8  16
ATOM     12  C   UNL     1      47.977   2.335   5.479  0.00  0.00    +0.000 C 
ATOM     13  N   UNL     1      47.130   2.104   6.624  0.00  0.00    +0.000 N 
ATOM     14  C   UNL     1      46.940   0.919   7.271  0.00  0.00    +0.000 A 
ATOM     15  C   UNL     1      46.076   1.193   8.305  0.00  0.00    +0.000 A 
ATOM     16  C   UNL     1      45.785   2.580   8.201  0.00  0.00    +0.000 A 
ATOM     17  N   UNL     1      46.443   3.131   7.160  0.00  0.00    +0.000 NA
ENDBRANCH   8  16
ENDBRANCH   7  10
ENDBRANCH   1   7
BRANCH   4  18
ATOM     18  C   UNL     1      46.310   8.907  13.140  0.00  0.00    +0.000 C 
BRANCH  18  19
ATOM     19  N   UNL     1      47.735   9.005  12.940  0.00  0.00    +0.000 N 
ATOM     20  C   UNL     1      48.602   9.016  14.006  0.00  0.00    +0.000 C 
ATOM     21  O   UNL     1      48.212   8.903  15.165  0.00  0.00    +0.000 OA
ATOM     22  H   UNL     1      48.051   9.343  12.038  0.00  0.00    +0.000 HD
BRANCH  20  23
ATOM     23  C   UNL     1      50.032   9.111  13.686  0.00  0.00    +0.000 A 
ATOM     24  C   UNL     1      50.869   9.885  14.482  0.00  0.00    +0.000 A 
ATOM     25  S   UNL     1      52.506   9.835  14.005  0.00  0.00    +0.000 S 
ATOM     26  C   UNL     1      52.147   8.823  12.685  0.00  0.00    +0.000 A 
ATOM     27  N   UNL     1      53.123   8.414  11.830  0.00  0.00    +0.000 NA
ATOM     28  C   UNL     1      52.708   7.671  10.859  0.00  0.00    +0.000 A 
ATOM     29  N   UNL     1      51.402   7.298  10.669  0.00  0.00    +0.000 N 
ATOM     30  C   UNL     1      50.389   7.665  11.520  0.00  0.00    +0.000 A 
ATOM     31  O   UNL     1      49.236   7.281  11.340  0.00  0.00    +0.000 OA
ATOM     32  C   UNL     1      50.801   8.510  12.623  0.00  0.00    +0.000 A 
ATOM     33  H   UNL     1      51.140   6.708   9.892  0.00  0.00    +0.000 HD
ENDBRANCH  20  23
ENDBRANCH  18  19
ENDBRANCH   4  18
TORSDOF 6
ENDMDL
MODEL 9
REMARK VINA RESULT:    -6.605      5.148      7.786
REMARK INTER + INTRA:          -9.896
REMARK INTER:                  -8.941
REMARK INTRA:                  -0.955
REMARK UNBOUND:                -0.974
REMARK  Name = 
REMARK  7 active torsions:
REMARK  status: ('A' for Active; 'I' for Inactive)
REMARK    1  A    between atoms: C_1  and  N_2
REMARK    2  A    between atoms: C_5  and  C_6
REMARK    3  A    between atoms: N_8  and  C_9
REMARK    4  A    between atoms: C_9  and  C_10
REMARK    5  A    between atoms: C_13  and  C_14
REMARK    6  A    between atoms: C_14  and  N_15
REMARK    7  A    between atoms: C_16  and  C_18
REMARK                            x       y       z     vdW  Elec       q    Type
REMARK                         _______ _______ _______ _____ _____    ______ ____
ROOT
ATOM      1  C   UNL     1      50.716   8.894  11.333  0.00  0.00    +0.000 A 
ATOM      2  C   UNL     1      50.188   7.598  11.411  0.00  0.00    +0.000 A 
ATOM      3  C   UNL     1      48.831   7.390  11.687  0.00  0.00    +0.000 A 
ATOM      4  C   UNL     1      47.964   8.475  11.871  0.00  0.00    +0.000 A 
ATOM      5  C   UNL     1      48.492   9.771  11.803  0.00  0.00    +0.000 A 
ATOM      6  C   UNL     1      49.849   9.979  11.526  0.00  0.00    +0.000 A 
ENDROOT
BRANCH   1   7
ATOM      7  C   UNL     1      52.184   9.114  11.067  0.00  0.00    +0.000 C 
BRANCH   7  10
ATOM      8  C   UNL     1      53.049   7.931   9.093  0.00  0.00    +0.000 C 
ATOM      9  O   UNL     1      52.756   8.844   8.328  0.00  0.00    +0.000 OA
ATOM     10  N   UNL     1      52.822   7.979  10.453  0.00  0.00    +0.000 N 
ATOM     11  H   UNL     1      53.070   7.150  10.986  0.00  0.00    +0.000 HD
BRANCH   8  16
ATOM     12  C   UNL     1      54.141   4.180   6.223  0.00  0.00    +0.000 C 
ATOM     13  N   UNL     1      54.163   5.019   7.397  0.00  0.00    +0.000 N 
ATOM     14  C   UNL     1      54.901   4.820   8.526  0.00  0.00    +0.000 A 
ATOM     15  C   UNL     1      54.612   5.882   9.351  0.00  0.00    +0.000 A 
ATOM     16  C   UNL     1      53.675   6.676   8.637  0.00  0.00    +0.000 A 
ATOM     17  N   UNL     1      53.407   6.133   7.431  0.00  0.00    +0.000 NA
ENDBRANCH   8  16
ENDBRANCH   7  10
ENDBRANCH   1   7
BRANCH   4  18
ATOM     18  C   UNL     1      46.496   8.264  12.150  0.00  0.00    +0.000 C 
BRANCH  18  19
ATOM     19  N   UNL     1      46.087   6.905  11.893  0.00  0.00    +0.000 N 
ATOM     20  C   UNL     1      44.794   6.608  11.540  0.00  0.00    +0.000 C 
ATOM     21  O   UNL     1      43.943   7.480  11.386  0.00  0.00    +0.000 OA
ATOM     22  H   UNL     1      46.688   6.169  12.250  0.00  0.00    +0.000 HD
BRANCH  20  23
ATOM     23  C   UNL     1      44.490   5.192  11.295  0.00  0.00    +0.000 A 
ATOM     24  C   UNL     1      43.728   4.479  12.212  0.00  0.00    +0.000 A 
ATOM     25  S   UNL     1      43.421   2.868  11.743  0.00  0.00    +0.000 S 
ATOM     26  C   UNL     1      44.343   3.048  10.324  0.00  0.00    +0.000 A 
ATOM     27  N   UNL     1      44.514   2.009   9.463  0.00  0.00    +0.000 NA
ATOM     28  C   UNL     1      45.257   2.277   8.441  0.00  0.00    +0.000 A 
ATOM     29  N   UNL     1      45.843   3.494   8.203  0.00  0.00    +0.000 N 
ATOM     30  C   UNL     1      45.678   4.577   9.031  0.00  0.00    +0.000 A 
ATOM     31  O   UNL     1      46.187   5.664   8.767  0.00  0.00    +0.000 OA
ATOM     32  C   UNL     1      44.858   4.326  10.200  0.00  0.00    +0.000 A 
ATOM     33  H   UNL     1      46.409   3.643   7.381  0.00  0.00    +0.000 HD
ENDBRANCH  20  23
ENDBRANCH  18  19
ENDBRANCH   4  18
TORSDOF 6
ENDMDL
