MODEL 1
REMARK VINA RESULT:    -8.535      0.000      0.000
REMARK INTER + INTRA:         -12.345
REMARK INTER:                 -11.529
REMARK INTRA:                  -0.816
REMARK UNBOUND:                -0.816
REMARK  Name = 
REMARK  8 active torsions:
REMARK  status: ('A' for Active; 'I' for Inactive)
REMARK    1  A    between atoms: C_1  and  C_2
REMARK    2  A    between atoms: C_2  and  N_3
REMARK    3  A    between atoms: C_2  and  C_17
REMARK    4  A    between atoms: C_4  and  C_6
REMARK    5  A    between atoms: N_12  and  C_13
REMARK    6  A    between atoms: C_20  and  O_21
REMARK    7  A    between atoms: O_21  and  C_22
REMARK    8  A    between atoms: C_22  and  C_23
REMARK                            x       y       z     vdW  Elec       q    Type
REMARK                         _______ _______ _______ _____ _____    ______ ____
ROOT
ATOM      1  C   UNL     1      46.057   8.865  13.058  0.00  0.00    +0.000 C 
ATOM      2  C   UNL     1      47.045   7.695  13.031  0.00  0.00    +0.000 C 
ENDROOT
BRANCH   2   3
ATOM      3  C   UNL     1      46.377   6.437  12.504  0.00  0.00    +0.000 A 
ATOM      4  C   UNL     1      45.775   6.418  11.240  0.00  0.00    +0.000 A 
ATOM      5  C   UNL     1      45.211   5.239  10.744  0.00  0.00    +0.000 A 
ATOM      6  C   UNL     1      45.260   4.064  11.494  0.00  0.00    +0.000 A 
ATOM      7  C   UNL     1      45.820   4.083  12.769  0.00  0.00    +0.000 A 
ATOM      8  C   UNL     1      46.383   5.255  13.263  0.00  0.00    +0.000 A 
BRANCH   6   9
ATOM      9  O   UNL     1      44.738   2.946  10.902  0.00  0.00    +0.000 OA
BRANCH   9  10
ATOM     10  C   UNL     1      44.268   3.151   9.562  0.00  0.00    +0.000 C 
BRANCH  10  11
ATOM     11  C   UNL     1      45.274   2.673   8.542  0.00  0.00    +0.000 A 
ATOM     12  C   UNL     1      45.806   3.545   7.595  0.00  0.00    +0.000 A 
ATOM     13  C   UNL     1      46.786   3.079   6.728  0.00  0.00    +0.000 A 
ATOM     14  C   UNL     1      47.223   1.765   6.837  0.00  0.00    +0.000 A 
ATOM     15  C   UNL     1      46.658   0.965   7.814  0.00  0.00    +0.000 A 
ATOM     16  N   UNL     1      45.700   1.389   8.667  0.00  0.00    +0.000 NA
ENDBRANCH  10  11
ENDBRANCH   9  10
ENDBRANCH   6   9
ENDBRANCH   2   3
BRANCH   2  17
ATOM     17  N   UNL     1      47.561   7.418  14.358  0.00  0.00    +0.000 N 
ATOM     18  C   UNL     1      48.882   7.223  14.650  0.00  0.00    +0.000 C 
ATOM     19  O   UNL     1      49.749   7.126  13.788  0.00  0.00    +0.000 OA
ATOM     20  H   UNL     1      46.933   7.630  15.122  0.00  0.00    +0.000 HD
BRANCH  18  21
ATOM     21  C   UNL     1      49.188   7.076  16.080  0.00  0.00    +0.000 A 
ATOM     22  C   UNL     1      49.835   8.094  16.765  0.00  0.00    +0.000 A 
ATOM     23  S   UNL     1      50.121   7.730  18.408  0.00  0.00    +0.000 S 
ATOM     24  C   UNL     1      49.349   6.220  18.269  0.00  0.00    +0.000 A 
ATOM     25  N   UNL     1      49.220   5.399  19.342  0.00  0.00    +0.000 NA
ATOM     26  C   UNL     1      48.590   4.296  19.102  0.00  0.00    +0.000 A 
ATOM     27  N   UNL     1      48.075   3.918  17.879  0.00  0.00    +0.000 N 
ATOM     28  C   UNL     1      47.403   2.645  17.718  0.00  0.00    +0.000 C 
ATOM     29  C   UNL     1      48.222   4.719  16.752  0.00  0.00    +0.000 A 
ATOM     30  O   UNL     1      47.834   4.371  15.639  0.00  0.00    +0.000 OA
ATOM     31  C   UNL     1      48.904   5.982  16.984  0.00  0.00    +0.000 A 
ENDBRANCH  18  21
ENDBRANCH   2  17
TORSDOF 6
ENDMDL
MODEL 2
REMARK VINA RESULT:    -8.391      1.895      2.605
REMARK INTER + INTRA:         -12.150
REMARK INTER:                 -10.906
REMARK INTRA:                  -1.245
REMARK UNBOUND:                -0.816
REMARK  Name = 
REMARK  8 active torsions:
REMARK  status: ('A' for Active; 'I' for Inactive)
REMARK    1  A    between atoms: C_1  and  C_2
REMARK    2  A    between atoms: C_2  and  N_3
REMARK    3  A    between atoms: C_2  and  C_17
REMARK    4  A    between atoms: C_4  and  C_6
REMARK    5  A    between atoms: N_12  and  C_13
REMARK    6  A    between atoms: C_20  and  O_21
REMARK    7  A    between atoms: O_21  and  C_22
REMARK    8  A    between atoms: C_22  and  C_23
REMARK                            x       y       z     vdW  Elec       q    Type
REMARK                         _______ _______ _______ _____ _____    ______ ____
ROOT
ATOM      1  C   UNL     1      47.264   8.683  13.443  0.00  0.00    +0.000 C 
ATOM      2  C   UNL     1      47.735   7.230  13.571  0.00  0.00    +0.000 C 
ENDROOT
BRANCH   2   3
ATOM      3  C   UNL     1      46.805   6.294  12.819  0.00  0.00    +0.000 A 
ATOM      4  C   UNL     1      46.289   6.647  11.566  0.00  0.00    +0.000 A 
ATOM      5  C   UNL     1      45.477   5.753  10.860  0.00  0.00    +0.000 A 
ATOM      6  C   UNL     1      45.190   4.494  11.387  0.00  0.00    +0.000 A 
ATOM      7  C   UNL     1      45.665   4.151  12.650  0.00  0.00    +0.000 A 
ATOM      8  C   UNL     1      46.474   5.037  13.353  0.00  0.00    +0.000 A 
BRANCH   6   9
ATOM      9  O   UNL     1      44.440   3.666  10.598  0.00  0.00    +0.000 OA
BRANCH   9  10
ATOM     10  C   UNL     1      44.427   4.022   9.208  0.00  0.00    +0.000 C 
BRANCH  10  11
ATOM     11  C   UNL     1      45.393   3.179   8.411  0.00  0.00    +0.000 A 
ATOM     12  C   UNL     1      46.271   3.762   7.499  0.00  0.00    +0.000 A 
ATOM     13  C   UNL     1      47.195   2.956   6.847  0.00  0.00    +0.000 A 
ATOM     14  C   UNL     1      47.233   1.597   7.129  0.00  0.00    +0.000 A 
ATOM     15  C   UNL     1      46.340   1.096   8.060  0.00  0.00    +0.000 A 
ATOM     16  N   UNL     1      45.427   1.853   8.706  0.00  0.00    +0.000 NA
ENDBRANCH  10  11
ENDBRANCH   9  10
ENDBRANCH   6   9
ENDBRANCH   2   3
BRANCH   2  17
ATOM     17  N   UNL     1      47.777   6.817  14.961  0.00  0.00    +0.000 N 
ATOM     18  C   UNL     1      48.925   6.628  15.678  0.00  0.00    +0.000 C 
ATOM     19  O   UNL     1      50.042   6.658  15.171  0.00  0.00    +0.000 OA
ATOM     20  H   UNL     1      46.910   6.919  15.472  0.00  0.00    +0.000 HD
BRANCH  18  21
ATOM     21  C   UNL     1      48.727   6.325  17.102  0.00  0.00    +0.000 A 
ATOM     22  C   UNL     1      48.997   5.055  17.591  0.00  0.00    +0.000 A 
ATOM     23  S   UNL     1      48.686   4.892  19.261  0.00  0.00    +0.000 S 
ATOM     24  C   UNL     1      48.224   6.524  19.395  0.00  0.00    +0.000 A 
ATOM     25  N   UNL     1      47.861   7.053  20.590  0.00  0.00    +0.000 NA
ATOM     26  C   UNL     1      47.560   8.310  20.554  0.00  0.00    +0.000 A 
ATOM     27  N   UNL     1      47.576   9.103  19.425  0.00  0.00    +0.000 N 
ATOM     28  C   UNL     1      47.199  10.500  19.495  0.00  0.00    +0.000 C 
ATOM     29  C   UNL     1      47.909   8.585  18.180  0.00  0.00    +0.000 A 
ATOM     30  O   UNL     1      47.862   9.256  17.151  0.00  0.00    +0.000 OA
ATOM     31  C   UNL     1      48.279   7.178  18.180  0.00  0.00    +0.000 A 
ENDBRANCH  18  21
ENDBRANCH   2  17
TORSDOF 6
ENDMDL
MODEL 3
REMARK VINA RESULT:    -7.263      4.416      8.835
REMARK INTER + INTRA:         -10.626
REMARK INTER:                 -10.110
REMARK INTRA:                  -0.517
REMARK UNBOUND:                -0.816
REMARK  Name = 
REMARK  8 active torsions:
REMARK  status: ('A' for Active; 'I' for Inactive)
REMARK    1  A    between atoms: C_1  and  C_2
REMARK    2  A    between atoms: C_2  and  N_3
REMARK    3  A    between atoms: C_2  and  C_17
REMARK    4  A    between atoms: C_4  and  C_6
REMARK    5  A    between atoms: N_12  and  C_13
REMARK    6  A    between atoms: C_20  and  O_21
REMARK    7  A    between atoms: O_21  and  C_22
REMARK    8  A    between atoms: C_22  and  C_23
REMARK                            x       y       z     vdW  Elec       q    Type
REMARK                         _______ _______ _______ _____ _____    ______ ____
ROOT
ATOM      1  C   UNL     1      47.392   5.315  18.474  0.00  0.00    +0.000 C 
ATOM      2  C   UNL     1      47.762   4.401  17.302  0.00  0.00    +0.000 C 
ENDROOT
BRANCH   2   3
ATOM      3  C   UNL     1      49.229   4.007  17.369  0.00  0.00    +0.000 A 
ATOM      4  C   UNL     1      50.231   4.981  17.457  0.00  0.00    +0.000 A 
ATOM      5  C   UNL     1      51.573   4.603  17.573  0.00  0.00    +0.000 A 
ATOM      6  C   UNL     1      51.924   3.254  17.623  0.00  0.00    +0.000 A 
ATOM      7  C   UNL     1      50.938   2.280  17.495  0.00  0.00    +0.000 A 
ATOM      8  C   UNL     1      49.603   2.653  17.381  0.00  0.00    +0.000 A 
BRANCH   6   9
ATOM      9  O   UNL     1      53.254   2.983  17.800  0.00  0.00    +0.000 OA
BRANCH   9  10
ATOM     10  C   UNL     1      53.530   2.006  18.814  0.00  0.00    +0.000 C 
BRANCH  10  11
ATOM     11  C   UNL     1      54.015   0.707  18.216  0.00  0.00    +0.000 A 
ATOM     12  C   UNL     1      54.455   0.644  16.895  0.00  0.00    +0.000 A 
ATOM     13  C   UNL     1      54.965  -0.555  16.414  0.00  0.00    +0.000 A 
ATOM     14  C   UNL     1      55.040  -1.653  17.261  0.00  0.00    +0.000 A 
ATOM     15  C   UNL     1      54.599  -1.506  18.564  0.00  0.00    +0.000 A 
ATOM     16  N   UNL     1      54.093  -0.356  19.059  0.00  0.00    +0.000 NA
ENDBRANCH  10  11
ENDBRANCH   9  10
ENDBRANCH   6   9
ENDBRANCH   2   3
BRANCH   2  17
ATOM     17  N   UNL     1      47.522   5.058  16.032  0.00  0.00    +0.000 N 
ATOM     18  C   UNL     1      47.332   4.405  14.847  0.00  0.00    +0.000 C 
ATOM     19  O   UNL     1      47.484   3.195  14.719  0.00  0.00    +0.000 OA
ATOM     20  H   UNL     1      47.239   6.027  16.090  0.00  0.00    +0.000 HD
BRANCH  18  21
ATOM     21  C   UNL     1      46.986   5.268  13.709  0.00  0.00    +0.000 A 
ATOM     22  C   UNL     1      47.527   6.542  13.607  0.00  0.00    +0.000 A 
ATOM     23  S   UNL     1      46.991   7.398  12.231  0.00  0.00    +0.000 S 
ATOM     24  C   UNL     1      46.055   6.079  11.702  0.00  0.00    +0.000 A 
ATOM     25  N   UNL     1      45.350   6.141  10.545  0.00  0.00    +0.000 NA
ATOM     26  C   UNL     1      44.705   5.060  10.249  0.00  0.00    +0.000 A 
ATOM     27  N   UNL     1      44.684   3.908  11.008  0.00  0.00    +0.000 N 
ATOM     28  C   UNL     1      43.908   2.759  10.590  0.00  0.00    +0.000 C 
ATOM     29  C   UNL     1      45.366   3.824  12.216  0.00  0.00    +0.000 A 
ATOM     30  O   UNL     1      45.305   2.833  12.941  0.00  0.00    +0.000 OA
ATOM     31  C   UNL     1      46.126   5.011  12.575  0.00  0.00    +0.000 A 
ENDBRANCH  18  21
ENDBRANCH   2  17
TORSDOF 6
ENDMDL
MODEL 4
REMARK VINA RESULT:    -6.932      3.577      9.426
REMARK INTER + INTRA:         -10.179
REMARK INTER:                  -8.735
REMARK INTRA:                  -1.445
REMARK UNBOUND:                -0.816
REMARK  Name = 
REMARK  8 active torsions:
REMARK  status: ('A' for Active; 'I' for Inactive)
REMARK    1  A    between atoms: C_1  and  C_2
REMARK    2  A    between atoms: C_2  and  N_3
REMARK    3  A    between atoms: C_2  and  C_17
REMARK    4  A    between atoms: C_4  and  C_6
REMARK    5  A    between atoms: N_12  and  C_13
REMARK    6  A    between atoms: C_20  and  O_21
REMARK    7  A    between atoms: O_21  and  C_22
REMARK    8  A    between atoms: C_22  and  C_23
REMARK                            x       y       z     vdW  Elec       q    Type
REMARK                         _______ _______ _______ _____ _____    ______ ____
ROOT
ATOM      1  C   UNL     1      47.574   3.279  16.519  0.00  0.00    +0.000 C 
ATOM      2  C   UNL     1      48.152   4.616  16.044  0.00  0.00    +0.000 C 
ENDROOT
BRANCH   2   3
ATOM      3  C   UNL     1      48.461   5.519  17.226  0.00  0.00    +0.000 A 
ATOM      4  C   UNL     1      47.691   5.464  18.394  0.00  0.00    +0.000 A 
ATOM      5  C   UNL     1      48.020   6.261  19.494  0.00  0.00    +0.000 A 
ATOM      6  C   UNL     1      49.130   7.105  19.447  0.00  0.00    +0.000 A 
ATOM      7  C   UNL     1      49.877   7.197  18.275  0.00  0.00    +0.000 A 
ATOM      8  C   UNL     1      49.552   6.403  17.180  0.00  0.00    +0.000 A 
BRANCH   6   9
ATOM      9  O   UNL     1      49.409   7.801  20.592  0.00  0.00    +0.000 OA
BRANCH   9  10
ATOM     10  C   UNL     1      49.602   9.209  20.398  0.00  0.00    +0.000 C 
BRANCH  10  11
ATOM     11  C   UNL     1      48.288   9.929  20.212  0.00  0.00    +0.000 A 
ATOM     12  C   UNL     1      47.257   9.793  21.139  0.00  0.00    +0.000 A 
ATOM     13  C   UNL     1      46.096  10.536  20.966  0.00  0.00    +0.000 A 
ATOM     14  C   UNL     1      45.998  11.405  19.887  0.00  0.00    +0.000 A 
ATOM     15  C   UNL     1      47.071  11.496  19.019  0.00  0.00    +0.000 A 
ATOM     16  N   UNL     1      48.210  10.784  19.158  0.00  0.00    +0.000 NA
ENDBRANCH  10  11
ENDBRANCH   9  10
ENDBRANCH   6   9
ENDBRANCH   2   3
BRANCH   2  17
ATOM     17  N   UNL     1      47.221   5.305  15.171  0.00  0.00    +0.000 N 
ATOM     18  C   UNL     1      47.571   5.938  14.011  0.00  0.00    +0.000 C 
ATOM     19  O   UNL     1      48.736   6.101  13.665  0.00  0.00    +0.000 OA
ATOM     20  H   UNL     1      46.244   5.084  15.315  0.00  0.00    +0.000 HD
BRANCH  18  21
ATOM     21  C   UNL     1      46.446   6.466  13.227  0.00  0.00    +0.000 A 
ATOM     22  C   UNL     1      46.369   7.821  12.940  0.00  0.00    +0.000 A 
ATOM     23  S   UNL     1      44.983   8.245  12.039  0.00  0.00    +0.000 S 
ATOM     24  C   UNL     1      44.464   6.627  11.963  0.00  0.00    +0.000 A 
ATOM     25  N   UNL     1      43.334   6.284  11.295  0.00  0.00    +0.000 NA
ATOM     26  C   UNL     1      43.072   5.018  11.295  0.00  0.00    +0.000 A 
ATOM     27  N   UNL     1      43.830   4.044  11.911  0.00  0.00    +0.000 N 
ATOM     28  C   UNL     1      43.430   2.653  11.864  0.00  0.00    +0.000 C 
ATOM     29  C   UNL     1      44.973   4.364  12.632  0.00  0.00    +0.000 A 
ATOM     30  O   UNL     1      45.624   3.522  13.247  0.00  0.00    +0.000 OA
ATOM     31  C   UNL     1      45.319   5.777  12.638  0.00  0.00    +0.000 A 
ENDBRANCH  18  21
ENDBRANCH   2  17
TORSDOF 6
ENDMDL
MODEL 5
REMARK VINA RESULT:    -6.856      1.603      2.403
REMARK INTER + INTRA:         -10.077
REMARK INTER:                  -8.816
REMARK INTRA:                  -1.261
REMARK UNBOUND:                -0.816
REMARK  Name = 
REMARK  8 active torsions:
REMARK  status: ('A' for Active; 'I' for Inactive)
REMARK    1  A    between atoms: C_1  and  C_2
REMARK    2  A    between atoms: C_2  and  N_3
REMARK    3  A    between atoms: C_2  and  C_17
REMARK    4  A    between atoms: C_4  and  C_6
REMARK    5  A    between atoms: N_12  and  C_13
REMARK    6  A    between atoms: C_20  and  O_21
REMARK    7  A    between atoms: O_21  and  C_22
REMARK    8  A    between atoms: C_22  and  C_23
REMARK                            x       y       z     vdW  Elec       q    Type
REMARK                         _______ _______ _______ _____ _____    ______ ____
ROOT
ATOM      1  C   UNL     1      49.012  10.282  14.294  0.00  0.00    +0.000 C 
ATOM      2  C   UNL     1      49.218   8.780  14.075  0.00  0.00    +0.000 C 
ENDROOT
BRANCH   2   3
ATOM      3  C   UNL     1      48.017   8.167  13.376  0.00  0.00    +0.000 A 
ATOM      4  C   UNL     1      48.082   6.881  12.828  0.00  0.00    +0.000 A 
ATOM      5  C   UNL     1      46.953   6.308  12.235  0.00  0.00    +0.000 A 
ATOM      6  C   UNL     1      45.744   7.004  12.201  0.00  0.00    +0.000 A 
ATOM      7  C   UNL     1      45.681   8.300  12.706  0.00  0.00    +0.000 A 
ATOM      8  C   UNL     1      46.803   8.871  13.298  0.00  0.00    +0.000 A 
BRANCH   6   9
ATOM      9  O   UNL     1      44.679   6.340  11.656  0.00  0.00    +0.000 OA
BRANCH   9  10
ATOM     10  C   UNL     1      44.703   4.919  11.854  0.00  0.00    +0.000 C 
BRANCH  10  11
ATOM     11  C   UNL     1      44.772   4.177  10.541  0.00  0.00    +0.000 A 
ATOM     12  C   UNL     1      45.305   4.779   9.403  0.00  0.00    +0.000 A 
ATOM     13  C   UNL     1      45.420   4.031   8.238  0.00  0.00    +0.000 A 
ATOM     14  C   UNL     1      45.018   2.701   8.240  0.00  0.00    +0.000 A 
ATOM     15  C   UNL     1      44.516   2.170   9.415  0.00  0.00    +0.000 A 
ATOM     16  N   UNL     1      44.387   2.874  10.560  0.00  0.00    +0.000 NA
ENDBRANCH  10  11
ENDBRANCH   9  10
ENDBRANCH   6   9
ENDBRANCH   2   3
BRANCH   2  17
ATOM     17  N   UNL     1      49.414   8.091  15.337  0.00  0.00    +0.000 N 
ATOM     18  C   UNL     1      50.608   7.579  15.761  0.00  0.00    +0.000 C 
ATOM     19  O   UNL     1      51.605   7.531  15.050  0.00  0.00    +0.000 OA
ATOM     20  H   UNL     1      48.685   8.227  16.025  0.00  0.00    +0.000 HD
BRANCH  18  21
ATOM     21  C   UNL     1      50.600   7.029  17.124  0.00  0.00    +0.000 A 
ATOM     22  C   UNL     1      51.394   7.594  18.111  0.00  0.00    +0.000 A 
ATOM     23  S   UNL     1      51.264   6.806  19.620  0.00  0.00    +0.000 S 
ATOM     24  C   UNL     1      50.108   5.713  19.016  0.00  0.00    +0.000 A 
ATOM     25  N   UNL     1      49.550   4.771  19.817  0.00  0.00    +0.000 NA
ATOM     26  C   UNL     1      48.667   4.025  19.236  0.00  0.00    +0.000 A 
ATOM     27  N   UNL     1      48.285   4.120  17.914  0.00  0.00    +0.000 N 
ATOM     28  C   UNL     1      47.298   3.216  17.361  0.00  0.00    +0.000 C 
ATOM     29  C   UNL     1      48.862   5.050  17.058  0.00  0.00    +0.000 A 
ATOM     30  O   UNL     1      48.588   5.105  15.861  0.00  0.00    +0.000 OA
ATOM     31  C   UNL     1      49.844   5.926  17.677  0.00  0.00    +0.000 A 
ENDBRANCH  18  21
ENDBRANCH   2  17
TORSDOF 6
ENDMDL
MODEL 6
REMARK VINA RESULT:    -6.595      3.819      9.442
REMARK INTER + INTRA:          -9.724
REMARK INTER:                  -8.167
REMARK INTRA:                  -1.557
REMARK UNBOUND:                -0.816
REMARK  Name = 
REMARK  8 active torsions:
REMARK  status: ('A' for Active; 'I' for Inactive)
REMARK    1  A    between atoms: C_1  and  C_2
REMARK    2  A    between atoms: C_2  and  N_3
REMARK    3  A    between atoms: C_2  and  C_17
REMARK    4  A    between atoms: C_4  and  C_6
REMARK    5  A    between atoms: N_12  and  C_13
REMARK    6  A    between atoms: C_20  and  O_21
REMARK    7  A    between atoms: O_21  and  C_22
REMARK    8  A    between atoms: C_22  and  C_23
REMARK                            x       y       z     vdW  Elec       q    Type
REMARK                         _______ _______ _______ _____ _____    ______ ____
ROOT
ATOM      1  C   UNL     1      47.168   3.035  17.480  0.00  0.00    +0.000 C 
ATOM      2  C   UNL     1      48.043   3.973  16.642  0.00  0.00    +0.000 C 
ENDROOT
BRANCH   2   3
ATOM      3  C   UNL     1      48.746   4.988  17.528  0.00  0.00    +0.000 A 
ATOM      4  C   UNL     1      49.435   6.073  16.972  0.00  0.00    +0.000 A 
ATOM      5  C   UNL     1      50.031   7.029  17.800  0.00  0.00    +0.000 A 
ATOM      6  C   UNL     1      49.928   6.923  19.188  0.00  0.00    +0.000 A 
ATOM      7  C   UNL     1      49.281   5.826  19.750  0.00  0.00    +0.000 A 
ATOM      8  C   UNL     1      48.685   4.875  18.928  0.00  0.00    +0.000 A 
BRANCH   6   9
ATOM      9  O   UNL     1      50.490   7.938  19.914  0.00  0.00    +0.000 OA
BRANCH   9  10
ATOM     10  C   UNL     1      49.643   8.471  20.941  0.00  0.00    +0.000 C 
BRANCH  10  11
ATOM     11  C   UNL     1      48.627   9.435  20.377  0.00  0.00    +0.000 A 
ATOM     12  C   UNL     1      47.266   9.271  20.627  0.00  0.00    +0.000 A 
ATOM     13  C   UNL     1      46.376  10.227  20.153  0.00  0.00    +0.000 A 
ATOM     14  C   UNL     1      46.864  11.327  19.458  0.00  0.00    +0.000 A 
ATOM     15  C   UNL     1      48.230  11.427  19.265  0.00  0.00    +0.000 A 
ATOM     16  N   UNL     1      49.118  10.512  19.710  0.00  0.00    +0.000 NA
ENDBRANCH  10  11
ENDBRANCH   9  10
ENDBRANCH   6   9
ENDBRANCH   2   3
BRANCH   2  17
ATOM     17  N   UNL     1      47.249   4.691  15.664  0.00  0.00    +0.000 N 
ATOM     18  C   UNL     1      46.985   4.241  14.400  0.00  0.00    +0.000 C 
ATOM     19  O   UNL     1      47.513   3.242  13.924  0.00  0.00    +0.000 OA
ATOM     20  H   UNL     1      46.669   5.434  16.033  0.00  0.00    +0.000 HD
BRANCH  18  21
ATOM     21  C   UNL     1      46.061   5.077  13.622  0.00  0.00    +0.000 A 
ATOM     22  C   UNL     1      44.828   4.577  13.229  0.00  0.00    +0.000 A 
ATOM     23  S   UNL     1      43.906   5.687  12.317  0.00  0.00    +0.000 S 
ATOM     24  C   UNL     1      45.103   6.888  12.458  0.00  0.00    +0.000 A 
ATOM     25  N   UNL     1      44.927   8.119  11.916  0.00  0.00    +0.000 NA
ATOM     26  C   UNL     1      45.903   8.942  12.120  0.00  0.00    +0.000 A 
ATOM     27  N   UNL     1      47.060   8.654  12.814  0.00  0.00    +0.000 N 
ATOM     28  C   UNL     1      48.101   9.649  12.966  0.00  0.00    +0.000 C 
ATOM     29  C   UNL     1      47.288   7.392  13.351  0.00  0.00    +0.000 A 
ATOM     30  O   UNL     1      48.340   7.093  13.911  0.00  0.00    +0.000 OA
ATOM     31  C   UNL     1      46.203   6.442  13.165  0.00  0.00    +0.000 A 
ENDBRANCH  18  21
ENDBRANCH   2  17
TORSDOF 6
ENDMDL
MODEL 7
REMARK VINA RESULT:    -6.376      1.816      2.159
REMARK INTER + INTRA:          -9.428
REMARK INTER:                  -9.445
REMARK INTRA:                   0.017
REMARK UNBOUND:                -0.816
REMARK  Name = 
REMARK  8 active torsions:
REMARK  status: ('A' for Active; 'I' for Inactive)
REMARK    1  A    between atoms: C_1  and  C_2
REMARK    2  A    between atoms: C_2  and  N_3
REMARK    3  A    between atoms: C_2  and  C_17
REMARK    4  A    between atoms: C_4  and  C_6
REMARK    5  A    between atoms: N_12  and  C_13
REMARK    6  A    between atoms: C_20  and  O_21
REMARK    7  A    between atoms: O_21  and  C_22
REMARK    8  A    between atoms: C_22  and  C_23
REMARK                            x       y       z     vdW  Elec       q    Type
REMARK                         _______ _______ _______ _____ _____    ______ ____
ROOT
ATOM      1  C   UNL     1      45.700   9.254  12.930  0.00  0.00    +0.000 C 
ATOM      2  C   UNL     1      46.661   8.428  12.070  0.00  0.00    +0.000 C 
ENDROOT
BRANCH   2   3
ATOM      3  C   UNL     1      46.138   7.013  11.887  0.00  0.00    +0.000 A 
ATOM      4  C   UNL     1      45.025   6.757  11.077  0.00  0.00    +0.000 A 
ATOM      5  C   UNL     1      44.587   5.444  10.874  0.00  0.00    +0.000 A 
ATOM      6  C   UNL     1      45.267   4.375  11.458  0.00  0.00    +0.000 A 
ATOM      7  C   UNL     1      46.350   4.623  12.298  0.00  0.00    +0.000 A 
ATOM      8  C   UNL     1      46.788   5.928  12.500  0.00  0.00    +0.000 A 
BRANCH   6   9
ATOM      9  O   UNL     1      44.804   3.125  11.153  0.00  0.00    +0.000 OA
BRANCH   9  10
ATOM     10  C   UNL     1      44.194   3.018   9.859  0.00  0.00    +0.000 C 
BRANCH  10  11
ATOM     11  C   UNL     1      45.213   2.699   8.791  0.00  0.00    +0.000 A 
ATOM     12  C   UNL     1      45.723   3.698   7.964  0.00  0.00    +0.000 A 
ATOM     13  C   UNL     1      46.716   3.371   7.049  0.00  0.00    +0.000 A 
ATOM     14  C   UNL     1      47.185   2.065   6.991  0.00  0.00    +0.000 A 
ATOM     15  C   UNL     1      46.640   1.133   7.857  0.00  0.00    +0.000 A 
ATOM     16  N   UNL     1      45.671   1.420   8.753  0.00  0.00    +0.000 NA
ENDBRANCH  10  11
ENDBRANCH   9  10
ENDBRANCH   6   9
ENDBRANCH   2   3
BRANCH   2  17
ATOM     17  N   UNL     1      47.975   8.356  12.679  0.00  0.00    +0.000 N 
ATOM     18  C   UNL     1      48.212   8.455  14.021  0.00  0.00    +0.000 C 
ATOM     19  O   UNL     1      47.343   8.753  14.833  0.00  0.00    +0.000 OA
ATOM     20  H   UNL     1      48.705   7.967  12.096  0.00  0.00    +0.000 HD
BRANCH  18  21
ATOM     21  C   UNL     1      49.608   8.234  14.424  0.00  0.00    +0.000 A 
ATOM     22  C   UNL     1      50.623   9.014  13.888  0.00  0.00    +0.000 A 
ATOM     23  S   UNL     1      52.175   8.594  14.461  0.00  0.00    +0.000 S 
ATOM     24  C   UNL     1      51.538   7.388  15.479  0.00  0.00    +0.000 A 
ATOM     25  N   UNL     1      52.346   6.655  16.285  0.00  0.00    +0.000 NA
ATOM     26  C   UNL     1      51.728   5.792  17.025  0.00  0.00    +0.000 A 
ATOM     27  N   UNL     1      50.365   5.578  17.035  0.00  0.00    +0.000 N 
ATOM     28  C   UNL     1      49.779   4.568  17.892  0.00  0.00    +0.000 C 
ATOM     29  C   UNL     1      49.514   6.287  16.197  0.00  0.00    +0.000 A 
ATOM     30  O   UNL     1      48.306   6.064  16.139  0.00  0.00    +0.000 OA
ATOM     31  C   UNL     1      50.165   7.286  15.364  0.00  0.00    +0.000 A 
ENDBRANCH  18  21
ENDBRANCH   2  17
TORSDOF 6
ENDMDL
MODEL 8
REMARK VINA RESULT:    -5.977      3.795      8.705
REMARK INTER + INTRA:          -8.889
REMARK INTER:                  -7.599
REMARK INTRA:                  -1.290
REMARK UNBOUND:                -0.816
REMARK  Name = 
REMARK  8 active torsions:
REMARK  status: ('A' for Active; 'I' for Inactive)
REMARK    1  A    between atoms: C_1  and  C_2
REMARK    2  A    between atoms: C_2  and  N_3
REMARK    3  A    between atoms: C_2  and  C_17
REMARK    4  A    between atoms: C_4  and  C_6
REMARK    5  A    between atoms: N_12  and  C_13
REMARK    6  A    between atoms: C_20  and  O_21
REMARK    7  A    between atoms: O_21  and  C_22
REMARK    8  A    between atoms: C_22  and  C_23
REMARK                            x       y       z     vdW  Elec       q    Type
REMARK                         _______ _______ _______ _____ _____    ______ ____
ROOT
ATOM      1  C   UNL     1      47.101   3.745  17.491  0.00  0.00    +0.000 C 
ATOM      2  C   UNL     1      47.852   4.364  16.308  0.00  0.00    +0.000 C 
ENDROOT
BRANCH   2   3
ATOM      3  C   UNL     1      48.729   5.516  16.770  0.00  0.00    +0.000 A 
ATOM      4  C   UNL     1      49.420   5.450  17.986  0.00  0.00    +0.000 A 
ATOM      5  C   UNL     1      50.266   6.494  18.374  0.00  0.00    +0.000 A 
ATOM      6  C   UNL     1      50.446   7.601  17.544  0.00  0.00    +0.000 A 
ATOM      7  C   UNL     1      49.731   7.693  16.353  0.00  0.00    +0.000 A 
ATOM      8  C   UNL     1      48.891   6.655  15.965  0.00  0.00    +0.000 A 
BRANCH   6   9
ATOM      9  O   UNL     1      51.340   8.542  17.978  0.00  0.00    +0.000 OA
BRANCH   9  10
ATOM     10  C   UNL     1      52.663   8.040  18.213  0.00  0.00    +0.000 C 
BRANCH  10  11
ATOM     11  C   UNL     1      53.388   7.761  16.919  0.00  0.00    +0.000 A 
ATOM     12  C   UNL     1      53.889   6.492  16.635  0.00  0.00    +0.000 A 
ATOM     13  C   UNL     1      54.479   6.263  15.399  0.00  0.00    +0.000 A 
ATOM     14  C   UNL     1      54.542   7.296  14.472  0.00  0.00    +0.000 A 
ATOM     15  C   UNL     1      54.007   8.524  14.822  0.00  0.00    +0.000 A 
ATOM     16  N   UNL     1      53.432   8.777  16.018  0.00  0.00    +0.000 NA
ENDBRANCH  10  11
ENDBRANCH   9  10
ENDBRANCH   6   9
ENDBRANCH   2   3
BRANCH   2  17
ATOM     17  N   UNL     1      46.929   4.863  15.308  0.00  0.00    +0.000 N 
ATOM     18  C   UNL     1      46.685   4.256  14.108  0.00  0.00    +0.000 C 
ATOM     19  O   UNL     1      47.331   3.296  13.702  0.00  0.00    +0.000 OA
ATOM     20  H   UNL     1      46.264   5.552  15.635  0.00  0.00    +0.000 HD
BRANCH  18  21
ATOM     21  C   UNL     1      45.622   4.874  13.302  0.00  0.00    +0.000 A 
ATOM     22  C   UNL     1      44.467   4.166  13.007  0.00  0.00    +0.000 A 
ATOM     23  S   UNL     1      43.362   5.042  12.045  0.00  0.00    +0.000 S 
ATOM     24  C   UNL     1      44.370   6.413  12.031  0.00  0.00    +0.000 A 
ATOM     25  N   UNL     1      43.996   7.551  11.395  0.00  0.00    +0.000 NA
ATOM     26  C   UNL     1      44.844   8.523  11.486  0.00  0.00    +0.000 A 
ATOM     27  N   UNL     1      46.052   8.471  12.151  0.00  0.00    +0.000 N 
ATOM     28  C   UNL     1      46.937   9.617  12.172  0.00  0.00    +0.000 C 
ATOM     29  C   UNL     1      46.481   7.310  12.783  0.00  0.00    +0.000 A 
ATOM     30  O   UNL     1      47.583   7.219  13.320  0.00  0.00    +0.000 OA
ATOM     31  C   UNL     1      45.545   6.198  12.725  0.00  0.00    +0.000 A 
ENDBRANCH  18  21
ENDBRANCH   2  17
TORSDOF 6
ENDMDL
MODEL 9
REMARK VINA RESULT:    -5.824      2.064      3.182
REMARK INTER + INTRA:          -8.683
REMARK INTER:                  -8.681
REMARK INTRA:                  -0.002
REMARK UNBOUND:                -0.816
REMARK  Name = 
REMARK  8 active torsions:
REMARK  status: ('A' for Active; 'I' for Inactive)
REMARK    1  A    between atoms: C_1  and  C_2
REMARK    2  A    between atoms: C_2  and  N_3
REMARK    3  A    between atoms: C_2  and  C_17
REMARK    4  A    between atoms: C_4  and  C_6
REMARK    5  A    between atoms: N_12  and  C_13
REMARK    6  A    between atoms: C_20  and  O_21
REMARK    7  A    between atoms: O_21  and  C_22
REMARK    8  A    between atoms: C_22  and  C_23
REMARK                            x       y       z     vdW  Elec       q    Type
REMARK                         _______ _______ _______ _____ _____    ______ ____
ROOT
ATOM      1  C   UNL     1      45.094   8.141  12.391  0.00  0.00    +0.000 C 
ATOM      2  C   UNL     1      46.235   7.143  12.171  0.00  0.00    +0.000 C 
ENDROOT
BRANCH   2   3
ATOM      3  C   UNL     1      45.696   5.807  11.690  0.00  0.00    +0.000 A 
ATOM      4  C   UNL     1      44.956   5.714  10.505  0.00  0.00    +0.000 A 
ATOM      5  C   UNL     1      44.513   4.470  10.046  0.00  0.00    +0.000 A 
ATOM      6  C   UNL     1      44.820   3.307  10.752  0.00  0.00    +0.000 A 
ATOM      7  C   UNL     1      45.520   3.394  11.952  0.00  0.00    +0.000 A 
ATOM      8  C   UNL     1      45.964   4.630  12.410  0.00  0.00    +0.000 A 
BRANCH   6   9
ATOM      9  O   UNL     1      44.396   2.132  10.193  0.00  0.00    +0.000 OA
BRANCH   9  10
ATOM     10  C   UNL     1      44.230   2.178   8.769  0.00  0.00    +0.000 C 
BRANCH  10  11
ATOM     11  C   UNL     1      45.560   2.244   8.057  0.00  0.00    +0.000 A 
ATOM     12  C   UNL     1      46.382   1.123   7.965  0.00  0.00    +0.000 A 
ATOM     13  C   UNL     1      47.559   1.211   7.233  0.00  0.00    +0.000 A 
ATOM     14  C   UNL     1      47.879   2.405   6.598  0.00  0.00    +0.000 A 
ATOM     15  C   UNL     1      47.003   3.469   6.722  0.00  0.00    +0.000 A 
ATOM     16  N   UNL     1      45.854   3.414   7.431  0.00  0.00    +0.000 NA
ENDBRANCH  10  11
ENDBRANCH   9  10
ENDBRANCH   6   9
ENDBRANCH   2   3
BRANCH   2  17
ATOM     17  N   UNL     1      46.979   6.924  13.396  0.00  0.00    +0.000 N 
ATOM     18  C   UNL     1      48.015   7.707  13.824  0.00  0.00    +0.000 C 
ATOM     19  O   UNL     1      48.506   8.597  13.139  0.00  0.00    +0.000 OA
ATOM     20  H   UNL     1      46.538   6.312  14.070  0.00  0.00    +0.000 HD
BRANCH  18  21
ATOM     21  C   UNL     1      48.543   7.368  15.153  0.00  0.00    +0.000 A 
ATOM     22  C   UNL     1      48.491   6.061  15.614  0.00  0.00    +0.000 A 
ATOM     23  S   UNL     1      49.134   5.870  17.184  0.00  0.00    +0.000 S 
ATOM     24  C   UNL     1      49.544   7.519  17.281  0.00  0.00    +0.000 A 
ATOM     25  N   UNL     1      50.166   8.022  18.376  0.00  0.00    +0.000 NA
ATOM     26  C   UNL     1      50.444   9.283  18.305  0.00  0.00    +0.000 A 
ATOM     27  N   UNL     1      50.150  10.108  17.240  0.00  0.00    +0.000 N 
ATOM     28  C   UNL     1      50.490  11.516  17.275  0.00  0.00    +0.000 C 
ATOM     29  C   UNL     1      49.482   9.633  16.118  0.00  0.00    +0.000 A 
ATOM     30  O   UNL     1      49.148  10.365  15.188  0.00  0.00    +0.000 OA
ATOM     31  C   UNL     1      49.172   8.212  16.145  0.00  0.00    +0.000 A 
ENDBRANCH  18  21
ENDBRANCH   2  17
TORSDOF 6
ENDMDL
