MODEL 1
REMARK VINA RESULT:    -8.520      0.000      0.000
REMARK INTER + INTRA:         -12.049
REMARK INTER:                 -11.260
REMARK INTRA:                  -0.789
REMARK UNBOUND:                -0.789
REMARK  Name = 
REMARK  6 active torsions:
REMARK  status: ('A' for Active; 'I' for Inactive)
REMARK    1  A    between atoms: C_2  and  O_3
REMARK    2  A    between atoms: C_2  and  C_4
REMARK    3  A    between atoms: C_7  and  C_8
REMARK    4  A    between atoms: C_8  and  N_9
REMARK    5  A    between atoms: N_9  and  C_10
REMARK    6  A    between atoms: C_14  and  C_15
REMARK                            x       y       z     vdW  Elec       q    Type
REMARK                         _______ _______ _______ _____ _____    ______ ____
ROOT
ATOM      1  N   UNL     1      44.725   5.902  10.608  0.00  0.00    +0.000 N 
ATOM      2  H   UNL     1      45.135   6.483   9.879  0.00  0.00    +0.000 HD
ENDROOT
BRANCH   1   3
ATOM      3  C   UNL     1      45.634   5.619  11.630  0.00  0.00    +0.000 A 
ATOM      4  C   UNL     1      45.419   4.703  12.655  0.00  0.00    +0.000 A 
ATOM      5  C   UNL     1      46.384   4.564  13.643  0.00  0.00    +0.000 A 
ATOM      6  N   UNL     1      47.517   5.297  13.708  0.00  0.00    +0.000 NA
ATOM      7  C   UNL     1      47.704   6.233  12.750  0.00  0.00    +0.000 A 
ATOM      8  C   UNL     1      46.791   6.400  11.706  0.00  0.00    +0.000 A 
BRANCH   7   9
ATOM      9  C   UNL     1      48.910   7.068  12.872  0.00  0.00    +0.000 A 
ATOM     10  C   UNL     1      49.524   7.671  11.763  0.00  0.00    +0.000 A 
ATOM     11  C   UNL     1      50.694   8.413  11.910  0.00  0.00    +0.000 A 
ATOM     12  C   UNL     1      51.225   8.552  13.178  0.00  0.00    +0.000 A 
ATOM     13  N   UNL     1      50.665   8.018  14.283  0.00  0.00    +0.000 NA
ATOM     14  C   UNL     1      49.523   7.301  14.104  0.00  0.00    +0.000 A 
ENDBRANCH   7   9
ENDBRANCH   1   3
BRANCH   1  15
ATOM     15  C   UNL     1      43.841   4.873  10.085  0.00  0.00    +0.000 C 
BRANCH  15  19
ATOM     16  C   UNL     1      46.240   1.969   7.951  0.00  0.00    +0.000 A 
ATOM     17  C   UNL     1      46.417   3.337   7.718  0.00  0.00    +0.000 A 
ATOM     18  C   UNL     1      45.616   4.274   8.377  0.00  0.00    +0.000 A 
ATOM     19  C   UNL     1      44.634   3.856   9.288  0.00  0.00    +0.000 A 
ATOM     20  C   UNL     1      44.452   2.480   9.503  0.00  0.00    +0.000 A 
ATOM     21  C   UNL     1      45.256   1.540   8.850  0.00  0.00    +0.000 A 
BRANCH  16  23
ATOM     22  O   UNL     1      47.958   1.364   6.424  0.00  0.00    +0.000 OA
ATOM     23  C   UNL     1      47.161   1.020   7.277  0.00  0.00    +0.000 C 
BRANCH  23  24
ATOM     24  O   UNL     1      47.004  -0.263   7.668  0.00  0.00    +0.000 OA
ATOM     25  H   UNL     1      47.795  -0.675   8.060  0.00  0.00    +0.000 HD
ENDBRANCH  23  24
ENDBRANCH  16  23
ENDBRANCH  15  19
ENDBRANCH   1  15
TORSDOF 6
ENDMDL
MODEL 2
REMARK VINA RESULT:    -8.201      1.801      2.839
REMARK INTER + INTRA:         -11.626
REMARK INTER:                 -10.820
REMARK INTRA:                  -0.807
REMARK UNBOUND:                -0.789
REMARK  Name = 
REMARK  6 active torsions:
REMARK  status: ('A' for Active; 'I' for Inactive)
REMARK    1  A    between atoms: C_2  and  O_3
REMARK    2  A    between atoms: C_2  and  C_4
REMARK    3  A    between atoms: C_7  and  C_8
REMARK    4  A    between atoms: C_8  and  N_9
REMARK    5  A    between atoms: N_9  and  C_10
REMARK    6  A    between atoms: C_14  and  C_15
REMARK                            x       y       z     vdW  Elec       q    Type
REMARK                         _______ _______ _______ _____ _____    ______ ____
ROOT
ATOM      1  N   UNL     1      44.129   4.692  11.448  0.00  0.00    +0.000 N 
ATOM      2  H   UNL     1      43.320   4.729  12.064  0.00  0.00    +0.000 HD
ENDROOT
BRANCH   1   3
ATOM      3  C   UNL     1      45.211   5.417  11.952  0.00  0.00    +0.000 A 
ATOM      4  C   UNL     1      45.843   6.466  11.292  0.00  0.00    +0.000 A 
ATOM      5  C   UNL     1      46.949   7.061  11.884  0.00  0.00    +0.000 A 
ATOM      6  N   UNL     1      47.492   6.662  13.054  0.00  0.00    +0.000 NA
ATOM      7  C   UNL     1      46.921   5.602  13.672  0.00  0.00    +0.000 A 
ATOM      8  C   UNL     1      45.784   4.981  13.150  0.00  0.00    +0.000 A 
BRANCH   7   9
ATOM      9  C   UNL     1      47.565   5.138  14.912  0.00  0.00    +0.000 A 
ATOM     10  C   UNL     1      47.184   3.952  15.560  0.00  0.00    +0.000 A 
ATOM     11  C   UNL     1      47.781   3.569  16.758  0.00  0.00    +0.000 A 
ATOM     12  C   UNL     1      48.769   4.380  17.284  0.00  0.00    +0.000 A 
ATOM     13  N   UNL     1      49.194   5.516  16.693  0.00  0.00    +0.000 NA
ATOM     14  C   UNL     1      48.591   5.859  15.524  0.00  0.00    +0.000 A 
ENDBRANCH   7   9
ENDBRANCH   1   3
BRANCH   1  15
ATOM     15  C   UNL     1      43.774   4.758  10.039  0.00  0.00    +0.000 C 
BRANCH  15  19
ATOM     16  C   UNL     1      46.254   1.919   7.911  0.00  0.00    +0.000 A 
ATOM     17  C   UNL     1      46.384   3.291   7.666  0.00  0.00    +0.000 A 
ATOM     18  C   UNL     1      45.556   4.205   8.324  0.00  0.00    +0.000 A 
ATOM     19  C   UNL     1      44.595   3.763   9.244  0.00  0.00    +0.000 A 
ATOM     20  C   UNL     1      44.460   2.383   9.471  0.00  0.00    +0.000 A 
ATOM     21  C   UNL     1      45.291   1.465   8.820  0.00  0.00    +0.000 A 
BRANCH  16  23
ATOM     22  O   UNL     1      47.974   1.357   6.369  0.00  0.00    +0.000 OA
ATOM     23  C   UNL     1      47.201   0.996   7.238  0.00  0.00    +0.000 C 
BRANCH  23  24
ATOM     24  O   UNL     1      47.098  -0.286   7.648  0.00  0.00    +0.000 OA
ATOM     25  H   UNL     1      46.969  -0.404   8.607  0.00  0.00    +0.000 HD
ENDBRANCH  23  24
ENDBRANCH  16  23
ENDBRANCH  15  19
ENDBRANCH   1  15
TORSDOF 6
ENDMDL
MODEL 3
REMARK VINA RESULT:    -8.186      2.301      3.127
REMARK INTER + INTRA:         -11.607
REMARK INTER:                 -10.815
REMARK INTRA:                  -0.792
REMARK UNBOUND:                -0.789
REMARK  Name = 
REMARK  6 active torsions:
REMARK  status: ('A' for Active; 'I' for Inactive)
REMARK    1  A    between atoms: C_2  and  O_3
REMARK    2  A    between atoms: C_2  and  C_4
REMARK    3  A    between atoms: C_7  and  C_8
REMARK    4  A    between atoms: C_8  and  N_9
REMARK    5  A    between atoms: N_9  and  C_10
REMARK    6  A    between atoms: C_14  and  C_15
REMARK                            x       y       z     vdW  Elec       q    Type
REMARK                         _______ _______ _______ _____ _____    ______ ____
ROOT
ATOM      1  N   UNL     1      44.720   3.135  11.849  0.00  0.00    +0.000 N 
ATOM      2  H   UNL     1      44.203   2.628  12.566  0.00  0.00    +0.000 HD
ENDROOT
BRANCH   1   3
ATOM      3  C   UNL     1      45.497   4.162  12.387  0.00  0.00    +0.000 A 
ATOM      4  C   UNL     1      46.450   3.999  13.387  0.00  0.00    +0.000 A 
ATOM      5  C   UNL     1      47.110   5.120  13.874  0.00  0.00    +0.000 A 
ATOM      6  N   UNL     1      46.859   6.384  13.471  0.00  0.00    +0.000 NA
ATOM      7  C   UNL     1      45.890   6.557  12.544  0.00  0.00    +0.000 A 
ATOM      8  C   UNL     1      45.213   5.471  11.986  0.00  0.00    +0.000 A 
BRANCH   7   9
ATOM      9  C   UNL     1      45.584   7.947  12.165  0.00  0.00    +0.000 A 
ATOM     10  C   UNL     1      44.449   8.289  11.412  0.00  0.00    +0.000 A 
ATOM     11  C   UNL     1      44.216   9.608  11.029  0.00  0.00    +0.000 A 
ATOM     12  C   UNL     1      45.125  10.572  11.422  0.00  0.00    +0.000 A 
ATOM     13  N   UNL     1      46.218  10.306  12.168  0.00  0.00    +0.000 NA
ATOM     14  C   UNL     1      46.413   9.010  12.526  0.00  0.00    +0.000 A 
ENDBRANCH   7   9
ENDBRANCH   1   3
BRANCH   1  15
ATOM     15  C   UNL     1      43.953   3.335  10.630  0.00  0.00    +0.000 C 
BRANCH  15  19
ATOM     16  C   UNL     1      46.576   2.553   7.276  0.00  0.00    +0.000 A 
ATOM     17  C   UNL     1      46.135   3.855   7.537  0.00  0.00    +0.000 A 
ATOM     18  C   UNL     1      45.256   4.102   8.596  0.00  0.00    +0.000 A 
ATOM     19  C   UNL     1      44.816   3.053   9.416  0.00  0.00    +0.000 A 
ATOM     20  C   UNL     1      45.250   1.746   9.136  0.00  0.00    +0.000 A 
ATOM     21  C   UNL     1      46.135   1.496   8.081  0.00  0.00    +0.000 A 
BRANCH  16  23
ATOM     22  O   UNL     1      48.383   1.458   6.187  0.00  0.00    +0.000 OA
ATOM     23  C   UNL     1      47.560   2.354   6.183  0.00  0.00    +0.000 C 
BRANCH  23  24
ATOM     24  O   UNL     1      47.484   3.283   5.205  0.00  0.00    +0.000 OA
ATOM     25  H   UNL     1      46.600   3.395   4.811  0.00  0.00    +0.000 HD
ENDBRANCH  23  24
ENDBRANCH  16  23
ENDBRANCH  15  19
ENDBRANCH   1  15
TORSDOF 6
ENDMDL
MODEL 4
REMARK VINA RESULT:    -7.438      3.491      6.985
REMARK INTER + INTRA:         -10.619
REMARK INTER:                  -9.782
REMARK INTRA:                  -0.837
REMARK UNBOUND:                -0.789
REMARK  Name = 
REMARK  6 active torsions:
REMARK  status: ('A' for Active; 'I' for Inactive)
REMARK    1  A    between atoms: C_2  and  O_3
REMARK    2  A    between atoms: C_2  and  C_4
REMARK    3  A    between atoms: C_7  and  C_8
REMARK    4  A    between atoms: C_8  and  N_9
REMARK    5  A    between atoms: N_9  and  C_10
REMARK    6  A    between atoms: C_14  and  C_15
REMARK                            x       y       z     vdW  Elec       q    Type
REMARK                         _______ _______ _______ _____ _____    ______ ____
ROOT
ATOM      1  N   UNL     1      44.192   6.292  11.035  0.00  0.00    +0.000 N 
ATOM      2  H   UNL     1      43.391   6.799  10.661  0.00  0.00    +0.000 HD
ENDROOT
BRANCH   1   3
ATOM      3  C   UNL     1      44.170   4.940  10.685  0.00  0.00    +0.000 A 
ATOM      4  C   UNL     1      43.539   3.939  11.416  0.00  0.00    +0.000 A 
ATOM      5  C   UNL     1      43.648   2.623  10.985  0.00  0.00    +0.000 A 
ATOM      6  N   UNL     1      44.371   2.232   9.914  0.00  0.00    +0.000 NA
ATOM      7  C   UNL     1      45.039   3.192   9.235  0.00  0.00    +0.000 A 
ATOM      8  C   UNL     1      44.943   4.538   9.591  0.00  0.00    +0.000 A 
BRANCH   7   9
ATOM      9  C   UNL     1      45.876   2.740   8.110  0.00  0.00    +0.000 A 
ATOM     10  C   UNL     1      46.174   3.566   7.015  0.00  0.00    +0.000 A 
ATOM     11  C   UNL     1      46.928   3.089   5.944  0.00  0.00    +0.000 A 
ATOM     12  C   UNL     1      47.385   1.786   5.997  0.00  0.00    +0.000 A 
ATOM     13  N   UNL     1      47.152   0.956   7.034  0.00  0.00    +0.000 NA
ATOM     14  C   UNL     1      46.415   1.454   8.063  0.00  0.00    +0.000 A 
ENDBRANCH   7   9
ENDBRANCH   1   3
BRANCH   1  15
ATOM     15  C   UNL     1      44.553   6.712  12.379  0.00  0.00    +0.000 C 
BRANCH  15  19
ATOM     16  C   UNL     1      48.785   7.624  12.373  0.00  0.00    +0.000 A 
ATOM     17  C   UNL     1      48.336   6.362  12.781  0.00  0.00    +0.000 A 
ATOM     18  C   UNL     1      46.968   6.080  12.820  0.00  0.00    +0.000 A 
ATOM     19  C   UNL     1      46.029   7.051  12.442  0.00  0.00    +0.000 A 
ATOM     20  C   UNL     1      46.488   8.321  12.051  0.00  0.00    +0.000 A 
ATOM     21  C   UNL     1      47.857   8.605  12.004  0.00  0.00    +0.000 A 
BRANCH  16  23
ATOM     22  O   UNL     1      50.808   8.181  11.256  0.00  0.00    +0.000 OA
ATOM     23  C   UNL     1      50.250   7.850  12.285  0.00  0.00    +0.000 C 
BRANCH  23  24
ATOM     24  O   UNL     1      50.908   7.616  13.441  0.00  0.00    +0.000 OA
ATOM     25  H   UNL     1      51.377   8.385  13.812  0.00  0.00    +0.000 HD
ENDBRANCH  23  24
ENDBRANCH  16  23
ENDBRANCH  15  19
ENDBRANCH   1  15
TORSDOF 6
ENDMDL
MODEL 5
REMARK VINA RESULT:    -7.269      3.795      7.220
REMARK INTER + INTRA:         -10.395
REMARK INTER:                  -9.920
REMARK INTRA:                  -0.475
REMARK UNBOUND:                -0.789
REMARK  Name = 
REMARK  6 active torsions:
REMARK  status: ('A' for Active; 'I' for Inactive)
REMARK    1  A    between atoms: C_2  and  O_3
REMARK    2  A    between atoms: C_2  and  C_4
REMARK    3  A    between atoms: C_7  and  C_8
REMARK    4  A    between atoms: C_8  and  N_9
REMARK    5  A    between atoms: N_9  and  C_10
REMARK    6  A    between atoms: C_14  and  C_15
REMARK                            x       y       z     vdW  Elec       q    Type
REMARK                         _______ _______ _______ _____ _____    ______ ____
ROOT
ATOM      1  N   UNL     1      45.973   7.229  11.998  0.00  0.00    +0.000 N 
ATOM      2  H   UNL     1      45.499   7.634  12.803  0.00  0.00    +0.000 HD
ENDROOT
BRANCH   1   3
ATOM      3  C   UNL     1      45.163   6.323  11.310  0.00  0.00    +0.000 A 
ATOM      4  C   UNL     1      43.811   6.114  11.562  0.00  0.00    +0.000 A 
ATOM      5  C   UNL     1      43.138   5.135  10.843  0.00  0.00    +0.000 A 
ATOM      6  N   UNL     1      43.721   4.327   9.931  0.00  0.00    +0.000 NA
ATOM      7  C   UNL     1      45.048   4.481   9.726  0.00  0.00    +0.000 A 
ATOM      8  C   UNL     1      45.778   5.471  10.388  0.00  0.00    +0.000 A 
BRANCH   7   9
ATOM      9  C   UNL     1      45.680   3.548   8.778  0.00  0.00    +0.000 A 
ATOM     10  C   UNL     1      46.292   3.980   7.591  0.00  0.00    +0.000 A 
ATOM     11  C   UNL     1      46.836   3.065   6.693  0.00  0.00    +0.000 A 
ATOM     12  C   UNL     1      46.770   1.721   7.010  0.00  0.00    +0.000 A 
ATOM     13  N   UNL     1      46.219   1.250   8.147  0.00  0.00    +0.000 NA
ATOM     14  C   UNL     1      45.699   2.171   9.002  0.00  0.00    +0.000 A 
ENDBRANCH   7   9
ENDBRANCH   1   3
BRANCH   1  15
ATOM     15  C   UNL     1      47.376   6.939  12.250  0.00  0.00    +0.000 C 
BRANCH  15  19
ATOM     16  C   UNL     1      47.633   4.699  15.944  0.00  0.00    +0.000 A 
ATOM     17  C   UNL     1      48.297   5.924  15.816  0.00  0.00    +0.000 A 
ATOM     18  C   UNL     1      48.247   6.629  14.610  0.00  0.00    +0.000 A 
ATOM     19  C   UNL     1      47.523   6.125  13.519  0.00  0.00    +0.000 A 
ATOM     20  C   UNL     1      46.874   4.886  13.652  0.00  0.00    +0.000 A 
ATOM     21  C   UNL     1      46.917   4.180  14.859  0.00  0.00    +0.000 A 
BRANCH  16  23
ATOM     22  O   UNL     1      48.606   4.107  18.031  0.00  0.00    +0.000 OA
ATOM     23  C   UNL     1      47.663   4.023  17.266  0.00  0.00    +0.000 C 
BRANCH  23  24
ATOM     24  O   UNL     1      46.567   3.277  17.522  0.00  0.00    +0.000 OA
ATOM     25  H   UNL     1      46.011   3.597  18.255  0.00  0.00    +0.000 HD
ENDBRANCH  23  24
ENDBRANCH  16  23
ENDBRANCH  15  19
ENDBRANCH   1  15
TORSDOF 6
ENDMDL
MODEL 6
REMARK VINA RESULT:    -7.232      4.874      8.215
REMARK INTER + INTRA:         -10.345
REMARK INTER:                  -9.854
REMARK INTRA:                  -0.491
REMARK UNBOUND:                -0.789
REMARK  Name = 
REMARK  6 active torsions:
REMARK  status: ('A' for Active; 'I' for Inactive)
REMARK    1  A    between atoms: C_2  and  O_3
REMARK    2  A    between atoms: C_2  and  C_4
REMARK    3  A    between atoms: C_7  and  C_8
REMARK    4  A    between atoms: C_8  and  N_9
REMARK    5  A    between atoms: N_9  and  C_10
REMARK    6  A    between atoms: C_14  and  C_15
REMARK                            x       y       z     vdW  Elec       q    Type
REMARK                         _______ _______ _______ _____ _____    ______ ____
ROOT
ATOM      1  N   UNL     1      45.503   4.770  14.210  0.00  0.00    +0.000 N 
ATOM      2  H   UNL     1      45.034   4.268  14.962  0.00  0.00    +0.000 HD
ENDROOT
BRANCH   1   3
ATOM      3  C   UNL     1      44.746   4.789  13.037  0.00  0.00    +0.000 A 
ATOM      4  C   UNL     1      43.398   5.126  12.965  0.00  0.00    +0.000 A 
ATOM      5  C   UNL     1      42.751   5.043  11.739  0.00  0.00    +0.000 A 
ATOM      6  N   UNL     1      43.333   4.610  10.600  0.00  0.00    +0.000 NA
ATOM      7  C   UNL     1      44.626   4.220  10.675  0.00  0.00    +0.000 A 
ATOM      8  C   UNL     1      45.346   4.313  11.868  0.00  0.00    +0.000 A 
BRANCH   7   9
ATOM      9  C   UNL     1      45.225   3.688   9.440  0.00  0.00    +0.000 A 
ATOM     10  C   UNL     1      45.389   2.312   9.214  0.00  0.00    +0.000 A 
ATOM     11  C   UNL     1      46.005   1.846   8.055  0.00  0.00    +0.000 A 
ATOM     12  C   UNL     1      46.439   2.775   7.128  0.00  0.00    +0.000 A 
ATOM     13  N   UNL     1      46.285   4.106   7.278  0.00  0.00    +0.000 NA
ATOM     14  C   UNL     1      45.678   4.526   8.420  0.00  0.00    +0.000 A 
ENDBRANCH   7   9
ENDBRANCH   1   3
BRANCH   1  15
ATOM     15  C   UNL     1      46.937   4.529  14.173  0.00  0.00    +0.000 C 
BRANCH  15  19
ATOM     16  C   UNL     1      48.357   4.407  18.261  0.00  0.00    +0.000 A 
ATOM     17  C   UNL     1      48.619   5.522  17.456  0.00  0.00    +0.000 A 
ATOM     18  C   UNL     1      48.195   5.545  16.125  0.00  0.00    +0.000 A 
ATOM     19  C   UNL     1      47.492   4.460  15.582  0.00  0.00    +0.000 A 
ATOM     20  C   UNL     1      47.249   3.337  16.391  0.00  0.00    +0.000 A 
ATOM     21  C   UNL     1      47.666   3.313  17.726  0.00  0.00    +0.000 A 
BRANCH  16  23
ATOM     22  O   UNL     1      49.394   5.391  20.159  0.00  0.00    +0.000 OA
ATOM     23  C   UNL     1      48.769   4.460  19.686  0.00  0.00    +0.000 C 
BRANCH  23  24
ATOM     24  O   UNL     1      48.424   3.365  20.395  0.00  0.00    +0.000 OA
ATOM     25  H   UNL     1      49.061   2.629  20.355  0.00  0.00    +0.000 HD
ENDBRANCH  23  24
ENDBRANCH  16  23
ENDBRANCH  15  19
ENDBRANCH   1  15
TORSDOF 6
ENDMDL
MODEL 7
REMARK VINA RESULT:    -7.160      3.924      7.136
REMARK INTER + INTRA:         -10.251
REMARK INTER:                  -9.632
REMARK INTRA:                  -0.619
REMARK UNBOUND:                -0.789
REMARK  Name = 
REMARK  6 active torsions:
REMARK  status: ('A' for Active; 'I' for Inactive)
REMARK    1  A    between atoms: C_2  and  O_3
REMARK    2  A    between atoms: C_2  and  C_4
REMARK    3  A    between atoms: C_7  and  C_8
REMARK    4  A    between atoms: C_8  and  N_9
REMARK    5  A    between atoms: N_9  and  C_10
REMARK    6  A    between atoms: C_14  and  C_15
REMARK                            x       y       z     vdW  Elec       q    Type
REMARK                         _______ _______ _______ _____ _____    ______ ____
ROOT
ATOM      1  N   UNL     1      43.729   6.441  11.304  0.00  0.00    +0.000 N 
ATOM      2  H   UNL     1      43.431   6.616  12.262  0.00  0.00    +0.000 HD
ENDROOT
BRANCH   1   3
ATOM      3  C   UNL     1      43.756   5.078  11.000  0.00  0.00    +0.000 A 
ATOM      4  C   UNL     1      43.157   4.081  11.763  0.00  0.00    +0.000 A 
ATOM      5  C   UNL     1      43.315   2.756  11.377  0.00  0.00    +0.000 A 
ATOM      6  N   UNL     1      44.055   2.355  10.322  0.00  0.00    +0.000 NA
ATOM      7  C   UNL     1      44.692   3.314   9.612  0.00  0.00    +0.000 A 
ATOM      8  C   UNL     1      44.547   4.668   9.923  0.00  0.00    +0.000 A 
BRANCH   7   9
ATOM      9  C   UNL     1      45.549   2.854   8.506  0.00  0.00    +0.000 A 
ATOM     10  C   UNL     1      45.954   3.704   7.465  0.00  0.00    +0.000 A 
ATOM     11  C   UNL     1      46.723   3.223   6.408  0.00  0.00    +0.000 A 
ATOM     12  C   UNL     1      47.089   1.890   6.420  0.00  0.00    +0.000 A 
ATOM     13  N   UNL     1      46.751   1.034   7.407  0.00  0.00    +0.000 NA
ATOM     14  C   UNL     1      46.002   1.537   8.423  0.00  0.00    +0.000 A 
ENDBRANCH   7   9
ENDBRANCH   1   3
BRANCH   1  15
ATOM     15  C   UNL     1      44.798   7.327  10.870  0.00  0.00    +0.000 C 
BRANCH  15  19
ATOM     16  C   UNL     1      47.891   7.231  13.897  0.00  0.00    +0.000 A 
ATOM     17  C   UNL     1      46.973   8.287  13.861  0.00  0.00    +0.000 A 
ATOM     18  C   UNL     1      45.999   8.339  12.860  0.00  0.00    +0.000 A 
ATOM     19  C   UNL     1      45.920   7.330  11.889  0.00  0.00    +0.000 A 
ATOM     20  C   UNL     1      46.857   6.283  11.923  0.00  0.00    +0.000 A 
ATOM     21  C   UNL     1      47.829   6.225  12.926  0.00  0.00    +0.000 A 
BRANCH  16  23
ATOM     22  O   UNL     1      50.041   6.927  14.864  0.00  0.00    +0.000 OA
ATOM     23  C   UNL     1      48.862   7.188  15.019  0.00  0.00    +0.000 C 
BRANCH  23  24
ATOM     24  O   UNL     1      48.310   7.425  16.228  0.00  0.00    +0.000 OA
ATOM     25  H   UNL     1      48.697   6.919  16.965  0.00  0.00    +0.000 HD
ENDBRANCH  23  24
ENDBRANCH  16  23
ENDBRANCH  15  19
ENDBRANCH   1  15
TORSDOF 6
ENDMDL
MODEL 8
REMARK VINA RESULT:    -6.396      4.801      8.038
REMARK INTER + INTRA:          -9.241
REMARK INTER:                  -8.532
REMARK INTRA:                  -0.708
REMARK UNBOUND:                -0.789
REMARK  Name = 
REMARK  6 active torsions:
REMARK  status: ('A' for Active; 'I' for Inactive)
REMARK    1  A    between atoms: C_2  and  O_3
REMARK    2  A    between atoms: C_2  and  C_4
REMARK    3  A    between atoms: C_7  and  C_8
REMARK    4  A    between atoms: C_8  and  N_9
REMARK    5  A    between atoms: N_9  and  C_10
REMARK    6  A    between atoms: C_14  and  C_15
REMARK                            x       y       z     vdW  Elec       q    Type
REMARK                         _______ _______ _______ _____ _____    ______ ____
ROOT
ATOM      1  N   UNL     1      48.411   6.253  15.931  0.00  0.00    +0.000 N 
ATOM      2  H   UNL     1      48.327   7.150  16.405  0.00  0.00    +0.000 HD
ENDROOT
BRANCH   1   3
ATOM      3  C   UNL     1      48.163   6.355  14.560  0.00  0.00    +0.000 A 
ATOM      4  C   UNL     1      48.826   7.219  13.695  0.00  0.00    +0.000 A 
ATOM      5  C   UNL     1      48.436   7.263  12.362  0.00  0.00    +0.000 A 
ATOM      6  N   UNL     1      47.415   6.548  11.846  0.00  0.00    +0.000 NA
ATOM      7  C   UNL     1      46.725   5.752  12.694  0.00  0.00    +0.000 A 
ATOM      8  C   UNL     1      47.086   5.633  14.038  0.00  0.00    +0.000 A 
BRANCH   7   9
ATOM      9  C   UNL     1      45.572   5.030  12.129  0.00  0.00    +0.000 A 
ATOM     10  C   UNL     1      44.686   5.624  11.217  0.00  0.00    +0.000 A 
ATOM     11  C   UNL     1      43.578   4.927  10.741  0.00  0.00    +0.000 A 
ATOM     12  C   UNL     1      43.383   3.631  11.180  0.00  0.00    +0.000 A 
ATOM     13  N   UNL     1      44.215   3.001  12.034  0.00  0.00    +0.000 NA
ATOM     14  C   UNL     1      45.288   3.709  12.478  0.00  0.00    +0.000 A 
ENDBRANCH   7   9
ENDBRANCH   1   3
BRANCH   1  15
ATOM     15  C   UNL     1      47.876   5.146  16.708  0.00  0.00    +0.000 C 
BRANCH  15  19
ATOM     16  C   UNL     1      51.102   2.379  17.530  0.00  0.00    +0.000 A 
ATOM     17  C   UNL     1      49.868   1.906  17.069  0.00  0.00    +0.000 A 
ATOM     18  C   UNL     1      48.813   2.795  16.841  0.00  0.00    +0.000 A 
ATOM     19  C   UNL     1      48.981   4.170  17.059  0.00  0.00    +0.000 A 
ATOM     20  C   UNL     1      50.218   4.634  17.538  0.00  0.00    +0.000 A 
ATOM     21  C   UNL     1      51.278   3.748  17.761  0.00  0.00    +0.000 A 
BRANCH  16  23
ATOM     22  O   UNL     1      53.354   1.639  17.357  0.00  0.00    +0.000 OA
ATOM     23  C   UNL     1      52.208   1.402  17.692  0.00  0.00    +0.000 C 
BRANCH  23  24
ATOM     24  O   UNL     1      51.817   0.217  18.206  0.00  0.00    +0.000 OA
ATOM     25  H   UNL     1      51.164  -0.270  17.671  0.00  0.00    +0.000 HD
ENDBRANCH  23  24
ENDBRANCH  16  23
ENDBRANCH  15  19
ENDBRANCH   1  15
TORSDOF 6
ENDMDL
MODEL 9
REMARK VINA RESULT:    -6.352      2.941      5.107
REMARK INTER + INTRA:          -9.183
REMARK INTER:                  -8.437
REMARK INTRA:                  -0.746
REMARK UNBOUND:                -0.789
REMARK  Name = 
REMARK  6 active torsions:
REMARK  status: ('A' for Active; 'I' for Inactive)
REMARK    1  A    between atoms: C_2  and  O_3
REMARK    2  A    between atoms: C_2  and  C_4
REMARK    3  A    between atoms: C_7  and  C_8
REMARK    4  A    between atoms: C_8  and  N_9
REMARK    5  A    between atoms: N_9  and  C_10
REMARK    6  A    between atoms: C_14  and  C_15
REMARK                            x       y       z     vdW  Elec       q    Type
REMARK                         _______ _______ _______ _____ _____    ______ ____
ROOT
ATOM      1  N   UNL     1      47.642   7.695  12.322  0.00  0.00    +0.000 N 
ATOM      2  H   UNL     1      47.920   7.095  11.547  0.00  0.00    +0.000 HD
ENDROOT
BRANCH   1   3
ATOM      3  C   UNL     1      48.412   7.471  13.465  0.00  0.00    +0.000 A 
ATOM      4  C   UNL     1      49.619   8.103  13.748  0.00  0.00    +0.000 A 
ATOM      5  C   UNL     1      50.314   7.740  14.894  0.00  0.00    +0.000 A 
ATOM      6  N   UNL     1      49.919   6.771  15.747  0.00  0.00    +0.000 NA
ATOM      7  C   UNL     1      48.779   6.108  15.445  0.00  0.00    +0.000 A 
ATOM      8  C   UNL     1      48.012   6.447  14.328  0.00  0.00    +0.000 A 
BRANCH   7   9
ATOM      9  C   UNL     1      48.397   5.010  16.349  0.00  0.00    +0.000 A 
ATOM     10  C   UNL     1      49.227   4.572  17.394  0.00  0.00    +0.000 A 
ATOM     11  C   UNL     1      48.856   3.498  18.199  0.00  0.00    +0.000 A 
ATOM     12  C   UNL     1      47.643   2.883  17.950  0.00  0.00    +0.000 A 
ATOM     13  N   UNL     1      46.794   3.277  16.978  0.00  0.00    +0.000 NA
ATOM     14  C   UNL     1      47.186   4.330  16.213  0.00  0.00    +0.000 A 
ENDBRANCH   7   9
ENDBRANCH   1   3
BRANCH   1  15
ATOM     15  C   UNL     1      46.202   7.877  12.412  0.00  0.00    +0.000 C 
BRANCH  15  19
ATOM     16  C   UNL     1      44.316   4.106  11.431  0.00  0.00    +0.000 A 
ATOM     17  C   UNL     1      45.098   4.771  10.480  0.00  0.00    +0.000 A 
ATOM     18  C   UNL     1      45.675   6.008  10.783  0.00  0.00    +0.000 A 
ATOM     19  C   UNL     1      45.488   6.592  12.044  0.00  0.00    +0.000 A 
ATOM     20  C   UNL     1      44.686   5.925  12.987  0.00  0.00    +0.000 A 
ATOM     21  C   UNL     1      44.112   4.685  12.689  0.00  0.00    +0.000 A 
BRANCH  16  23
ATOM     22  O   UNL     1      42.898   2.220  11.717  0.00  0.00    +0.000 OA
ATOM     23  C   UNL     1      43.781   2.766  11.083  0.00  0.00    +0.000 C 
BRANCH  23  24
ATOM     24  O   UNL     1      44.393   2.194  10.024  0.00  0.00    +0.000 OA
ATOM     25  H   UNL     1      45.042   2.759   9.567  0.00  0.00    +0.000 HD
ENDBRANCH  23  24
ENDBRANCH  16  23
ENDBRANCH  15  19
ENDBRANCH   1  15
TORSDOF 6
ENDMDL
