MODEL 1
REMARK VINA RESULT:    -8.963      0.000      0.000
REMARK INTER + INTRA:         -11.577
REMARK INTER:                 -11.059
REMARK INTRA:                  -0.518
REMARK UNBOUND:                -0.518
REMARK  Name = 
REMARK  4 active torsions:
REMARK  status: ('A' for Active; 'I' for Inactive)
REMARK    1  A    between atoms: C_2  and  C_4
REMARK    2  A    between atoms: N_8  and  C_9
REMARK    3  A    between atoms: C_9  and  C_10
REMARK    4  A    between atoms: C_14  and  C_15
REMARK                            x       y       z     vdW  Elec       q    Type
REMARK                         _______ _______ _______ _____ _____    ______ ____
ROOT
ATOM      1  C   UNL     1      46.664   2.509   7.192  0.00  0.00    +0.000 A 
ATOM      2  C   UNL     1      46.133   3.739   7.556  0.00  0.00    +0.000 A 
ATOM      3  C   UNL     1      45.345   3.822   8.704  0.00  0.00    +0.000 A 
ATOM      4  C   UNL     1      45.089   2.680   9.456  0.00  0.00    +0.000 A 
ATOM      5  N   UNL     1      44.386   2.689  10.626  0.00  0.00    +0.000 N 
ATOM      6  N   UNL     1      45.571   1.476   9.086  0.00  0.00    +0.000 NA
ATOM      7  C   UNL     1      46.341   1.410   7.968  0.00  0.00    +0.000 A 
ATOM      8  H   UNL     1      44.181   1.764  10.977  0.00  0.00    +0.000 HD
ENDROOT
BRANCH   1  10
ATOM      9  N   UNL     1      47.420   3.278   5.021  0.00  0.00    +0.000 N 
ATOM     10  C   UNL     1      47.540   2.345   6.016  0.00  0.00    +0.000 C 
ATOM     11  O   UNL     1      48.361   1.442   5.943  0.00  0.00    +0.000 OA
ATOM     12  H   UNL     1      48.086   3.220   4.262  0.00  0.00    +0.000 HD
ATOM     13  H   UNL     1      46.944   4.160   5.157  0.00  0.00    +0.000 HD
ENDBRANCH   1  10
BRANCH   5  14
ATOM     14  C   UNL     1      43.753   3.831  11.235  0.00  0.00    +0.000 C 
BRANCH  14  15
ATOM     15  C   UNL     1      44.763   4.779  11.829  0.00  0.00    +0.000 A 
ATOM     16  C   UNL     1      44.905   6.078  11.329  0.00  0.00    +0.000 A 
ATOM     17  C   UNL     1      45.802   6.964  11.917  0.00  0.00    +0.000 A 
ATOM     18  C   UNL     1      46.556   6.566  13.024  0.00  0.00    +0.000 A 
ATOM     19  C   UNL     1      46.441   5.272  13.566  0.00  0.00    +0.000 A 
ATOM     20  C   UNL     1      45.544   4.388  12.931  0.00  0.00    +0.000 A 
BRANCH  19  21
ATOM     21  C   UNL     1      47.194   4.863  14.770  0.00  0.00    +0.000 A 
ATOM     22  N   UNL     1      48.115   5.717  15.260  0.00  0.00    +0.000 NA
ATOM     23  C   UNL     1      48.743   5.343  16.390  0.00  0.00    +0.000 A 
ATOM     24  C   UNL     1      48.494   4.160  17.042  0.00  0.00    +0.000 A 
ATOM     25  C   UNL     1      47.541   3.356  16.464  0.00  0.00    +0.000 A 
ATOM     26  N   UNL     1      46.878   3.680  15.339  0.00  0.00    +0.000 NA
ENDBRANCH  19  21
ENDBRANCH  14  15
ENDBRANCH   5  14
TORSDOF 4
ENDMDL
MODEL 2
REMARK VINA RESULT:    -8.591      2.168      3.881
REMARK INTER + INTRA:         -11.117
REMARK INTER:                 -10.481
REMARK INTRA:                  -0.637
REMARK UNBOUND:                -0.518
REMARK  Name = 
REMARK  4 active torsions:
REMARK  status: ('A' for Active; 'I' for Inactive)
REMARK    1  A    between atoms: C_2  and  C_4
REMARK    2  A    between atoms: N_8  and  C_9
REMARK    3  A    between atoms: C_9  and  C_10
REMARK    4  A    between atoms: C_14  and  C_15
REMARK                            x       y       z     vdW  Elec       q    Type
REMARK                         _______ _______ _______ _____ _____    ______ ____
ROOT
ATOM      1  C   UNL     1      46.561   2.490   7.289  0.00  0.00    +0.000 A 
ATOM      2  C   UNL     1      46.008   3.712   7.649  0.00  0.00    +0.000 A 
ATOM      3  C   UNL     1      45.141   3.765   8.740  0.00  0.00    +0.000 A 
ATOM      4  C   UNL     1      44.831   2.604   9.441  0.00  0.00    +0.000 A 
ATOM      5  N   UNL     1      44.047   2.583  10.558  0.00  0.00    +0.000 N 
ATOM      6  N   UNL     1      45.337   1.409   9.073  0.00  0.00    +0.000 NA
ATOM      7  C   UNL     1      46.184   1.372   8.011  0.00  0.00    +0.000 A 
ATOM      8  H   UNL     1      43.817   1.649  10.868  0.00  0.00    +0.000 HD
ENDROOT
BRANCH   1  10
ATOM      9  N   UNL     1      47.450   3.299   5.184  0.00  0.00    +0.000 N 
ATOM     10  C   UNL     1      47.519   2.356   6.174  0.00  0.00    +0.000 C 
ATOM     11  O   UNL     1      48.358   1.468   6.148  0.00  0.00    +0.000 OA
ATOM     12  H   UNL     1      48.167   3.262   4.472  0.00  0.00    +0.000 HD
ATOM     13  H   UNL     1      46.950   4.172   5.298  0.00  0.00    +0.000 HD
ENDBRANCH   1  10
BRANCH   5  14
ATOM     14  C   UNL     1      43.374   3.711  11.152  0.00  0.00    +0.000 C 
BRANCH  14  15
ATOM     15  C   UNL     1      44.333   4.610  11.887  0.00  0.00    +0.000 A 
ATOM     16  C   UNL     1      45.281   4.077  12.768  0.00  0.00    +0.000 A 
ATOM     17  C   UNL     1      46.198   4.908  13.403  0.00  0.00    +0.000 A 
ATOM     18  C   UNL     1      46.188   6.283  13.152  0.00  0.00    +0.000 A 
ATOM     19  C   UNL     1      45.259   6.862  12.268  0.00  0.00    +0.000 A 
ATOM     20  C   UNL     1      44.325   5.998  11.662  0.00  0.00    +0.000 A 
BRANCH  19  21
ATOM     21  C   UNL     1      45.279   8.306  11.956  0.00  0.00    +0.000 A 
ATOM     22  N   UNL     1      46.356   9.022  12.339  0.00  0.00    +0.000 NA
ATOM     23  C   UNL     1      46.374  10.321  11.990  0.00  0.00    +0.000 A 
ATOM     24  C   UNL     1      45.366  10.931  11.283  0.00  0.00    +0.000 A 
ATOM     25  C   UNL     1      44.310  10.121  10.942  0.00  0.00    +0.000 A 
ATOM     26  N   UNL     1      44.241   8.815  11.259  0.00  0.00    +0.000 NA
ENDBRANCH  19  21
ENDBRANCH  14  15
ENDBRANCH   5  14
TORSDOF 4
ENDMDL
MODEL 3
REMARK VINA RESULT:    -7.550      3.050      7.220
REMARK INTER + INTRA:          -9.833
REMARK INTER:                  -9.125
REMARK INTRA:                  -0.709
REMARK UNBOUND:                -0.518
REMARK  Name = 
REMARK  4 active torsions:
REMARK  status: ('A' for Active; 'I' for Inactive)
REMARK    1  A    between atoms: C_2  and  C_4
REMARK    2  A    between atoms: N_8  and  C_9
REMARK    3  A    between atoms: C_9  and  C_10
REMARK    4  A    between atoms: C_14  and  C_15
REMARK                            x       y       z     vdW  Elec       q    Type
REMARK                         _______ _______ _______ _____ _____    ______ ____
ROOT
ATOM      1  C   UNL     1      49.507   7.771  12.803  0.00  0.00    +0.000 A 
ATOM      2  C   UNL     1      48.780   7.725  11.621  0.00  0.00    +0.000 A 
ATOM      3  C   UNL     1      47.441   7.337  11.667  0.00  0.00    +0.000 A 
ATOM      4  C   UNL     1      46.858   6.988  12.880  0.00  0.00    +0.000 A 
ATOM      5  N   UNL     1      45.539   6.663  13.019  0.00  0.00    +0.000 N 
ATOM      6  N   UNL     1      47.570   6.995  14.026  0.00  0.00    +0.000 NA
ATOM      7  C   UNL     1      48.872   7.380  13.969  0.00  0.00    +0.000 A 
ATOM      8  H   UNL     1      45.308   6.313  13.938  0.00  0.00    +0.000 HD
ENDROOT
BRANCH   1  10
ATOM      9  N   UNL     1      51.652   7.820  13.931  0.00  0.00    +0.000 N 
ATOM     10  C   UNL     1      50.915   8.211  12.846  0.00  0.00    +0.000 C 
ATOM     11  O   UNL     1      51.415   8.863  11.941  0.00  0.00    +0.000 OA
ATOM     12  H   UNL     1      52.639   8.040  13.911  0.00  0.00    +0.000 HD
ATOM     13  H   UNL     1      51.351   7.085  14.558  0.00  0.00    +0.000 HD
ENDBRANCH   1  10
BRANCH   5  14
ATOM     14  C   UNL     1      44.567   6.566  11.961  0.00  0.00    +0.000 C 
BRANCH  14  15
ATOM     15  C   UNL     1      44.404   5.147  11.479  0.00  0.00    +0.000 A 
ATOM     16  C   UNL     1      43.501   4.280  12.103  0.00  0.00    +0.000 A 
ATOM     17  C   UNL     1      43.318   2.988  11.620  0.00  0.00    +0.000 A 
ATOM     18  C   UNL     1      44.024   2.554  10.496  0.00  0.00    +0.000 A 
ATOM     19  C   UNL     1      44.938   3.394   9.831  0.00  0.00    +0.000 A 
ATOM     20  C   UNL     1      45.122   4.687  10.362  0.00  0.00    +0.000 A 
BRANCH  19  21
ATOM     21  C   UNL     1      45.646   2.959   8.610  0.00  0.00    +0.000 A 
ATOM     22  N   UNL     1      45.868   3.876   7.647  0.00  0.00    +0.000 NA
ATOM     23  C   UNL     1      46.566   3.466   6.572  0.00  0.00    +0.000 A 
ATOM     24  C   UNL     1      47.045   2.188   6.420  0.00  0.00    +0.000 A 
ATOM     25  C   UNL     1      46.766   1.326   7.452  0.00  0.00    +0.000 A 
ATOM     26  N   UNL     1      46.077   1.680   8.552  0.00  0.00    +0.000 NA
ENDBRANCH  19  21
ENDBRANCH  14  15
ENDBRANCH   5  14
TORSDOF 4
ENDMDL
MODEL 4
REMARK VINA RESULT:    -7.364      3.324      8.380
REMARK INTER + INTRA:          -9.604
REMARK INTER:                  -9.209
REMARK INTRA:                  -0.395
REMARK UNBOUND:                -0.518
REMARK  Name = 
REMARK  4 active torsions:
REMARK  status: ('A' for Active; 'I' for Inactive)
REMARK    1  A    between atoms: C_2  and  C_4
REMARK    2  A    between atoms: N_8  and  C_9
REMARK    3  A    between atoms: C_9  and  C_10
REMARK    4  A    between atoms: C_14  and  C_15
REMARK                            x       y       z     vdW  Elec       q    Type
REMARK                         _______ _______ _______ _____ _____    ______ ____
ROOT
ATOM      1  C   UNL     1      48.635   4.413  17.968  0.00  0.00    +0.000 A 
ATOM      2  C   UNL     1      48.679   5.547  17.167  0.00  0.00    +0.000 A 
ATOM      3  C   UNL     1      47.905   5.586  16.007  0.00  0.00    +0.000 A 
ATOM      4  C   UNL     1      47.116   4.494  15.660  0.00  0.00    +0.000 A 
ATOM      5  N   UNL     1      46.280   4.479  14.581  0.00  0.00    +0.000 N 
ATOM      6  N   UNL     1      47.098   3.376  16.415  0.00  0.00    +0.000 NA
ATOM      7  C   UNL     1      47.853   3.353  17.544  0.00  0.00    +0.000 A 
ATOM      8  H   UNL     1      45.879   3.570  14.398  0.00  0.00    +0.000 HD
ENDROOT
BRANCH   1  10
ATOM      9  N   UNL     1      48.696   3.897  20.335  0.00  0.00    +0.000 N 
ATOM     10  C   UNL     1      49.391   4.310  19.231  0.00  0.00    +0.000 C 
ATOM     11  O   UNL     1      50.589   4.546  19.286  0.00  0.00    +0.000 OA
ATOM     12  H   UNL     1      49.235   3.735  21.175  0.00  0.00    +0.000 HD
ATOM     13  H   UNL     1      47.786   3.459  20.273  0.00  0.00    +0.000 HD
ENDBRANCH   1  10
BRANCH   5  14
ATOM     14  C   UNL     1      46.120   5.531  13.609  0.00  0.00    +0.000 C 
BRANCH  14  15
ATOM     15  C   UNL     1      45.211   5.117  12.482  0.00  0.00    +0.000 A 
ATOM     16  C   UNL     1      43.850   5.440  12.505  0.00  0.00    +0.000 A 
ATOM     17  C   UNL     1      43.027   5.100  11.436  0.00  0.00    +0.000 A 
ATOM     18  C   UNL     1      43.560   4.448  10.321  0.00  0.00    +0.000 A 
ATOM     19  C   UNL     1      44.925   4.111  10.250  0.00  0.00    +0.000 A 
ATOM     20  C   UNL     1      45.727   4.442  11.361  0.00  0.00    +0.000 A 
BRANCH  19  21
ATOM     21  C   UNL     1      45.505   3.471   9.051  0.00  0.00    +0.000 A 
ATOM     22  N   UNL     1      45.941   4.270   8.055  0.00  0.00    +0.000 NA
ATOM     23  C   UNL     1      46.517   3.662   7.002  0.00  0.00    +0.000 A 
ATOM     24  C   UNL     1      46.672   2.301   6.902  0.00  0.00    +0.000 A 
ATOM     25  C   UNL     1      46.195   1.572   7.964  0.00  0.00    +0.000 A 
ATOM     26  N   UNL     1      45.614   2.125   9.045  0.00  0.00    +0.000 NA
ENDBRANCH  19  21
ENDBRANCH  14  15
ENDBRANCH   5  14
TORSDOF 4
ENDMDL
MODEL 5
REMARK VINA RESULT:    -6.718      3.245      4.877
REMARK INTER + INTRA:          -8.807
REMARK INTER:                  -8.147
REMARK INTRA:                  -0.659
REMARK UNBOUND:                -0.518
REMARK  Name = 
REMARK  4 active torsions:
REMARK  status: ('A' for Active; 'I' for Inactive)
REMARK    1  A    between atoms: C_2  and  C_4
REMARK    2  A    between atoms: N_8  and  C_9
REMARK    3  A    between atoms: C_9  and  C_10
REMARK    4  A    between atoms: C_14  and  C_15
REMARK                            x       y       z     vdW  Elec       q    Type
REMARK                         _______ _______ _______ _____ _____    ______ ____
ROOT
ATOM      1  C   UNL     1      44.251   4.182  11.453  0.00  0.00    +0.000 A 
ATOM      2  C   UNL     1      45.021   5.041  10.680  0.00  0.00    +0.000 A 
ATOM      3  C   UNL     1      45.373   6.286  11.200  0.00  0.00    +0.000 A 
ATOM      4  C   UNL     1      44.940   6.657  12.469  0.00  0.00    +0.000 A 
ATOM      5  N   UNL     1      45.296   7.827  13.076  0.00  0.00    +0.000 N 
ATOM      6  N   UNL     1      44.162   5.842  13.210  0.00  0.00    +0.000 NA
ATOM      7  C   UNL     1      43.831   4.629  12.692  0.00  0.00    +0.000 A 
ATOM      8  H   UNL     1      44.796   8.000  13.937  0.00  0.00    +0.000 HD
ENDROOT
BRANCH   1  10
ATOM      9  N   UNL     1      44.581   2.317   9.940  0.00  0.00    +0.000 N 
ATOM     10  C   UNL     1      43.873   2.832  10.992  0.00  0.00    +0.000 C 
ATOM     11  O   UNL     1      42.993   2.185  11.542  0.00  0.00    +0.000 OA
ATOM     12  H   UNL     1      44.385   1.357   9.688  0.00  0.00    +0.000 HD
ATOM     13  H   UNL     1      45.461   2.710   9.632  0.00  0.00    +0.000 HD
ENDBRANCH   1  10
BRANCH   5  14
ATOM     14  C   UNL     1      46.103   8.876  12.504  0.00  0.00    +0.000 C 
BRANCH  14  15
ATOM     15  C   UNL     1      47.575   8.596  12.659  0.00  0.00    +0.000 A 
ATOM     16  C   UNL     1      48.498   9.090  11.731  0.00  0.00    +0.000 A 
ATOM     17  C   UNL     1      49.861   8.871  11.908  0.00  0.00    +0.000 A 
ATOM     18  C   UNL     1      50.318   8.171  13.028  0.00  0.00    +0.000 A 
ATOM     19  C   UNL     1      49.427   7.663  13.992  0.00  0.00    +0.000 A 
ATOM     20  C   UNL     1      48.051   7.875  13.769  0.00  0.00    +0.000 A 
BRANCH  19  21
ATOM     21  C   UNL     1      49.907   6.970  15.205  0.00  0.00    +0.000 A 
ATOM     22  N   UNL     1      49.053   6.144  15.842  0.00  0.00    +0.000 NA
ATOM     23  C   UNL     1      49.536   5.482  16.910  0.00  0.00    +0.000 A 
ATOM     24  C   UNL     1      50.825   5.614  17.365  0.00  0.00    +0.000 A 
ATOM     25  C   UNL     1      51.618   6.479  16.652  0.00  0.00    +0.000 A 
ATOM     26  N   UNL     1      51.192   7.164  15.575  0.00  0.00    +0.000 NA
ENDBRANCH  19  21
ENDBRANCH  14  15
ENDBRANCH   5  14
TORSDOF 4
ENDMDL
MODEL 6
REMARK VINA RESULT:    -6.568      3.064      5.013
REMARK INTER + INTRA:          -8.622
REMARK INTER:                  -7.990
REMARK INTRA:                  -0.632
REMARK UNBOUND:                -0.518
REMARK  Name = 
REMARK  4 active torsions:
REMARK  status: ('A' for Active; 'I' for Inactive)
REMARK    1  A    between atoms: C_2  and  C_4
REMARK    2  A    between atoms: N_8  and  C_9
REMARK    3  A    between atoms: C_9  and  C_10
REMARK    4  A    between atoms: C_14  and  C_15
REMARK                            x       y       z     vdW  Elec       q    Type
REMARK                         _______ _______ _______ _____ _____    ______ ____
ROOT
ATOM      1  C   UNL     1      44.711   5.179  10.964  0.00  0.00    +0.000 A 
ATOM      2  C   UNL     1      45.906   5.764  10.565  0.00  0.00    +0.000 A 
ATOM      3  C   UNL     1      46.547   6.650  11.431  0.00  0.00    +0.000 A 
ATOM      4  C   UNL     1      45.981   6.948  12.666  0.00  0.00    +0.000 A 
ATOM      5  N   UNL     1      46.578   7.750  13.596  0.00  0.00    +0.000 N 
ATOM      6  N   UNL     1      44.803   6.411  13.044  0.00  0.00    +0.000 NA
ATOM      7  C   UNL     1      44.191   5.546  12.192  0.00  0.00    +0.000 A 
ATOM      8  H   UNL     1      45.979   7.965  14.381  0.00  0.00    +0.000 HD
ENDROOT
BRANCH   1  10
ATOM      9  N   UNL     1      44.077   4.372   8.769  0.00  0.00    +0.000 N 
ATOM     10  C   UNL     1      43.993   4.201  10.124  0.00  0.00    +0.000 C 
ATOM     11  O   UNL     1      43.380   3.261  10.609  0.00  0.00    +0.000 OA
ATOM     12  H   UNL     1      43.665   3.647   8.195  0.00  0.00    +0.000 HD
ATOM     13  H   UNL     1      44.767   4.973   8.337  0.00  0.00    +0.000 HD
ENDBRANCH   1  10
BRANCH   5  14
ATOM     14  C   UNL     1      47.825   8.455  13.443  0.00  0.00    +0.000 C 
BRANCH  14  15
ATOM     15  C   UNL     1      48.905   7.879  14.321  0.00  0.00    +0.000 A 
ATOM     16  C   UNL     1      50.192   8.427  14.324  0.00  0.00    +0.000 A 
ATOM     17  C   UNL     1      51.170   7.923  15.176  0.00  0.00    +0.000 A 
ATOM     18  C   UNL     1      50.865   6.876  16.050  0.00  0.00    +0.000 A 
ATOM     19  C   UNL     1      49.582   6.300  16.089  0.00  0.00    +0.000 A 
ATOM     20  C   UNL     1      48.622   6.812  15.193  0.00  0.00    +0.000 A 
BRANCH  19  21
ATOM     21  C   UNL     1      49.238   5.231  17.049  0.00  0.00    +0.000 A 
ATOM     22  N   UNL     1      49.152   5.556  18.354  0.00  0.00    +0.000 NA
ATOM     23  C   UNL     1      48.781   4.575  19.198  0.00  0.00    +0.000 A 
ATOM     24  C   UNL     1      48.498   3.293  18.794  0.00  0.00    +0.000 A 
ATOM     25  C   UNL     1      48.617   3.058  17.446  0.00  0.00    +0.000 A 
ATOM     26  N   UNL     1      48.979   4.000  16.556  0.00  0.00    +0.000 NA
ENDBRANCH  19  21
ENDBRANCH  14  15
ENDBRANCH   5  14
TORSDOF 4
ENDMDL
MODEL 7
REMARK VINA RESULT:    -6.185      3.629      8.391
REMARK INTER + INTRA:          -8.149
REMARK INTER:                  -7.706
REMARK INTRA:                  -0.443
REMARK UNBOUND:                -0.518
REMARK  Name = 
REMARK  4 active torsions:
REMARK  status: ('A' for Active; 'I' for Inactive)
REMARK    1  A    between atoms: C_2  and  C_4
REMARK    2  A    between atoms: N_8  and  C_9
REMARK    3  A    between atoms: C_9  and  C_10
REMARK    4  A    between atoms: C_14  and  C_15
REMARK                            x       y       z     vdW  Elec       q    Type
REMARK                         _______ _______ _______ _____ _____    ______ ____
ROOT
ATOM      1  C   UNL     1      50.802   5.377  17.497  0.00  0.00    +0.000 A 
ATOM      2  C   UNL     1      51.061   6.457  16.664  0.00  0.00    +0.000 A 
ATOM      3  C   UNL     1      50.088   6.851  15.745  0.00  0.00    +0.000 A 
ATOM      4  C   UNL     1      48.887   6.155  15.663  0.00  0.00    +0.000 A 
ATOM      5  N   UNL     1      47.859   6.516  14.841  0.00  0.00    +0.000 N 
ATOM      6  N   UNL     1      48.644   5.082  16.445  0.00  0.00    +0.000 NA
ATOM      7  C   UNL     1      49.599   4.712  17.339  0.00  0.00    +0.000 A 
ATOM      8  H   UNL     1      47.113   5.835  14.809  0.00  0.00    +0.000 HD
ENDROOT
BRANCH   1  10
ATOM      9  N   UNL     1      51.681   3.615  18.910  0.00  0.00    +0.000 N 
ATOM     10  C   UNL     1      51.762   4.925  18.522  0.00  0.00    +0.000 C 
ATOM     11  O   UNL     1      52.615   5.671  18.981  0.00  0.00    +0.000 OA
ATOM     12  H   UNL     1      52.399   3.283  19.540  0.00  0.00    +0.000 HD
ATOM     13  H   UNL     1      51.168   2.921  18.381  0.00  0.00    +0.000 HD
ENDBRANCH   1  10
BRANCH   5  14
ATOM     14  C   UNL     1      47.861   7.607  13.900  0.00  0.00    +0.000 C 
BRANCH  14  15
ATOM     15  C   UNL     1      46.707   7.516  12.935  0.00  0.00    +0.000 A 
ATOM     16  C   UNL     1      45.848   8.604  12.743  0.00  0.00    +0.000 A 
ATOM     17  C   UNL     1      44.816   8.530  11.813  0.00  0.00    +0.000 A 
ATOM     18  C   UNL     1      44.642   7.372  11.050  0.00  0.00    +0.000 A 
ATOM     19  C   UNL     1      45.486   6.257  11.203  0.00  0.00    +0.000 A 
ATOM     20  C   UNL     1      46.504   6.351  12.174  0.00  0.00    +0.000 A 
BRANCH  19  21
ATOM     21  C   UNL     1      45.342   5.052  10.361  0.00  0.00    +0.000 A 
ATOM     22  N   UNL     1      44.840   3.938  10.930  0.00  0.00    +0.000 NA
ATOM     23  C   UNL     1      44.665   2.873  10.126  0.00  0.00    +0.000 A 
ATOM     24  C   UNL     1      44.973   2.875   8.787  0.00  0.00    +0.000 A 
ATOM     25  C   UNL     1      45.482   4.055   8.299  0.00  0.00    +0.000 A 
ATOM     26  N   UNL     1      45.673   5.151   9.055  0.00  0.00    +0.000 NA
ENDBRANCH  19  21
ENDBRANCH  14  15
ENDBRANCH   5  14
TORSDOF 4
ENDMDL
MODEL 8
REMARK VINA RESULT:    -6.029      3.400      5.825
REMARK INTER + INTRA:          -7.957
REMARK INTER:                  -7.347
REMARK INTRA:                  -0.610
REMARK UNBOUND:                -0.518
REMARK  Name = 
REMARK  4 active torsions:
REMARK  status: ('A' for Active; 'I' for Inactive)
REMARK    1  A    between atoms: C_2  and  C_4
REMARK    2  A    between atoms: N_8  and  C_9
REMARK    3  A    between atoms: C_9  and  C_10
REMARK    4  A    between atoms: C_14  and  C_15
REMARK                            x       y       z     vdW  Elec       q    Type
REMARK                         _______ _______ _______ _____ _____    ______ ____
ROOT
ATOM      1  C   UNL     1      45.463   6.120  11.761  0.00  0.00    +0.000 A 
ATOM      2  C   UNL     1      46.788   5.955  12.144  0.00  0.00    +0.000 A 
ATOM      3  C   UNL     1      47.385   6.927  12.948  0.00  0.00    +0.000 A 
ATOM      4  C   UNL     1      46.659   8.047  13.340  0.00  0.00    +0.000 A 
ATOM      5  N   UNL     1      47.147   9.007  14.179  0.00  0.00    +0.000 N 
ATOM      6  N   UNL     1      45.384   8.231  12.940  0.00  0.00    +0.000 NA
ATOM      7  C   UNL     1      44.813   7.274  12.161  0.00  0.00    +0.000 A 
ATOM      8  H   UNL     1      46.543   9.813  14.259  0.00  0.00    +0.000 HD
ENDROOT
BRANCH   1  10
ATOM      9  N   UNL     1      44.852   5.238   9.587  0.00  0.00    +0.000 N 
ATOM     10  C   UNL     1      44.748   5.118  10.946  0.00  0.00    +0.000 C 
ATOM     11  O   UNL     1      44.120   4.202  11.457  0.00  0.00    +0.000 OA
ATOM     12  H   UNL     1      44.442   4.497   9.034  0.00  0.00    +0.000 HD
ATOM     13  H   UNL     1      45.554   5.818   9.144  0.00  0.00    +0.000 HD
ENDBRANCH   1  10
BRANCH   5  14
ATOM     14  C   UNL     1      48.475   9.060  14.736  0.00  0.00    +0.000 C 
BRANCH  14  15
ATOM     15  C   UNL     1      48.576   8.272  16.016  0.00  0.00    +0.000 A 
ATOM     16  C   UNL     1      48.202   8.842  17.238  0.00  0.00    +0.000 A 
ATOM     17  C   UNL     1      48.249   8.090  18.408  0.00  0.00    +0.000 A 
ATOM     18  C   UNL     1      48.653   6.753  18.367  0.00  0.00    +0.000 A 
ATOM     19  C   UNL     1      49.030   6.136  17.160  0.00  0.00    +0.000 A 
ATOM     20  C   UNL     1      49.000   6.931  15.996  0.00  0.00    +0.000 A 
BRANCH  19  21
ATOM     21  C   UNL     1      49.404   4.708  17.101  0.00  0.00    +0.000 A 
ATOM     22  N   UNL     1      50.660   4.368  17.456  0.00  0.00    +0.000 NA
ATOM     23  C   UNL     1      50.955   3.055  17.448  0.00  0.00    +0.000 A 
ATOM     24  C   UNL     1      50.056   2.077  17.100  0.00  0.00    +0.000 A 
ATOM     25  C   UNL     1      48.804   2.522  16.751  0.00  0.00    +0.000 A 
ATOM     26  N   UNL     1      48.451   3.820  16.745  0.00  0.00    +0.000 NA
ENDBRANCH  19  21
ENDBRANCH  14  15
ENDBRANCH   5  14
TORSDOF 4
ENDMDL
MODEL 9
REMARK VINA RESULT:    -5.975      2.679      4.777
REMARK INTER + INTRA:          -7.890
REMARK INTER:                  -7.386
REMARK INTRA:                  -0.505
REMARK UNBOUND:                -0.518
REMARK  Name = 
REMARK  4 active torsions:
REMARK  status: ('A' for Active; 'I' for Inactive)
REMARK    1  A    between atoms: C_2  and  C_4
REMARK    2  A    between atoms: N_8  and  C_9
REMARK    3  A    between atoms: C_9  and  C_10
REMARK    4  A    between atoms: C_14  and  C_15
REMARK                            x       y       z     vdW  Elec       q    Type
REMARK                         _______ _______ _______ _____ _____    ______ ____
ROOT
ATOM      1  C   UNL     1      45.168   4.320  10.409  0.00  0.00    +0.000 A 
ATOM      2  C   UNL     1      45.797   5.530  10.146  0.00  0.00    +0.000 A 
ATOM      3  C   UNL     1      46.275   6.290  11.213  0.00  0.00    +0.000 A 
ATOM      4  C   UNL     1      46.105   5.841  12.518  0.00  0.00    +0.000 A 
ATOM      5  N   UNL     1      46.602   6.491  13.612  0.00  0.00    +0.000 N 
ATOM      6  N   UNL     1      45.462   4.684  12.782  0.00  0.00    +0.000 NA
ATOM      7  C   UNL     1      45.006   3.951  11.733  0.00  0.00    +0.000 A 
ATOM      8  H   UNL     1      46.282   6.102  14.487  0.00  0.00    +0.000 HD
ENDROOT
BRANCH   1  10
ATOM      9  N   UNL     1      44.528   2.113   9.640  0.00  0.00    +0.000 N 
ATOM     10  C   UNL     1      44.672   3.439   9.335  0.00  0.00    +0.000 C 
ATOM     11  O   UNL     1      44.370   3.873   8.233  0.00  0.00    +0.000 OA
ATOM     12  H   UNL     1      44.098   1.529   8.935  0.00  0.00    +0.000 HD
ATOM     13  H   UNL     1      44.526   1.771  10.593  0.00  0.00    +0.000 HD
ENDBRANCH   1  10
BRANCH   5  14
ATOM     14  C   UNL     1      47.310   7.745  13.611  0.00  0.00    +0.000 C 
BRANCH  14  15
ATOM     15  C   UNL     1      48.225   7.871  14.802  0.00  0.00    +0.000 A 
ATOM     16  C   UNL     1      48.356   9.090  15.476  0.00  0.00    +0.000 A 
ATOM     17  C   UNL     1      49.162   9.186  16.606  0.00  0.00    +0.000 A 
ATOM     18  C   UNL     1      49.833   8.058  17.086  0.00  0.00    +0.000 A 
ATOM     19  C   UNL     1      49.724   6.810  16.445  0.00  0.00    +0.000 A 
ATOM     20  C   UNL     1      48.923   6.751  15.286  0.00  0.00    +0.000 A 
BRANCH  19  21
ATOM     21  C   UNL     1      50.386   5.602  16.979  0.00  0.00    +0.000 A 
ATOM     22  N   UNL     1      49.668   4.462  17.043  0.00  0.00    +0.000 NA
ATOM     23  C   UNL     1      50.313   3.365  17.479  0.00  0.00    +0.000 A 
ATOM     24  C   UNL     1      51.635   3.360  17.854  0.00  0.00    +0.000 A 
ATOM     25  C   UNL     1      52.281   4.568  17.756  0.00  0.00    +0.000 A 
ATOM     26  N   UNL     1      51.689   5.696  17.323  0.00  0.00    +0.000 NA
ENDBRANCH  19  21
ENDBRANCH  14  15
ENDBRANCH   5  14
TORSDOF 4
ENDMDL
