MODEL 1
REMARK VINA RESULT:    -8.071      0.000      0.000
REMARK INTER + INTRA:         -12.005
REMARK INTER:                 -11.373
REMARK INTRA:                  -0.632
REMARK UNBOUND:                -0.632
REMARK  Name = 
REMARK  10 active torsions:
REMARK  status: ('A' for Active; 'I' for Inactive)
REMARK    1  A    between atoms: C_1  and  O_2
REMARK    2  A    between atoms: O_2  and  C_3
REMARK    3  A    between atoms: C_3  and  C_5
REMARK    4  A    between atoms: C_8  and  O_9
REMARK    5  A    between atoms: O_9  and  C_10
REMARK    6  A    between atoms: C_10  and  C_11
REMARK    7  A    between atoms: C_11  and  C_12
REMARK    8  A    between atoms: C_11  and  C_13
REMARK    9  A    between atoms: C_11  and  C_14
REMARK   10  A    between atoms: C_18  and  C_19
REMARK                            x       y       z     vdW  Elec       q    Type
REMARK                         _______ _______ _______ _____ _____    ______ ____
ROOT
ATOM      1  C   UNL     1      43.525   5.558  11.925  0.00  0.00    +0.000 C 
ATOM      2  C   UNL     1      43.079   6.893  11.294  0.00  0.00    +0.000 C 
ATOM      3  C   UNL     1      42.608   5.298  13.145  0.00  0.00    +0.000 C 
ENDROOT
BRANCH   1   4
ATOM      4  C   UNL     1      45.027   5.630  12.297  0.00  0.00    +0.000 A 
ATOM      5  C   UNL     1      45.931   6.469  11.623  0.00  0.00    +0.000 A 
ATOM      6  C   UNL     1      47.268   6.568  12.020  0.00  0.00    +0.000 A 
ATOM      7  C   UNL     1      47.732   5.843  13.114  0.00  0.00    +0.000 A 
ATOM      8  C   UNL     1      46.862   5.004  13.809  0.00  0.00    +0.000 A 
ATOM      9  C   UNL     1      45.530   4.874  13.378  0.00  0.00    +0.000 A 
BRANCH   8  10
ATOM     10  C   UNL     1      47.385   4.294  15.008  0.00  0.00    +0.000 C 
ATOM     11  N   UNL     1      47.623   5.041  16.129  0.00  0.00    +0.000 N 
ATOM     12  O   UNL     1      47.652   3.099  14.986  0.00  0.00    +0.000 OA
ATOM     13  H   UNL     1      47.662   6.049  16.113  0.00  0.00    +0.000 HD
ATOM     14  H   UNL     1      48.117   4.569  16.876  0.00  0.00    +0.000 HD
ENDBRANCH   8  10
ENDBRANCH   1   4
BRANCH   1  15
ATOM     15  C   UNL     1      43.319   4.394  10.911  0.00  0.00    +0.000 C 
BRANCH  15  16
ATOM     16  O   UNL     1      43.643   4.785   9.567  0.00  0.00    +0.000 OA
BRANCH  16  20
ATOM     17  C   UNL     1      46.298   2.136   7.845  0.00  0.00    +0.000 A 
ATOM     18  C   UNL     1      45.377   1.677   8.790  0.00  0.00    +0.000 A 
ATOM     19  C   UNL     1      44.480   2.581   9.367  0.00  0.00    +0.000 A 
ATOM     20  C   UNL     1      44.535   3.910   8.974  0.00  0.00    +0.000 A 
ATOM     21  N   UNL     1      45.409   4.378   8.058  0.00  0.00    +0.000 NA
ATOM     22  C   UNL     1      46.270   3.485   7.517  0.00  0.00    +0.000 A 
BRANCH  17  23
ATOM     23  C   UNL     1      47.302   1.289   7.168  0.00  0.00    +0.000 C 
ATOM     24  O   UNL     1      47.220   0.071   7.122  0.00  0.00    +0.000 OA
BRANCH  23  26
ATOM     25  C   UNL     1      48.075   2.350   5.248  0.00  0.00    +0.000 C 
ATOM     26  O   UNL     1      48.289   2.041   6.626  0.00  0.00    +0.000 OA
ENDBRANCH  23  26
ENDBRANCH  17  23
ENDBRANCH  16  20
ENDBRANCH  15  16
ENDBRANCH   1  15
TORSDOF 7
ENDMDL
MODEL 2
REMARK VINA RESULT:    -7.323      1.623      1.964
REMARK INTER + INTRA:         -10.952
REMARK INTER:                 -10.800
REMARK INTRA:                  -0.152
REMARK UNBOUND:                -0.632
REMARK  Name = 
REMARK  10 active torsions:
REMARK  status: ('A' for Active; 'I' for Inactive)
REMARK    1  A    between atoms: C_1  and  O_2
REMARK    2  A    between atoms: O_2  and  C_3
REMARK    3  A    between atoms: C_3  and  C_5
REMARK    4  A    between atoms: C_8  and  O_9
REMARK    5  A    between atoms: O_9  and  C_10
REMARK    6  A    between atoms: C_10  and  C_11
REMARK    7  A    between atoms: C_11  and  C_12
REMARK    8  A    between atoms: C_11  and  C_13
REMARK    9  A    between atoms: C_11  and  C_14
REMARK   10  A    between atoms: C_18  and  C_19
REMARK                            x       y       z     vdW  Elec       q    Type
REMARK                         _______ _______ _______ _____ _____    ______ ____
ROOT
ATOM      1  C   UNL     1      44.141   4.839  12.217  0.00  0.00    +0.000 C 
ATOM      2  C   UNL     1      42.969   5.155  13.169  0.00  0.00    +0.000 C 
ATOM      3  C   UNL     1      44.803   3.534  12.722  0.00  0.00    +0.000 C 
ENDROOT
BRANCH   1   4
ATOM      4  C   UNL     1      45.118   6.040  12.172  0.00  0.00    +0.000 A 
ATOM      5  C   UNL     1      44.700   7.340  11.840  0.00  0.00    +0.000 A 
ATOM      6  C   UNL     1      45.586   8.421  11.871  0.00  0.00    +0.000 A 
ATOM      7  C   UNL     1      46.911   8.232  12.253  0.00  0.00    +0.000 A 
ATOM      8  C   UNL     1      47.360   6.957  12.594  0.00  0.00    +0.000 A 
ATOM      9  C   UNL     1      46.476   5.866  12.517  0.00  0.00    +0.000 A 
BRANCH   8  10
ATOM     10  C   UNL     1      48.768   6.812  13.054  0.00  0.00    +0.000 C 
ATOM     11  N   UNL     1      49.758   7.092  12.152  0.00  0.00    +0.000 N 
ATOM     12  O   UNL     1      49.042   6.402  14.174  0.00  0.00    +0.000 OA
ATOM     13  H   UNL     1      49.582   7.181  11.162  0.00  0.00    +0.000 HD
ATOM     14  H   UNL     1      50.697   6.843  12.437  0.00  0.00    +0.000 HD
ENDBRANCH   8  10
ENDBRANCH   1   4
BRANCH   1  15
ATOM     15  C   UNL     1      43.603   4.580  10.778  0.00  0.00    +0.000 C 
BRANCH  15  16
ATOM     16  O   UNL     1      44.465   5.136   9.772  0.00  0.00    +0.000 OA
BRANCH  16  20
ATOM     17  C   UNL     1      46.462   2.168   7.714  0.00  0.00    +0.000 A 
ATOM     18  C   UNL     1      45.540   1.823   8.705  0.00  0.00    +0.000 A 
ATOM     19  C   UNL     1      44.867   2.834   9.396  0.00  0.00    +0.000 A 
ATOM     20  C   UNL     1      45.138   4.154   9.067  0.00  0.00    +0.000 A 
ATOM     21  N   UNL     1      46.018   4.515   8.109  0.00  0.00    +0.000 NA
ATOM     22  C   UNL     1      46.661   3.518   7.458  0.00  0.00    +0.000 A 
BRANCH  17  23
ATOM     23  C   UNL     1      47.245   1.198   6.918  0.00  0.00    +0.000 C 
ATOM     24  O   UNL     1      46.958   0.014   6.848  0.00  0.00    +0.000 OA
BRANCH  23  26
ATOM     25  C   UNL     1      47.976   2.274   4.990  0.00  0.00    +0.000 C 
ATOM     26  O   UNL     1      48.288   1.803   6.302  0.00  0.00    +0.000 OA
ENDBRANCH  23  26
ENDBRANCH  17  23
ENDBRANCH  16  20
ENDBRANCH  15  16
ENDBRANCH   1  15
TORSDOF 7
ENDMDL
MODEL 3
REMARK VINA RESULT:    -7.245      2.629      6.432
REMARK INTER + INTRA:         -10.842
REMARK INTER:                  -9.767
REMARK INTRA:                  -1.075
REMARK UNBOUND:                -0.632
REMARK  Name = 
REMARK  10 active torsions:
REMARK  status: ('A' for Active; 'I' for Inactive)
REMARK    1  A    between atoms: C_1  and  O_2
REMARK    2  A    between atoms: O_2  and  C_3
REMARK    3  A    between atoms: C_3  and  C_5
REMARK    4  A    between atoms: C_8  and  O_9
REMARK    5  A    between atoms: O_9  and  C_10
REMARK    6  A    between atoms: C_10  and  C_11
REMARK    7  A    between atoms: C_11  and  C_12
REMARK    8  A    between atoms: C_11  and  C_13
REMARK    9  A    between atoms: C_11  and  C_14
REMARK   10  A    between atoms: C_18  and  C_19
REMARK                            x       y       z     vdW  Elec       q    Type
REMARK                         _______ _______ _______ _____ _____    ______ ____
ROOT
ATOM      1  C   UNL     1      44.075   3.458  11.272  0.00  0.00    +0.000 C 
ATOM      2  C   UNL     1      43.348   2.104  11.411  0.00  0.00    +0.000 C 
ATOM      3  C   UNL     1      43.002   4.568  11.377  0.00  0.00    +0.000 C 
ENDROOT
BRANCH   1   4
ATOM      4  C   UNL     1      44.861   3.496   9.938  0.00  0.00    +0.000 A 
ATOM      5  C   UNL     1      45.131   4.695   9.256  0.00  0.00    +0.000 A 
ATOM      6  C   UNL     1      45.900   4.713   8.088  0.00  0.00    +0.000 A 
ATOM      7  C   UNL     1      46.435   3.532   7.582  0.00  0.00    +0.000 A 
ATOM      8  C   UNL     1      46.192   2.324   8.235  0.00  0.00    +0.000 A 
ATOM      9  C   UNL     1      45.381   2.306   9.383  0.00  0.00    +0.000 A 
BRANCH   8  10
ATOM     10  C   UNL     1      46.833   1.096   7.691  0.00  0.00    +0.000 C 
ATOM     11  N   UNL     1      47.822   1.259   6.760  0.00  0.00    +0.000 N 
ATOM     12  O   UNL     1      46.459  -0.025   8.014  0.00  0.00    +0.000 OA
ATOM     13  H   UNL     1      47.980   2.135   6.284  0.00  0.00    +0.000 HD
ATOM     14  H   UNL     1      48.135   0.415   6.297  0.00  0.00    +0.000 HD
ENDBRANCH   8  10
ENDBRANCH   1   4
BRANCH   1  15
ATOM     15  C   UNL     1      45.080   3.646  12.447  0.00  0.00    +0.000 C 
BRANCH  15  16
ATOM     16  O   UNL     1      44.984   4.954  13.034  0.00  0.00    +0.000 OA
BRANCH  16  20
ATOM     17  C   UNL     1      48.533   7.035  12.717  0.00  0.00    +0.000 A 
ATOM     18  C   UNL     1      47.547   7.195  11.740  0.00  0.00    +0.000 A 
ATOM     19  C   UNL     1      46.347   6.488  11.857  0.00  0.00    +0.000 A 
ATOM     20  C   UNL     1      46.177   5.649  12.948  0.00  0.00    +0.000 A 
ATOM     21  N   UNL     1      47.109   5.482  13.909  0.00  0.00    +0.000 NA
ATOM     22  C   UNL     1      48.265   6.173  13.771  0.00  0.00    +0.000 A 
BRANCH  17  23
ATOM     23  C   UNL     1      49.845   7.716  12.707  0.00  0.00    +0.000 C 
ATOM     24  O   UNL     1      50.397   8.108  13.723  0.00  0.00    +0.000 OA
BRANCH  23  26
ATOM     25  C   UNL     1      51.654   8.351  11.390  0.00  0.00    +0.000 C 
ATOM     26  O   UNL     1      50.324   7.833  11.446  0.00  0.00    +0.000 OA
ENDBRANCH  23  26
ENDBRANCH  17  23
ENDBRANCH  16  20
ENDBRANCH  15  16
ENDBRANCH   1  15
TORSDOF 7
ENDMDL
MODEL 4
REMARK VINA RESULT:    -7.163      3.536      6.556
REMARK INTER + INTRA:         -10.726
REMARK INTER:                  -9.941
REMARK INTRA:                  -0.784
REMARK UNBOUND:                -0.632
REMARK  Name = 
REMARK  10 active torsions:
REMARK  status: ('A' for Active; 'I' for Inactive)
REMARK    1  A    between atoms: C_1  and  O_2
REMARK    2  A    between atoms: O_2  and  C_3
REMARK    3  A    between atoms: C_3  and  C_5
REMARK    4  A    between atoms: C_8  and  O_9
REMARK    5  A    between atoms: O_9  and  C_10
REMARK    6  A    between atoms: C_10  and  C_11
REMARK    7  A    between atoms: C_11  and  C_12
REMARK    8  A    between atoms: C_11  and  C_13
REMARK    9  A    between atoms: C_11  and  C_14
REMARK   10  A    between atoms: C_18  and  C_19
REMARK                            x       y       z     vdW  Elec       q    Type
REMARK                         _______ _______ _______ _____ _____    ______ ____
ROOT
ATOM      1  C   UNL     1      47.936   4.209  17.275  0.00  0.00    +0.000 C 
ATOM      2  C   UNL     1      47.403   5.138  18.385  0.00  0.00    +0.000 C 
ATOM      3  C   UNL     1      47.216   2.847  17.432  0.00  0.00    +0.000 C 
ENDROOT
BRANCH   1   4
ATOM      4  C   UNL     1      49.477   4.098  17.379  0.00  0.00    +0.000 A 
ATOM      5  C   UNL     1      50.304   5.223  17.534  0.00  0.00    +0.000 A 
ATOM      6  C   UNL     1      51.688   5.095  17.694  0.00  0.00    +0.000 A 
ATOM      7  C   UNL     1      52.277   3.834  17.720  0.00  0.00    +0.000 A 
ATOM      8  C   UNL     1      51.486   2.695  17.573  0.00  0.00    +0.000 A 
ATOM      9  C   UNL     1      50.102   2.832  17.368  0.00  0.00    +0.000 A 
BRANCH   8  10
ATOM     10  C   UNL     1      52.151   1.367  17.667  0.00  0.00    +0.000 C 
ATOM     11  N   UNL     1      51.399   0.316  18.116  0.00  0.00    +0.000 N 
ATOM     12  O   UNL     1      53.339   1.219  17.410  0.00  0.00    +0.000 OA
ATOM     13  H   UNL     1      50.509   0.441  18.575  0.00  0.00    +0.000 HD
ATOM     14  H   UNL     1      51.908  -0.537  18.315  0.00  0.00    +0.000 HD
ENDBRANCH   8  10
ENDBRANCH   1   4
BRANCH   1  15
ATOM     15  C   UNL     1      47.571   4.786  15.875  0.00  0.00    +0.000 C 
BRANCH  15  16
ATOM     16  O   UNL     1      47.660   3.792  14.841  0.00  0.00    +0.000 OA
BRANCH  16  20
ATOM     17  C   UNL     1      45.130   4.673  11.702  0.00  0.00    +0.000 A 
ATOM     18  C   UNL     1      45.922   5.681  12.257  0.00  0.00    +0.000 A 
ATOM     19  C   UNL     1      46.778   5.374  13.319  0.00  0.00    +0.000 A 
ATOM     20  C   UNL     1      46.812   4.068  13.784  0.00  0.00    +0.000 A 
ATOM     21  N   UNL     1      46.063   3.074  13.261  0.00  0.00    +0.000 NA
ATOM     22  C   UNL     1      45.240   3.397  12.237  0.00  0.00    +0.000 A 
BRANCH  17  23
ATOM     23  C   UNL     1      44.182   4.867  10.585  0.00  0.00    +0.000 C 
ATOM     24  O   UNL     1      44.208   4.194   9.567  0.00  0.00    +0.000 OA
BRANCH  23  26
ATOM     25  C   UNL     1      42.298   5.502  11.792  0.00  0.00    +0.000 C 
ATOM     26  O   UNL     1      43.311   5.869  10.854  0.00  0.00    +0.000 OA
ENDBRANCH  23  26
ENDBRANCH  17  23
ENDBRANCH  16  20
ENDBRANCH  15  16
ENDBRANCH   1  15
TORSDOF 7
ENDMDL
MODEL 5
REMARK VINA RESULT:    -7.128      2.190      7.372
REMARK INTER + INTRA:         -10.678
REMARK INTER:                  -9.961
REMARK INTRA:                  -0.717
REMARK UNBOUND:                -0.632
REMARK  Name = 
REMARK  10 active torsions:
REMARK  status: ('A' for Active; 'I' for Inactive)
REMARK    1  A    between atoms: C_1  and  O_2
REMARK    2  A    between atoms: O_2  and  C_3
REMARK    3  A    between atoms: C_3  and  C_5
REMARK    4  A    between atoms: C_8  and  O_9
REMARK    5  A    between atoms: O_9  and  C_10
REMARK    6  A    between atoms: C_10  and  C_11
REMARK    7  A    between atoms: C_11  and  C_12
REMARK    8  A    between atoms: C_11  and  C_13
REMARK    9  A    between atoms: C_11  and  C_14
REMARK   10  A    between atoms: C_18  and  C_19
REMARK                            x       y       z     vdW  Elec       q    Type
REMARK                         _______ _______ _______ _____ _____    ______ ____
ROOT
ATOM      1  C   UNL     1      44.206   3.574  11.256  0.00  0.00    +0.000 C 
ATOM      2  C   UNL     1      43.383   2.275  11.382  0.00  0.00    +0.000 C 
ATOM      3  C   UNL     1      43.220   4.758  11.405  0.00  0.00    +0.000 C 
ENDROOT
BRANCH   1   4
ATOM      4  C   UNL     1      44.968   3.583   9.907  0.00  0.00    +0.000 A 
ATOM      5  C   UNL     1      45.255   4.770   9.213  0.00  0.00    +0.000 A 
ATOM      6  C   UNL     1      46.003   4.760   8.030  0.00  0.00    +0.000 A 
ATOM      7  C   UNL     1      46.497   3.563   7.522  0.00  0.00    +0.000 A 
ATOM      8  C   UNL     1      46.234   2.366   8.187  0.00  0.00    +0.000 A 
ATOM      9  C   UNL     1      45.445   2.377   9.350  0.00  0.00    +0.000 A 
BRANCH   8  10
ATOM     10  C   UNL     1      46.832   1.118   7.640  0.00  0.00    +0.000 C 
ATOM     11  N   UNL     1      47.770   1.248   6.653  0.00  0.00    +0.000 N 
ATOM     12  O   UNL     1      46.466   0.010   8.010  0.00  0.00    +0.000 OA
ATOM     13  H   UNL     1      47.911   2.110   6.147  0.00  0.00    +0.000 HD
ATOM     14  H   UNL     1      48.050   0.389   6.195  0.00  0.00    +0.000 HD
ENDBRANCH   8  10
ENDBRANCH   1   4
BRANCH   1  15
ATOM     15  C   UNL     1      45.244   3.662  12.414  0.00  0.00    +0.000 C 
BRANCH  15  16
ATOM     16  O   UNL     1      45.763   4.992  12.573  0.00  0.00    +0.000 OA
BRANCH  16  20
ATOM     17  C   UNL     1      48.211   5.355  15.875  0.00  0.00    +0.000 A 
ATOM     18  C   UNL     1      48.299   6.291  14.841  0.00  0.00    +0.000 A 
ATOM     19  C   UNL     1      47.465   6.162  13.727  0.00  0.00    +0.000 A 
ATOM     20  C   UNL     1      46.571   5.103  13.690  0.00  0.00    +0.000 A 
ATOM     21  N   UNL     1      46.459   4.190  14.678  0.00  0.00    +0.000 NA
ATOM     22  C   UNL     1      47.281   4.334  15.744  0.00  0.00    +0.000 A 
BRANCH  17  23
ATOM     23  C   UNL     1      49.039   5.374  17.100  0.00  0.00    +0.000 C 
ATOM     24  O   UNL     1      49.470   6.404  17.593  0.00  0.00    +0.000 OA
BRANCH  23  26
ATOM     25  C   UNL     1      50.610   3.727  17.576  0.00  0.00    +0.000 C 
ATOM     26  O   UNL     1      49.237   4.121  17.573  0.00  0.00    +0.000 OA
ENDBRANCH  23  26
ENDBRANCH  17  23
ENDBRANCH  16  20
ENDBRANCH  15  16
ENDBRANCH   1  15
TORSDOF 7
ENDMDL
MODEL 6
REMARK VINA RESULT:    -7.086      2.402      3.415
REMARK INTER + INTRA:         -10.617
REMARK INTER:                 -10.812
REMARK INTRA:                   0.195
REMARK UNBOUND:                -0.632
REMARK  Name = 
REMARK  10 active torsions:
REMARK  status: ('A' for Active; 'I' for Inactive)
REMARK    1  A    between atoms: C_1  and  O_2
REMARK    2  A    between atoms: O_2  and  C_3
REMARK    3  A    between atoms: C_3  and  C_5
REMARK    4  A    between atoms: C_8  and  O_9
REMARK    5  A    between atoms: O_9  and  C_10
REMARK    6  A    between atoms: C_10  and  C_11
REMARK    7  A    between atoms: C_11  and  C_12
REMARK    8  A    between atoms: C_11  and  C_13
REMARK    9  A    between atoms: C_11  and  C_14
REMARK   10  A    between atoms: C_18  and  C_19
REMARK                            x       y       z     vdW  Elec       q    Type
REMARK                         _______ _______ _______ _____ _____    ______ ____
ROOT
ATOM      1  C   UNL     1      44.104   4.846  12.176  0.00  0.00    +0.000 C 
ATOM      2  C   UNL     1      43.029   4.939  13.280  0.00  0.00    +0.000 C 
ATOM      3  C   UNL     1      45.014   3.643  12.523  0.00  0.00    +0.000 C 
ENDROOT
BRANCH   1   4
ATOM      4  C   UNL     1      44.876   6.186  12.082  0.00  0.00    +0.000 A 
ATOM      5  C   UNL     1      46.272   6.262  12.223  0.00  0.00    +0.000 A 
ATOM      6  C   UNL     1      46.955   7.472  12.068  0.00  0.00    +0.000 A 
ATOM      7  C   UNL     1      46.260   8.635  11.750  0.00  0.00    +0.000 A 
ATOM      8  C   UNL     1      44.875   8.596  11.598  0.00  0.00    +0.000 A 
ATOM      9  C   UNL     1      44.188   7.386  11.799  0.00  0.00    +0.000 A 
BRANCH   8  10
ATOM     10  C   UNL     1      44.180   9.850  11.199  0.00  0.00    +0.000 C 
ATOM     11  N   UNL     1      43.687   9.920   9.924  0.00  0.00    +0.000 N 
ATOM     12  O   UNL     1      44.098  10.811  11.953  0.00  0.00    +0.000 OA
ATOM     13  H   UNL     1      43.954   9.268   9.202  0.00  0.00    +0.000 HD
ATOM     14  H   UNL     1      43.357  10.830   9.629  0.00  0.00    +0.000 HD
ENDBRANCH   8  10
ENDBRANCH   1   4
BRANCH   1  15
ATOM     15  C   UNL     1      43.432   4.561  10.800  0.00  0.00    +0.000 C 
BRANCH  15  16
ATOM     16  O   UNL     1      44.209   5.069   9.705  0.00  0.00    +0.000 OA
BRANCH  16  20
ATOM     17  C   UNL     1      46.340   2.053   7.864  0.00  0.00    +0.000 A 
ATOM     18  C   UNL     1      45.327   1.731   8.771  0.00  0.00    +0.000 A 
ATOM     19  C   UNL     1      44.609   2.759   9.388  0.00  0.00    +0.000 A 
ATOM     20  C   UNL     1      44.929   4.071   9.073  0.00  0.00    +0.000 A 
ATOM     21  N   UNL     1      45.897   4.409   8.195  0.00  0.00    +0.000 NA
ATOM     22  C   UNL     1      46.581   3.396   7.614  0.00  0.00    +0.000 A 
BRANCH  17  23
ATOM     23  C   UNL     1      47.177   1.064   7.151  0.00  0.00    +0.000 C 
ATOM     24  O   UNL     1      46.931  -0.132   7.146  0.00  0.00    +0.000 OA
BRANCH  23  26
ATOM     25  C   UNL     1      47.863   2.261   5.279  0.00  0.00    +0.000 C 
ATOM     26  O   UNL     1      48.218   1.665   6.528  0.00  0.00    +0.000 OA
ENDBRANCH  23  26
ENDBRANCH  17  23
ENDBRANCH  16  20
ENDBRANCH  15  16
ENDBRANCH   1  15
TORSDOF 7
ENDMDL
MODEL 7
REMARK VINA RESULT:    -6.572      2.742      5.235
REMARK INTER + INTRA:          -9.893
REMARK INTER:                  -8.836
REMARK INTRA:                  -1.057
REMARK UNBOUND:                -0.632
REMARK  Name = 
REMARK  10 active torsions:
REMARK  status: ('A' for Active; 'I' for Inactive)
REMARK    1  A    between atoms: C_1  and  O_2
REMARK    2  A    between atoms: O_2  and  C_3
REMARK    3  A    between atoms: C_3  and  C_5
REMARK    4  A    between atoms: C_8  and  O_9
REMARK    5  A    between atoms: O_9  and  C_10
REMARK    6  A    between atoms: C_10  and  C_11
REMARK    7  A    between atoms: C_11  and  C_12
REMARK    8  A    between atoms: C_11  and  C_13
REMARK    9  A    between atoms: C_11  and  C_14
REMARK   10  A    between atoms: C_18  and  C_19
REMARK                            x       y       z     vdW  Elec       q    Type
REMARK                         _______ _______ _______ _____ _____    ______ ____
ROOT
ATOM      1  C   UNL     1      48.950   7.564  14.778  0.00  0.00    +0.000 C 
ATOM      2  C   UNL     1      50.468   7.778  14.606  0.00  0.00    +0.000 C 
ATOM      3  C   UNL     1      48.284   8.961  14.753  0.00  0.00    +0.000 C 
ENDROOT
BRANCH   1   4
ATOM      4  C   UNL     1      48.676   6.783  16.087  0.00  0.00    +0.000 A 
ATOM      5  C   UNL     1      48.637   7.411  17.344  0.00  0.00    +0.000 A 
ATOM      6  C   UNL     1      48.322   6.698  18.506  0.00  0.00    +0.000 A 
ATOM      7  C   UNL     1      48.019   5.342  18.436  0.00  0.00    +0.000 A 
ATOM      8  C   UNL     1      48.043   4.687  17.205  0.00  0.00    +0.000 A 
ATOM      9  C   UNL     1      48.405   5.399  16.048  0.00  0.00    +0.000 A 
BRANCH   8  10
ATOM     10  C   UNL     1      47.655   3.251  17.170  0.00  0.00    +0.000 C 
ATOM     11  N   UNL     1      48.588   2.356  16.721  0.00  0.00    +0.000 N 
ATOM     12  O   UNL     1      46.529   2.878  17.473  0.00  0.00    +0.000 OA
ATOM     13  H   UNL     1      49.421   2.641  16.227  0.00  0.00    +0.000 HD
ATOM     14  H   UNL     1      48.254   1.413  16.564  0.00  0.00    +0.000 HD
ENDBRANCH   8  10
ENDBRANCH   1   4
BRANCH   1  15
ATOM     15  C   UNL     1      48.388   6.741  13.581  0.00  0.00    +0.000 C 
BRANCH  15  16
ATOM     16  O   UNL     1      47.130   7.256  13.116  0.00  0.00    +0.000 OA
BRANCH  16  20
ATOM     17  C   UNL     1      44.796   4.261  11.498  0.00  0.00    +0.000 A 
ATOM     18  C   UNL     1      45.395   4.074  12.747  0.00  0.00    +0.000 A 
ATOM     19  C   UNL     1      46.182   5.094  13.288  0.00  0.00    +0.000 A 
ATOM     20  C   UNL     1      46.339   6.265  12.562  0.00  0.00    +0.000 A 
ATOM     21  N   UNL     1      45.766   6.475  11.358  0.00  0.00    +0.000 NA
ATOM     22  C   UNL     1      45.012   5.470  10.853  0.00  0.00    +0.000 A 
BRANCH  17  23
ATOM     23  C   UNL     1      43.950   3.261  10.813  0.00  0.00    +0.000 C 
ATOM     24  O   UNL     1      43.116   2.586  11.396  0.00  0.00    +0.000 OA
BRANCH  23  26
ATOM     25  C   UNL     1      45.019   2.077   9.120  0.00  0.00    +0.000 C 
ATOM     26  O   UNL     1      44.231   3.210   9.490  0.00  0.00    +0.000 OA
ENDBRANCH  23  26
ENDBRANCH  17  23
ENDBRANCH  16  20
ENDBRANCH  15  16
ENDBRANCH   1  15
TORSDOF 7
ENDMDL
MODEL 8
REMARK VINA RESULT:    -6.552      2.257      7.477
REMARK INTER + INTRA:          -9.865
REMARK INTER:                  -9.029
REMARK INTRA:                  -0.835
REMARK UNBOUND:                -0.632
REMARK  Name = 
REMARK  10 active torsions:
REMARK  status: ('A' for Active; 'I' for Inactive)
REMARK    1  A    between atoms: C_1  and  O_2
REMARK    2  A    between atoms: O_2  and  C_3
REMARK    3  A    between atoms: C_3  and  C_5
REMARK    4  A    between atoms: C_8  and  O_9
REMARK    5  A    between atoms: O_9  and  C_10
REMARK    6  A    between atoms: C_10  and  C_11
REMARK    7  A    between atoms: C_11  and  C_12
REMARK    8  A    between atoms: C_11  and  C_13
REMARK    9  A    between atoms: C_11  and  C_14
REMARK   10  A    between atoms: C_18  and  C_19
REMARK                            x       y       z     vdW  Elec       q    Type
REMARK                         _______ _______ _______ _____ _____    ______ ____
ROOT
ATOM      1  C   UNL     1      44.056   5.287  11.709  0.00  0.00    +0.000 C 
ATOM      2  C   UNL     1      42.532   5.525  11.720  0.00  0.00    +0.000 C 
ATOM      3  C   UNL     1      44.729   6.640  11.371  0.00  0.00    +0.000 C 
ENDROOT
BRANCH   1   4
ATOM      4  C   UNL     1      44.405   4.166  10.699  0.00  0.00    +0.000 A 
ATOM      5  C   UNL     1      43.836   2.883  10.773  0.00  0.00    +0.000 A 
ATOM      6  C   UNL     1      44.114   1.906   9.811  0.00  0.00    +0.000 A 
ATOM      7  C   UNL     1      44.955   2.194   8.741  0.00  0.00    +0.000 A 
ATOM      8  C   UNL     1      45.534   3.458   8.633  0.00  0.00    +0.000 A 
ATOM      9  C   UNL     1      45.287   4.421   9.627  0.00  0.00    +0.000 A 
BRANCH   8  10
ATOM     10  C   UNL     1      46.378   3.740   7.441  0.00  0.00    +0.000 C 
ATOM     11  N   UNL     1      46.458   2.770   6.480  0.00  0.00    +0.000 N 
ATOM     12  O   UNL     1      47.028   4.773   7.339  0.00  0.00    +0.000 OA
ATOM     13  H   UNL     1      46.153   1.821   6.640  0.00  0.00    +0.000 HD
ATOM     14  H   UNL     1      47.151   2.920   5.758  0.00  0.00    +0.000 HD
ENDBRANCH   8  10
ENDBRANCH   1   4
BRANCH   1  15
ATOM     15  C   UNL     1      44.538   4.851  13.125  0.00  0.00    +0.000 C 
BRANCH  15  16
ATOM     16  O   UNL     1      45.812   4.188  13.080  0.00  0.00    +0.000 OA
BRANCH  16  20
ATOM     17  C   UNL     1      48.450   5.700  15.870  0.00  0.00    +0.000 A 
ATOM     18  C   UNL     1      48.267   6.369  14.656  0.00  0.00    +0.000 A 
ATOM     19  C   UNL     1      47.370   5.850  13.718  0.00  0.00    +0.000 A 
ATOM     20  C   UNL     1      46.687   4.685  14.030  0.00  0.00    +0.000 A 
ATOM     21  N   UNL     1      46.839   4.024  15.197  0.00  0.00    +0.000 NA
ATOM     22  C   UNL     1      47.717   4.543  16.087  0.00  0.00    +0.000 A 
BRANCH  17  23
ATOM     23  C   UNL     1      49.372   6.137  16.940  0.00  0.00    +0.000 C 
ATOM     24  O   UNL     1      49.178   7.135  17.616  0.00  0.00    +0.000 OA
BRANCH  23  26
ATOM     25  C   UNL     1      50.609   4.786  18.373  0.00  0.00    +0.000 C 
ATOM     26  O   UNL     1      50.425   5.293  17.050  0.00  0.00    +0.000 OA
ENDBRANCH  23  26
ENDBRANCH  17  23
ENDBRANCH  16  20
ENDBRANCH  15  16
ENDBRANCH   1  15
TORSDOF 7
ENDMDL
MODEL 9
REMARK VINA RESULT:    -6.484      2.944      5.923
REMARK INTER + INTRA:          -9.770
REMARK INTER:                  -8.642
REMARK INTRA:                  -1.128
REMARK UNBOUND:                -0.632
REMARK  Name = 
REMARK  10 active torsions:
REMARK  status: ('A' for Active; 'I' for Inactive)
REMARK    1  A    between atoms: C_1  and  O_2
REMARK    2  A    between atoms: O_2  and  C_3
REMARK    3  A    between atoms: C_3  and  C_5
REMARK    4  A    between atoms: C_8  and  O_9
REMARK    5  A    between atoms: O_9  and  C_10
REMARK    6  A    between atoms: C_10  and  C_11
REMARK    7  A    between atoms: C_11  and  C_12
REMARK    8  A    between atoms: C_11  and  C_13
REMARK    9  A    between atoms: C_11  and  C_14
REMARK   10  A    between atoms: C_18  and  C_19
REMARK                            x       y       z     vdW  Elec       q    Type
REMARK                         _______ _______ _______ _____ _____    ______ ____
ROOT
ATOM      1  C   UNL     1      49.068   6.877  16.187  0.00  0.00    +0.000 C 
ATOM      2  C   UNL     1      50.568   7.048  15.868  0.00  0.00    +0.000 C 
ATOM      3  C   UNL     1      48.674   8.012  17.163  0.00  0.00    +0.000 C 
ENDROOT
BRANCH   1   4
ATOM      4  C   UNL     1      48.813   5.463  16.765  0.00  0.00    +0.000 A 
ATOM      5  C   UNL     1      47.523   4.998  17.076  0.00  0.00    +0.000 A 
ATOM      6  C   UNL     1      47.309   3.694  17.534  0.00  0.00    +0.000 A 
ATOM      7  C   UNL     1      48.379   2.815  17.675  0.00  0.00    +0.000 A 
ATOM      8  C   UNL     1      49.671   3.241  17.371  0.00  0.00    +0.000 A 
ATOM      9  C   UNL     1      49.886   4.566  16.954  0.00  0.00    +0.000 A 
BRANCH   8  10
ATOM     10  C   UNL     1      50.776   2.249  17.479  0.00  0.00    +0.000 C 
ATOM     11  N   UNL     1      51.830   2.566  18.291  0.00  0.00    +0.000 N 
ATOM     12  O   UNL     1      50.781   1.213  16.827  0.00  0.00    +0.000 OA
ATOM     13  H   UNL     1      51.987   3.501  18.638  0.00  0.00    +0.000 HD
ATOM     14  H   UNL     1      52.633   1.952  18.232  0.00  0.00    +0.000 HD
ENDBRANCH   8  10
ENDBRANCH   1   4
BRANCH   1  15
ATOM     15  C   UNL     1      48.224   7.044  14.888  0.00  0.00    +0.000 C 
BRANCH  15  16
ATOM     16  O   UNL     1      48.548   6.051  13.903  0.00  0.00    +0.000 OA
BRANCH  16  20
ATOM     17  C   UNL     1      45.230   4.793  11.794  0.00  0.00    +0.000 A 
ATOM     18  C   UNL     1      45.655   4.071  12.913  0.00  0.00    +0.000 A 
ATOM     19  C   UNL     1      46.778   4.505  13.622  0.00  0.00    +0.000 A 
ATOM     20  C   UNL     1      47.433   5.648  13.189  0.00  0.00    +0.000 A 
ATOM     21  N   UNL     1      47.040   6.368  12.117  0.00  0.00    +0.000 NA
ATOM     22  C   UNL     1      45.953   5.925  11.444  0.00  0.00    +0.000 A 
BRANCH  17  23
ATOM     23  C   UNL     1      44.066   4.437  10.955  0.00  0.00    +0.000 C 
ATOM     24  O   UNL     1      43.262   5.262  10.552  0.00  0.00    +0.000 OA
BRANCH  23  26
ATOM     25  C   UNL     1      44.589   2.747   9.445  0.00  0.00    +0.000 C 
ATOM     26  O   UNL     1      44.031   3.106  10.711  0.00  0.00    +0.000 OA
ENDBRANCH  23  26
ENDBRANCH  17  23
ENDBRANCH  16  20
ENDBRANCH  15  16
ENDBRANCH   1  15
TORSDOF 7
ENDMDL
