MODEL 1
REMARK VINA RESULT:    -9.038      0.000      0.000
REMARK INTER + INTRA:         -12.822
REMARK INTER:                 -12.208
REMARK INTRA:                  -0.614
REMARK UNBOUND:                -0.614
REMARK  Name = 
REMARK  6 active torsions:
REMARK  status: ('A' for Active; 'I' for Inactive)
REMARK    1  A    between atoms: C_2  and  C_4
REMARK    2  A    between atoms: N_8  and  C_9
REMARK    3  A    between atoms: C_9  and  C_10
REMARK    4  A    between atoms: C_10  and  C_13
REMARK    5  A    between atoms: C_17  and  N_18
REMARK    6  A    between atoms: N_18  and  C_19
REMARK                            x       y       z     vdW  Elec       q    Type
REMARK                         _______ _______ _______ _____ _____    ______ ____
ROOT
ATOM      1  C   UNL     1      43.402   4.519  12.031  0.00  0.00    +0.000 C 
ATOM      2  F   UNL     1      42.478   5.200  12.780  0.00  0.00    +0.000 F 
ATOM      3  F   UNL     1      42.936   3.236  11.978  0.00  0.00    +0.000 F 
ENDROOT
BRANCH   1   4
ATOM      4  C   UNL     1      44.777   4.592  12.651  0.00  0.00    +0.000 A 
ATOM      5  C   UNL     1      45.543   3.437  12.877  0.00  0.00    +0.000 A 
ATOM      6  C   UNL     1      46.799   3.529  13.474  0.00  0.00    +0.000 A 
ATOM      7  C   UNL     1      47.311   4.771  13.860  0.00  0.00    +0.000 A 
ATOM      8  C   UNL     1      46.577   5.940  13.646  0.00  0.00    +0.000 A 
ATOM      9  C   UNL     1      45.324   5.826  13.018  0.00  0.00    +0.000 A 
ATOM     10  F   UNL     1      44.613   6.946  12.806  0.00  0.00    +0.000 F 
BRANCH   8  11
ATOM     11  N   UNL     1      47.080   7.220  13.979  0.00  0.00    +0.000 N 
ATOM     12  H   UNL     1      47.104   7.349  14.993  0.00  0.00    +0.000 HD
BRANCH  11  13
ATOM     13  C   UNL     1      48.136   7.914  13.292  0.00  0.00    +0.000 C 
ATOM     14  C   UNL     1      48.451   7.340  11.895  0.00  0.00    +0.000 C 
ATOM     15  N   UNL     1      49.883   7.281  12.249  0.00  0.00    +0.000 NA
ATOM     16  C   UNL     1      49.540   7.404  13.680  0.00  0.00    +0.000 C 
ATOM     17  H   UNL     1      50.425   8.070  11.894  0.00  0.00    +0.000 HD
ENDBRANCH  11  13
ENDBRANCH   8  11
ENDBRANCH   1   4
BRANCH   1  18
ATOM     18  C   UNL     1      43.387   5.112  10.594  0.00  0.00    +0.000 C 
BRANCH  18  23
ATOM     19  C   UNL     1      46.505   2.475   7.520  0.00  0.00    +0.000 A 
ATOM     20  C   UNL     1      45.636   2.018   8.504  0.00  0.00    +0.000 A 
ATOM     21  C   UNL     1      45.000   2.944   9.335  0.00  0.00    +0.000 A 
ATOM     22  C   UNL     1      45.230   4.306   9.162  0.00  0.00    +0.000 A 
ATOM     23  N   UNL     1      44.727   5.270  10.015  0.00  0.00    +0.000 N 
ATOM     24  N   UNL     1      46.042   4.761   8.190  0.00  0.00    +0.000 NA
ATOM     25  C   UNL     1      46.672   3.847   7.402  0.00  0.00    +0.000 A 
ATOM     26  H   UNL     1      44.923   6.186   9.610  0.00  0.00    +0.000 HD
BRANCH  19  28
ATOM     27  N   UNL     1      48.299   2.130   5.911  0.00  0.00    +0.000 N 
ATOM     28  C   UNL     1      47.299   1.574   6.659  0.00  0.00    +0.000 C 
ATOM     29  O   UNL     1      47.083   0.370   6.624  0.00  0.00    +0.000 OA
ATOM     30  H   UNL     1      48.873   1.487   5.378  0.00  0.00    +0.000 HD
ATOM     31  H   UNL     1      48.663   3.057   6.075  0.00  0.00    +0.000 HD
ENDBRANCH  19  28
ENDBRANCH  18  23
ENDBRANCH   1  18
TORSDOF 6
ENDMDL
MODEL 2
REMARK VINA RESULT:    -8.929      1.726      2.672
REMARK INTER + INTRA:         -12.675
REMARK INTER:                 -12.023
REMARK INTRA:                  -0.652
REMARK UNBOUND:                -0.614
REMARK  Name = 
REMARK  6 active torsions:
REMARK  status: ('A' for Active; 'I' for Inactive)
REMARK    1  A    between atoms: C_2  and  C_4
REMARK    2  A    between atoms: N_8  and  C_9
REMARK    3  A    between atoms: C_9  and  C_10
REMARK    4  A    between atoms: C_10  and  C_13
REMARK    5  A    between atoms: C_17  and  N_18
REMARK    6  A    between atoms: N_18  and  C_19
REMARK                            x       y       z     vdW  Elec       q    Type
REMARK                         _______ _______ _______ _____ _____    ______ ____
ROOT
ATOM      1  C   UNL     1      43.193   5.816  11.888  0.00  0.00    +0.000 C 
ATOM      2  F   UNL     1      42.481   6.949  11.592  0.00  0.00    +0.000 F 
ATOM      3  F   UNL     1      42.409   5.128  12.771  0.00  0.00    +0.000 F 
ENDROOT
BRANCH   1   4
ATOM      4  C   UNL     1      44.542   6.150  12.478  0.00  0.00    +0.000 A 
ATOM      5  C   UNL     1      45.122   7.419  12.314  0.00  0.00    +0.000 A 
ATOM      6  C   UNL     1      46.379   7.694  12.845  0.00  0.00    +0.000 A 
ATOM      7  C   UNL     1      47.084   6.710  13.545  0.00  0.00    +0.000 A 
ATOM      8  C   UNL     1      46.535   5.439  13.729  0.00  0.00    +0.000 A 
ATOM      9  C   UNL     1      45.253   5.192  13.207  0.00  0.00    +0.000 A 
ATOM     10  F   UNL     1      44.717   3.973  13.383  0.00  0.00    +0.000 F 
BRANCH   8  11
ATOM     11  N   UNL     1      47.195   4.431  14.472  0.00  0.00    +0.000 N 
ATOM     12  H   UNL     1      48.096   4.197  14.047  0.00  0.00    +0.000 HD
BRANCH  11  13
ATOM     13  C   UNL     1      47.191   4.301  15.904  0.00  0.00    +0.000 C 
ATOM     14  C   UNL     1      48.308   5.103  16.604  0.00  0.00    +0.000 C 
ATOM     15  N   UNL     1      48.697   3.891  17.354  0.00  0.00    +0.000 NA
ATOM     16  C   UNL     1      47.950   3.052  16.395  0.00  0.00    +0.000 C 
ATOM     17  H   UNL     1      48.319   3.857  18.301  0.00  0.00    +0.000 HD
ENDBRANCH  11  13
ENDBRANCH   8  11
ENDBRANCH   1   4
BRANCH   1  18
ATOM     18  C   UNL     1      43.325   4.978  10.586  0.00  0.00    +0.000 C 
BRANCH  18  23
ATOM     19  C   UNL     1      46.462   2.293   7.573  0.00  0.00    +0.000 A 
ATOM     20  C   UNL     1      45.715   1.877   8.668  0.00  0.00    +0.000 A 
ATOM     21  C   UNL     1      45.052   2.832   9.443  0.00  0.00    +0.000 A 
ATOM     22  C   UNL     1      45.132   4.180   9.104  0.00  0.00    +0.000 A 
ATOM     23  N   UNL     1      44.599   5.188   9.885  0.00  0.00    +0.000 N 
ATOM     24  N   UNL     1      45.824   4.590   8.025  0.00  0.00    +0.000 NA
ATOM     25  C   UNL     1      46.484   3.651   7.292  0.00  0.00    +0.000 A 
ATOM     26  H   UNL     1      44.673   6.064   9.368  0.00  0.00    +0.000 HD
BRANCH  19  28
ATOM     27  N   UNL     1      48.278   1.917   5.995  0.00  0.00    +0.000 N 
ATOM     28  C   UNL     1      47.279   1.373   6.754  0.00  0.00    +0.000 C 
ATOM     29  O   UNL     1      47.081   0.166   6.760  0.00  0.00    +0.000 OA
ATOM     30  H   UNL     1      48.867   1.264   5.492  0.00  0.00    +0.000 HD
ATOM     31  H   UNL     1      48.626   2.855   6.128  0.00  0.00    +0.000 HD
ENDBRANCH  19  28
ENDBRANCH  18  23
ENDBRANCH   1  18
TORSDOF 6
ENDMDL
MODEL 3
REMARK VINA RESULT:    -8.761      1.951      2.501
REMARK INTER + INTRA:         -12.449
REMARK INTER:                 -11.415
REMARK INTRA:                  -1.034
REMARK UNBOUND:                -0.614
REMARK  Name = 
REMARK  6 active torsions:
REMARK  status: ('A' for Active; 'I' for Inactive)
REMARK    1  A    between atoms: C_2  and  C_4
REMARK    2  A    between atoms: N_8  and  C_9
REMARK    3  A    between atoms: C_9  and  C_10
REMARK    4  A    between atoms: C_10  and  C_13
REMARK    5  A    between atoms: C_17  and  N_18
REMARK    6  A    between atoms: N_18  and  C_19
REMARK                            x       y       z     vdW  Elec       q    Type
REMARK                         _______ _______ _______ _____ _____    ______ ____
ROOT
ATOM      1  C   UNL     1      44.566   4.130  12.442  0.00  0.00    +0.000 C 
ATOM      2  F   UNL     1      43.673   4.240  13.476  0.00  0.00    +0.000 F 
ATOM      3  F   UNL     1      45.032   2.848  12.514  0.00  0.00    +0.000 F 
ENDROOT
BRANCH   1   4
ATOM      4  C   UNL     1      45.681   5.141  12.565  0.00  0.00    +0.000 A 
ATOM      5  C   UNL     1      45.994   6.021  11.516  0.00  0.00    +0.000 A 
ATOM      6  C   UNL     1      47.044   6.927  11.645  0.00  0.00    +0.000 A 
ATOM      7  C   UNL     1      47.803   6.970  12.818  0.00  0.00    +0.000 A 
ATOM      8  C   UNL     1      47.516   6.112  13.882  0.00  0.00    +0.000 A 
ATOM      9  C   UNL     1      46.435   5.224  13.740  0.00  0.00    +0.000 A 
ATOM     10  F   UNL     1      46.150   4.398  14.760  0.00  0.00    +0.000 F 
BRANCH   8  11
ATOM     11  N   UNL     1      48.230   6.157  15.103  0.00  0.00    +0.000 N 
ATOM     12  H   UNL     1      48.385   5.215  15.469  0.00  0.00    +0.000 HD
BRANCH  11  13
ATOM     13  C   UNL     1      49.290   7.074  15.425  0.00  0.00    +0.000 C 
ATOM     14  C   UNL     1      50.353   6.486  16.377  0.00  0.00    +0.000 C 
ATOM     15  N   UNL     1      50.221   7.674  17.245  0.00  0.00    +0.000 NA
ATOM     16  C   UNL     1      48.937   8.011  16.598  0.00  0.00    +0.000 C 
ATOM     17  H   UNL     1      50.947   8.374  17.092  0.00  0.00    +0.000 HD
ENDBRANCH  11  13
ENDBRANCH   8  11
ENDBRANCH   1   4
BRANCH   1  18
ATOM     18  C   UNL     1      43.781   4.298  11.110  0.00  0.00    +0.000 C 
BRANCH  18  23
ATOM     19  C   UNL     1      46.739   2.650   7.281  0.00  0.00    +0.000 A 
ATOM     20  C   UNL     1      46.306   3.938   7.574  0.00  0.00    +0.000 A 
ATOM     21  C   UNL     1      45.362   4.125   8.587  0.00  0.00    +0.000 A 
ATOM     22  C   UNL     1      44.879   3.030   9.298  0.00  0.00    +0.000 A 
ATOM     23  N   UNL     1      43.865   3.123  10.233  0.00  0.00    +0.000 N 
ATOM     24  N   UNL     1      45.318   1.782   9.045  0.00  0.00    +0.000 NA
ATOM     25  C   UNL     1      46.221   1.612   8.040  0.00  0.00    +0.000 A 
ATOM     26  H   UNL     1      43.780   2.221  10.701  0.00  0.00    +0.000 HD
BRANCH  19  28
ATOM     27  N   UNL     1      47.648   3.179   5.084  0.00  0.00    +0.000 N 
ATOM     28  C   UNL     1      47.656   2.340   6.164  0.00  0.00    +0.000 C 
ATOM     29  O   UNL     1      48.408   1.375   6.204  0.00  0.00    +0.000 OA
ATOM     30  H   UNL     1      48.328   2.987   4.359  0.00  0.00    +0.000 HD
ATOM     31  H   UNL     1      47.227   4.097   5.100  0.00  0.00    +0.000 HD
ENDBRANCH  19  28
ENDBRANCH  18  23
ENDBRANCH   1  18
TORSDOF 6
ENDMDL
MODEL 4
REMARK VINA RESULT:    -8.683      1.725      2.212
REMARK INTER + INTRA:         -12.343
REMARK INTER:                 -11.330
REMARK INTRA:                  -1.013
REMARK UNBOUND:                -0.614
REMARK  Name = 
REMARK  6 active torsions:
REMARK  status: ('A' for Active; 'I' for Inactive)
REMARK    1  A    between atoms: C_2  and  C_4
REMARK    2  A    between atoms: N_8  and  C_9
REMARK    3  A    between atoms: C_9  and  C_10
REMARK    4  A    between atoms: C_10  and  C_13
REMARK    5  A    between atoms: C_17  and  N_18
REMARK    6  A    between atoms: N_18  and  C_19
REMARK                            x       y       z     vdW  Elec       q    Type
REMARK                         _______ _______ _______ _____ _____    ______ ____
ROOT
ATOM      1  C   UNL     1      44.376   3.851  12.410  0.00  0.00    +0.000 C 
ATOM      2  F   UNL     1      43.708   3.608  13.582  0.00  0.00    +0.000 F 
ATOM      3  F   UNL     1      45.393   2.938  12.389  0.00  0.00    +0.000 F 
ENDROOT
BRANCH   1   4
ATOM      4  C   UNL     1      44.893   5.269  12.353  0.00  0.00    +0.000 A 
ATOM      5  C   UNL     1      44.400   6.193  11.417  0.00  0.00    +0.000 A 
ATOM      6  C   UNL     1      44.912   7.487  11.367  0.00  0.00    +0.000 A 
ATOM      7  C   UNL     1      45.925   7.884  12.245  0.00  0.00    +0.000 A 
ATOM      8  C   UNL     1      46.434   6.991  13.191  0.00  0.00    +0.000 A 
ATOM      9  C   UNL     1      45.885   5.697  13.241  0.00  0.00    +0.000 A 
ATOM     10  F   UNL     1      46.367   4.834  14.150  0.00  0.00    +0.000 F 
BRANCH   8  11
ATOM     11  N   UNL     1      47.426   7.367  14.128  0.00  0.00    +0.000 N 
ATOM     12  H   UNL     1      47.549   6.642  14.838  0.00  0.00    +0.000 HD
BRANCH  11  13
ATOM     13  C   UNL     1      48.637   8.084  13.830  0.00  0.00    +0.000 C 
ATOM     14  C   UNL     1      49.397   7.537  12.604  0.00  0.00    +0.000 C 
ATOM     15  N   UNL     1      50.637   7.488  13.404  0.00  0.00    +0.000 NA
ATOM     16  C   UNL     1      49.846   7.584  14.646  0.00  0.00    +0.000 C 
ATOM     17  H   UNL     1      51.252   8.289  13.253  0.00  0.00    +0.000 HD
ENDBRANCH  11  13
ENDBRANCH   8  11
ENDBRANCH   1   4
BRANCH   1  18
ATOM     18  C   UNL     1      43.409   3.543  11.232  0.00  0.00    +0.000 C 
BRANCH  18  23
ATOM     19  C   UNL     1      46.477   2.775   7.217  0.00  0.00    +0.000 A 
ATOM     20  C   UNL     1      45.634   3.844   7.495  0.00  0.00    +0.000 A 
ATOM     21  C   UNL     1      44.761   3.757   8.583  0.00  0.00    +0.000 A 
ATOM     22  C   UNL     1      44.755   2.617   9.381  0.00  0.00    +0.000 A 
ATOM     23  N   UNL     1      43.845   2.413  10.401  0.00  0.00    +0.000 N 
ATOM     24  N   UNL     1      45.592   1.590   9.141  0.00  0.00    +0.000 NA
ATOM     25  C   UNL     1      46.422   1.678   8.064  0.00  0.00    +0.000 A 
ATOM     26  H   UNL     1      44.123   1.576  10.913  0.00  0.00    +0.000 HD
BRANCH  19  28
ATOM     27  N   UNL     1      48.678   2.419   6.237  0.00  0.00    +0.000 N 
ATOM     28  C   UNL     1      47.362   2.729   6.034  0.00  0.00    +0.000 C 
ATOM     29  O   UNL     1      46.934   2.948   4.908  0.00  0.00    +0.000 OA
ATOM     30  H   UNL     1      49.252   2.329   5.408  0.00  0.00    +0.000 HD
ATOM     31  H   UNL     1      49.024   2.011   7.093  0.00  0.00    +0.000 HD
ENDBRANCH  19  28
ENDBRANCH  18  23
ENDBRANCH   1  18
TORSDOF 6
ENDMDL
MODEL 5
REMARK VINA RESULT:    -8.579      2.412      2.960
REMARK INTER + INTRA:         -12.202
REMARK INTER:                 -11.470
REMARK INTRA:                  -0.731
REMARK UNBOUND:                -0.614
REMARK  Name = 
REMARK  6 active torsions:
REMARK  status: ('A' for Active; 'I' for Inactive)
REMARK    1  A    between atoms: C_2  and  C_4
REMARK    2  A    between atoms: N_8  and  C_9
REMARK    3  A    between atoms: C_9  and  C_10
REMARK    4  A    between atoms: C_10  and  C_13
REMARK    5  A    between atoms: C_17  and  N_18
REMARK    6  A    between atoms: N_18  and  C_19
REMARK                            x       y       z     vdW  Elec       q    Type
REMARK                         _______ _______ _______ _____ _____    ______ ____
ROOT
ATOM      1  C   UNL     1      44.216   3.796  12.462  0.00  0.00    +0.000 C 
ATOM      2  F   UNL     1      43.202   3.733  13.382  0.00  0.00    +0.000 F 
ATOM      3  F   UNL     1      44.882   2.610  12.590  0.00  0.00    +0.000 F 
ENDROOT
BRANCH   1   4
ATOM      4  C   UNL     1      45.120   4.978  12.716  0.00  0.00    +0.000 A 
ATOM      5  C   UNL     1      46.454   4.809  13.122  0.00  0.00    +0.000 A 
ATOM      6  C   UNL     1      47.260   5.916  13.375  0.00  0.00    +0.000 A 
ATOM      7  C   UNL     1      46.753   7.211  13.232  0.00  0.00    +0.000 A 
ATOM      8  C   UNL     1      45.432   7.415  12.825  0.00  0.00    +0.000 A 
ATOM      9  C   UNL     1      44.644   6.283  12.550  0.00  0.00    +0.000 A 
ATOM     10  F   UNL     1      43.374   6.471  12.156  0.00  0.00    +0.000 F 
BRANCH   8  11
ATOM     11  N   UNL     1      44.895   8.708  12.623  0.00  0.00    +0.000 N 
ATOM     12  H   UNL     1      45.035   9.294  13.449  0.00  0.00    +0.000 HD
BRANCH  11  13
ATOM     13  C   UNL     1      44.922   9.447  11.389  0.00  0.00    +0.000 C 
ATOM     14  C   UNL     1      45.034  10.974  11.582  0.00  0.00    +0.000 C 
ATOM     15  N   UNL     1      43.884  11.165  10.675  0.00  0.00    +0.000 NA
ATOM     16  C   UNL     1      43.513   9.746  10.838  0.00  0.00    +0.000 C 
ATOM     17  H   UNL     1      44.152  11.406   9.721  0.00  0.00    +0.000 HD
ENDBRANCH  11  13
ENDBRANCH   8  11
ENDBRANCH   1   4
BRANCH   1  18
ATOM     18  C   UNL     1      43.576   3.855  11.046  0.00  0.00    +0.000 C 
BRANCH  18  23
ATOM     19  C   UNL     1      46.664   2.560   7.184  0.00  0.00    +0.000 A 
ATOM     20  C   UNL     1      46.002   3.759   7.425  0.00  0.00    +0.000 A 
ATOM     21  C   UNL     1      45.074   3.827   8.468  0.00  0.00    +0.000 A 
ATOM     22  C   UNL     1      44.834   2.706   9.259  0.00  0.00    +0.000 A 
ATOM     23  N   UNL     1      43.853   2.664  10.232  0.00  0.00    +0.000 N 
ATOM     24  N   UNL     1      45.495   1.551   9.055  0.00  0.00    +0.000 NA
ATOM     25  C   UNL     1      46.379   1.493   8.022  0.00  0.00    +0.000 A 
ATOM     26  H   UNL     1      43.958   1.794  10.752  0.00  0.00    +0.000 HD
BRANCH  19  28
ATOM     27  N   UNL     1      47.533   3.265   5.021  0.00  0.00    +0.000 N 
ATOM     28  C   UNL     1      47.585   2.360   6.045  0.00  0.00    +0.000 C 
ATOM     29  O   UNL     1      48.376   1.428   6.021  0.00  0.00    +0.000 OA
ATOM     30  H   UNL     1      48.216   3.147   4.282  0.00  0.00    +0.000 HD
ATOM     31  H   UNL     1      47.074   4.160   5.096  0.00  0.00    +0.000 HD
ENDBRANCH  19  28
ENDBRANCH  18  23
ENDBRANCH   1  18
TORSDOF 6
ENDMDL
MODEL 6
REMARK VINA RESULT:    -8.185      3.223      7.027
REMARK INTER + INTRA:         -11.670
REMARK INTER:                 -10.857
REMARK INTRA:                  -0.813
REMARK UNBOUND:                -0.614
REMARK  Name = 
REMARK  6 active torsions:
REMARK  status: ('A' for Active; 'I' for Inactive)
REMARK    1  A    between atoms: C_2  and  C_4
REMARK    2  A    between atoms: N_8  and  C_9
REMARK    3  A    between atoms: C_9  and  C_10
REMARK    4  A    between atoms: C_10  and  C_13
REMARK    5  A    between atoms: C_17  and  N_18
REMARK    6  A    between atoms: N_18  and  C_19
REMARK                            x       y       z     vdW  Elec       q    Type
REMARK                         _______ _______ _______ _____ _____    ______ ____
ROOT
ATOM      1  C   UNL     1      45.381   6.207  11.380  0.00  0.00    +0.000 C 
ATOM      2  F   UNL     1      44.665   6.343  12.540  0.00  0.00    +0.000 F 
ATOM      3  F   UNL     1      45.045   7.298  10.628  0.00  0.00    +0.000 F 
ENDROOT
BRANCH   1   4
ATOM      4  C   UNL     1      45.047   4.914  10.673  0.00  0.00    +0.000 A 
ATOM      5  C   UNL     1      44.266   3.922  11.288  0.00  0.00    +0.000 A 
ATOM      6  C   UNL     1      43.994   2.727  10.626  0.00  0.00    +0.000 A 
ATOM      7  C   UNL     1      44.497   2.498   9.342  0.00  0.00    +0.000 A 
ATOM      8  C   UNL     1      45.274   3.465   8.700  0.00  0.00    +0.000 A 
ATOM      9  C   UNL     1      45.514   4.674   9.377  0.00  0.00    +0.000 A 
ATOM     10  F   UNL     1      46.258   5.611   8.766  0.00  0.00    +0.000 F 
BRANCH   8  11
ATOM     11  N   UNL     1      45.763   3.291   7.384  0.00  0.00    +0.000 N 
ATOM     12  H   UNL     1      45.236   3.865   6.721  0.00  0.00    +0.000 HD
BRANCH  11  13
ATOM     13  C   UNL     1      47.142   3.116   7.014  0.00  0.00    +0.000 C 
ATOM     14  C   UNL     1      47.359   2.914   5.500  0.00  0.00    +0.000 C 
ATOM     15  N   UNL     1      48.173   1.716   5.783  0.00  0.00    +0.000 NA
ATOM     16  C   UNL     1      47.618   1.655   7.150  0.00  0.00    +0.000 C 
ATOM     17  H   UNL     1      49.179   1.891   5.763  0.00  0.00    +0.000 HD
ENDBRANCH  11  13
ENDBRANCH   8  11
ENDBRANCH   1   4
BRANCH   1  18
ATOM     18  C   UNL     1      46.892   6.295  11.734  0.00  0.00    +0.000 C 
BRANCH  18  23
ATOM     19  C   UNL     1      47.911   4.216  16.291  0.00  0.00    +0.000 A 
ATOM     20  C   UNL     1      47.072   3.764  15.279  0.00  0.00    +0.000 A 
ATOM     21  C   UNL     1      46.824   4.591  14.180  0.00  0.00    +0.000 A 
ATOM     22  C   UNL     1      47.427   5.843  14.102  0.00  0.00    +0.000 A 
ATOM     23  N   UNL     1      47.143   6.757  13.105  0.00  0.00    +0.000 N 
ATOM     24  N   UNL     1      48.268   6.276  15.059  0.00  0.00    +0.000 NA
ATOM     25  C   UNL     1      48.483   5.469  16.135  0.00  0.00    +0.000 A 
ATOM     26  H   UNL     1      47.796   7.536  13.191  0.00  0.00    +0.000 HD
BRANCH  19  28
ATOM     27  N   UNL     1      47.128   2.703  18.031  0.00  0.00    +0.000 N 
ATOM     28  C   UNL     1      48.154   3.460  17.537  0.00  0.00    +0.000 C 
ATOM     29  O   UNL     1      49.238   3.496  18.104  0.00  0.00    +0.000 OA
ATOM     30  H   UNL     1      47.335   2.143  18.849  0.00  0.00    +0.000 HD
ATOM     31  H   UNL     1      46.310   2.460  17.492  0.00  0.00    +0.000 HD
ENDBRANCH  19  28
ENDBRANCH  18  23
ENDBRANCH   1  18
TORSDOF 6
ENDMDL
MODEL 7
REMARK VINA RESULT:    -7.295      3.344      7.375
REMARK INTER + INTRA:         -10.468
REMARK INTER:                  -9.941
REMARK INTRA:                  -0.528
REMARK UNBOUND:                -0.614
REMARK  Name = 
REMARK  6 active torsions:
REMARK  status: ('A' for Active; 'I' for Inactive)
REMARK    1  A    between atoms: C_2  and  C_4
REMARK    2  A    between atoms: N_8  and  C_9
REMARK    3  A    between atoms: C_9  and  C_10
REMARK    4  A    between atoms: C_10  and  C_13
REMARK    5  A    between atoms: C_17  and  N_18
REMARK    6  A    between atoms: N_18  and  C_19
REMARK                            x       y       z     vdW  Elec       q    Type
REMARK                         _______ _______ _______ _____ _____    ______ ____
ROOT
ATOM      1  C   UNL     1      44.982   5.947  11.546  0.00  0.00    +0.000 C 
ATOM      2  F   UNL     1      44.343   5.759  12.743  0.00  0.00    +0.000 F 
ATOM      3  F   UNL     1      44.360   7.024  10.980  0.00  0.00    +0.000 F 
ENDROOT
BRANCH   1   4
ATOM      4  C   UNL     1      44.889   4.720  10.671  0.00  0.00    +0.000 A 
ATOM      5  C   UNL     1      44.185   3.576  11.082  0.00  0.00    +0.000 A 
ATOM      6  C   UNL     1      44.136   2.448  10.267  0.00  0.00    +0.000 A 
ATOM      7  C   UNL     1      44.790   2.436   9.031  0.00  0.00    +0.000 A 
ATOM      8  C   UNL     1      45.496   3.558   8.591  0.00  0.00    +0.000 A 
ATOM      9  C   UNL     1      45.510   4.696   9.418  0.00  0.00    +0.000 A 
ATOM     10  F   UNL     1      46.184   5.780   8.999  0.00  0.00    +0.000 F 
BRANCH   8  11
ATOM     11  N   UNL     1      46.131   3.603   7.327  0.00  0.00    +0.000 N 
ATOM     12  H   UNL     1      46.789   4.384   7.278  0.00  0.00    +0.000 HD
BRANCH  11  13
ATOM     13  C   UNL     1      46.540   2.464   6.550  0.00  0.00    +0.000 C 
ATOM     14  C   UNL     1      47.794   1.753   7.102  0.00  0.00    +0.000 C 
ATOM     15  N   UNL     1      48.408   1.811   5.760  0.00  0.00    +0.000 NA
ATOM     16  C   UNL     1      47.436   2.845   5.353  0.00  0.00    +0.000 C 
ATOM     17  H   UNL     1      48.318   0.942   5.232  0.00  0.00    +0.000 HD
ENDBRANCH  11  13
ENDBRANCH   8  11
ENDBRANCH   1   4
BRANCH   1  18
ATOM     18  C   UNL     1      46.460   6.330  11.845  0.00  0.00    +0.000 C 
BRANCH  18  23
ATOM     19  C   UNL     1      49.931   6.963  15.543  0.00  0.00    +0.000 A 
ATOM     20  C   UNL     1      49.909   7.477  14.251  0.00  0.00    +0.000 A 
ATOM     21  C   UNL     1      48.932   7.031  13.357  0.00  0.00    +0.000 A 
ATOM     22  C   UNL     1      47.988   6.094  13.770  0.00  0.00    +0.000 A 
ATOM     23  N   UNL     1      47.065   5.524  12.913  0.00  0.00    +0.000 N 
ATOM     24  N   UNL     1      47.980   5.616  15.028  0.00  0.00    +0.000 NA
ATOM     25  C   UNL     1      48.951   6.043  15.882  0.00  0.00    +0.000 A 
ATOM     26  H   UNL     1      46.411   4.974  13.470  0.00  0.00    +0.000 HD
BRANCH  19  28
ATOM     27  N   UNL     1      51.660   6.258  17.106  0.00  0.00    +0.000 N 
ATOM     28  C   UNL     1      50.982   7.295  16.527  0.00  0.00    +0.000 C 
ATOM     29  O   UNL     1      51.249   8.456  16.809  0.00  0.00    +0.000 OA
ATOM     30  H   UNL     1      52.419   6.508  17.729  0.00  0.00    +0.000 HD
ATOM     31  H   UNL     1      51.640   5.315  16.747  0.00  0.00    +0.000 HD
ENDBRANCH  19  28
ENDBRANCH  18  23
ENDBRANCH   1  18
TORSDOF 6
ENDMDL
MODEL 8
REMARK VINA RESULT:    -6.975      3.497      5.376
REMARK INTER + INTRA:         -10.036
REMARK INTER:                  -9.193
REMARK INTRA:                  -0.844
REMARK UNBOUND:                -0.614
REMARK  Name = 
REMARK  6 active torsions:
REMARK  status: ('A' for Active; 'I' for Inactive)
REMARK    1  A    between atoms: C_2  and  C_4
REMARK    2  A    between atoms: N_8  and  C_9
REMARK    3  A    between atoms: C_9  and  C_10
REMARK    4  A    between atoms: C_10  and  C_13
REMARK    5  A    between atoms: C_17  and  N_18
REMARK    6  A    between atoms: N_18  and  C_19
REMARK                            x       y       z     vdW  Elec       q    Type
REMARK                         _______ _______ _______ _____ _____    ______ ____
ROOT
ATOM      1  C   UNL     1      47.775   8.394  12.389  0.00  0.00    +0.000 C 
ATOM      2  F   UNL     1      48.016   7.271  11.641  0.00  0.00    +0.000 F 
ATOM      3  F   UNL     1      48.562   9.363  11.833  0.00  0.00    +0.000 F 
ENDROOT
BRANCH   1   4
ATOM      4  C   UNL     1      48.106   8.169  13.846  0.00  0.00    +0.000 A 
ATOM      5  C   UNL     1      48.305   9.244  14.728  0.00  0.00    +0.000 A 
ATOM      6  C   UNL     1      48.634   9.010  16.061  0.00  0.00    +0.000 A 
ATOM      7  C   UNL     1      48.775   7.703  16.538  0.00  0.00    +0.000 A 
ATOM      8  C   UNL     1      48.581   6.612  15.688  0.00  0.00    +0.000 A 
ATOM      9  C   UNL     1      48.223   6.871  14.353  0.00  0.00    +0.000 A 
ATOM     10  F   UNL     1      48.031   5.827  13.530  0.00  0.00    +0.000 F 
BRANCH   8  11
ATOM     11  N   UNL     1      48.668   5.275  16.143  0.00  0.00    +0.000 N 
ATOM     12  H   UNL     1      49.449   5.162  16.792  0.00  0.00    +0.000 HD
BRANCH  11  13
ATOM     13  C   UNL     1      47.556   4.411  16.434  0.00  0.00    +0.000 C 
ATOM     14  C   UNL     1      47.055   4.511  17.890  0.00  0.00    +0.000 C 
ATOM     15  N   UNL     1      47.123   3.041  18.007  0.00  0.00    +0.000 NA
ATOM     16  C   UNL     1      47.991   2.981  16.814  0.00  0.00    +0.000 C 
ATOM     17  H   UNL     1      46.223   2.578  17.876  0.00  0.00    +0.000 HD
ENDBRANCH  11  13
ENDBRANCH   8  11
ENDBRANCH   1   4
BRANCH   1  18
ATOM     18  C   UNL     1      46.286   8.793  12.192  0.00  0.00    +0.000 C 
BRANCH  18  23
ATOM     19  C   UNL     1      44.351   4.120  11.453  0.00  0.00    +0.000 A 
ATOM     20  C   UNL     1      44.654   5.110  10.526  0.00  0.00    +0.000 A 
ATOM     21  C   UNL     1      45.024   6.379  10.980  0.00  0.00    +0.000 A 
ATOM     22  C   UNL     1      45.099   6.633  12.346  0.00  0.00    +0.000 A 
ATOM     23  N   UNL     1      45.346   7.888  12.869  0.00  0.00    +0.000 N 
ATOM     24  N   UNL     1      44.842   5.671  13.253  0.00  0.00    +0.000 NA
ATOM     25  C   UNL     1      44.461   4.446  12.796  0.00  0.00    +0.000 A 
ATOM     26  H   UNL     1      45.479   7.794  13.875  0.00  0.00    +0.000 HD
BRANCH  19  28
ATOM     27  N   UNL     1      44.423   2.178   9.985  0.00  0.00    +0.000 N 
ATOM     28  C   UNL     1      43.855   2.780  11.073  0.00  0.00    +0.000 C 
ATOM     29  O   UNL     1      42.976   2.220  11.714  0.00  0.00    +0.000 OA
ATOM     30  H   UNL     1      44.115   1.235   9.780  0.00  0.00    +0.000 HD
ATOM     31  H   UNL     1      45.290   2.488   9.571  0.00  0.00    +0.000 HD
ENDBRANCH  19  28
ENDBRANCH  18  23
ENDBRANCH   1  18
TORSDOF 6
ENDMDL
MODEL 9
REMARK VINA RESULT:    -6.750      3.828      6.187
REMARK INTER + INTRA:          -9.731
REMARK INTER:                  -9.329
REMARK INTRA:                  -0.402
REMARK UNBOUND:                -0.614
REMARK  Name = 
REMARK  6 active torsions:
REMARK  status: ('A' for Active; 'I' for Inactive)
REMARK    1  A    between atoms: C_2  and  C_4
REMARK    2  A    between atoms: N_8  and  C_9
REMARK    3  A    between atoms: C_9  and  C_10
REMARK    4  A    between atoms: C_10  and  C_13
REMARK    5  A    between atoms: C_17  and  N_18
REMARK    6  A    between atoms: N_18  and  C_19
REMARK                            x       y       z     vdW  Elec       q    Type
REMARK                         _______ _______ _______ _____ _____    ______ ____
ROOT
ATOM      1  C   UNL     1      48.989   8.036  15.286  0.00  0.00    +0.000 C 
ATOM      2  F   UNL     1      49.601   9.215  14.947  0.00  0.00    +0.000 F 
ATOM      3  F   UNL     1      47.956   8.398  16.104  0.00  0.00    +0.000 F 
ENDROOT
BRANCH   1   4
ATOM      4  C   UNL     1      49.948   7.094  15.974  0.00  0.00    +0.000 A 
ATOM      5  C   UNL     1      51.336   7.189  15.782  0.00  0.00    +0.000 A 
ATOM      6  C   UNL     1      52.198   6.291  16.408  0.00  0.00    +0.000 A 
ATOM      7  C   UNL     1      51.692   5.281  17.233  0.00  0.00    +0.000 A 
ATOM      8  C   UNL     1      50.318   5.161  17.447  0.00  0.00    +0.000 A 
ATOM      9  C   UNL     1      49.469   6.094  16.827  0.00  0.00    +0.000 A 
ATOM     10  F   UNL     1      48.145   5.988  17.031  0.00  0.00    +0.000 F 
BRANCH   8  11
ATOM     11  N   UNL     1      49.770   4.183  18.311  0.00  0.00    +0.000 N 
ATOM     12  H   UNL     1      49.076   4.597  18.937  0.00  0.00    +0.000 HD
BRANCH  11  13
ATOM     13  C   UNL     1      49.478   2.819  17.960  0.00  0.00    +0.000 C 
ATOM     14  C   UNL     1      50.567   2.153  17.094  0.00  0.00    +0.000 C 
ATOM     15  N   UNL     1      49.531   1.721  16.135  0.00  0.00    +0.000 NA
ATOM     16  C   UNL     1      48.586   2.701  16.707  0.00  0.00    +0.000 C 
ATOM     17  H   UNL     1      49.235   0.753  16.261  0.00  0.00    +0.000 HD
ENDBRANCH  11  13
ENDBRANCH   8  11
ENDBRANCH   1   4
BRANCH   1  18
ATOM     18  C   UNL     1      48.399   7.412  13.990  0.00  0.00    +0.000 C 
BRANCH  18  23
ATOM     19  C   UNL     1      45.002   4.754  11.247  0.00  0.00    +0.000 A 
ATOM     20  C   UNL     1      45.521   6.024  11.025  0.00  0.00    +0.000 A 
ATOM     21  C   UNL     1      46.320   6.615  12.007  0.00  0.00    +0.000 A 
ATOM     22  C   UNL     1      46.600   5.926  13.183  0.00  0.00    +0.000 A 
ATOM     23  N   UNL     1      47.286   6.488  14.243  0.00  0.00    +0.000 N 
ATOM     24  N   UNL     1      46.131   4.681  13.394  0.00  0.00    +0.000 NA
ATOM     25  C   UNL     1      45.336   4.126  12.438  0.00  0.00    +0.000 A 
ATOM     26  H   UNL     1      47.474   5.754  14.926  0.00  0.00    +0.000 HD
BRANCH  19  28
ATOM     27  N   UNL     1      44.154   4.410   8.991  0.00  0.00    +0.000 N 
ATOM     28  C   UNL     1      44.068   4.087  10.317  0.00  0.00    +0.000 C 
ATOM     29  O   UNL     1      43.252   3.264  10.711  0.00  0.00    +0.000 OA
ATOM     30  H   UNL     1      43.550   3.895   8.362  0.00  0.00    +0.000 HD
ATOM     31  H   UNL     1      44.943   4.895   8.590  0.00  0.00    +0.000 HD
ENDBRANCH  19  28
ENDBRANCH  18  23
ENDBRANCH   1  18
TORSDOF 6
ENDMDL
