MODEL 1
REMARK VINA RESULT:    -6.505      0.000      0.000
REMARK INTER + INTRA:          -9.448
REMARK INTER:                  -8.787
REMARK INTRA:                  -0.661
REMARK UNBOUND:                -0.661
REMARK  Name = 
REMARK  9 active torsions:
REMARK  status: ('A' for Active; 'I' for Inactive)
REMARK    1  A    between atoms: C_1  and  O_2
REMARK    2  A    between atoms: O_2  and  C_3
REMARK    3  A    between atoms: N_10  and  C_11
REMARK    4  A    between atoms: C_11  and  C_12
REMARK    5  A    between atoms: C_15  and  C_16
REMARK    6  A    between atoms: C_16  and  C_17
REMARK    7  A    between atoms: C_17  and  N_18
REMARK    8  A    between atoms: N_18  and  C_19
REMARK    9  A    between atoms: N_18  and  C_20
REMARK                            x       y       z     vdW  Elec       q    Type
REMARK                         _______ _______ _______ _____ _____    ______ ____
ROOT
ATOM      1  C   UNL     1      44.175   5.770  12.411  0.00  0.00    +0.000 C 
ENDROOT
BRANCH   1   9
ATOM      2  C   UNL     1      45.664   3.537   7.884  0.00  0.00    +0.000 A 
ATOM      3  C   UNL     1      46.042   4.786   8.370  0.00  0.00    +0.000 A 
ATOM      4  C   UNL     1      45.638   5.222   9.641  0.00  0.00    +0.000 A 
ATOM      5  C   UNL     1      44.844   4.364  10.420  0.00  0.00    +0.000 A 
ATOM      6  C   UNL     1      44.456   3.104   9.950  0.00  0.00    +0.000 A 
ATOM      7  C   UNL     1      43.667   2.496  10.962  0.00  0.00    +0.000 A 
ATOM      8  C   UNL     1      43.570   3.383  12.007  0.00  0.00    +0.000 A 
ATOM      9  N   UNL     1      44.268   4.520  11.668  0.00  0.00    +0.000 N 
ATOM     10  C   UNL     1      44.859   2.699   8.662  0.00  0.00    +0.000 A 
BRANCH   2  12
ATOM     11  C   UNL     1      47.236   2.381   6.547  0.00  0.00    +0.000 C 
ATOM     12  O   UNL     1      45.981   3.043   6.646  0.00  0.00    +0.000 OA
ENDBRANCH   2  12
ENDBRANCH   1   9
BRANCH   1  13
ATOM     13  C   UNL     1      45.474   6.262  12.983  0.00  0.00    +0.000 A 
ATOM     14  C   UNL     1      45.861   7.603  12.905  0.00  0.00    +0.000 A 
ATOM     15  C   UNL     1      47.162   7.974  13.250  0.00  0.00    +0.000 A 
ATOM     16  C   UNL     1      48.049   6.990  13.675  0.00  0.00    +0.000 A 
ATOM     17  N   UNL     1      47.672   5.699  13.832  0.00  0.00    +0.000 NA
ATOM     18  C   UNL     1      46.404   5.370  13.500  0.00  0.00    +0.000 A 
BRANCH  16  19
ATOM     19  C   UNL     1      49.517   7.294  13.861  0.00  0.00    +0.000 C 
BRANCH  19  20
ATOM     20  C   UNL     1      49.834   7.429  15.363  0.00  0.00    +0.000 C 
BRANCH  20  21
ATOM     21  N   UNL     1      50.238   6.174  16.035  0.00  0.00    +0.000 NA
ATOM     22  C   UNL     1      51.566   6.287  16.643  0.00  0.00    +0.000 C 
ATOM     23  C   UNL     1      49.258   5.841  17.078  0.00  0.00    +0.000 C 
ENDBRANCH  20  21
ENDBRANCH  19  20
ENDBRANCH  16  19
ENDBRANCH   1  13
TORSDOF 6
ENDMDL
MODEL 2
REMARK VINA RESULT:    -6.433      1.212      1.650
REMARK INTER + INTRA:          -9.350
REMARK INTER:                  -8.603
REMARK INTRA:                  -0.747
REMARK UNBOUND:                -0.661
REMARK  Name = 
REMARK  9 active torsions:
REMARK  status: ('A' for Active; 'I' for Inactive)
REMARK    1  A    between atoms: C_1  and  O_2
REMARK    2  A    between atoms: O_2  and  C_3
REMARK    3  A    between atoms: N_10  and  C_11
REMARK    4  A    between atoms: C_11  and  C_12
REMARK    5  A    between atoms: C_15  and  C_16
REMARK    6  A    between atoms: C_16  and  C_17
REMARK    7  A    between atoms: C_17  and  N_18
REMARK    8  A    between atoms: N_18  and  C_19
REMARK    9  A    between atoms: N_18  and  C_20
REMARK                            x       y       z     vdW  Elec       q    Type
REMARK                         _______ _______ _______ _____ _____    ______ ____
ROOT
ATOM      1  C   UNL     1      43.511   5.758  11.039  0.00  0.00    +0.000 C 
ENDROOT
BRANCH   1   9
ATOM      2  C   UNL     1      46.148   2.511   7.844  0.00  0.00    +0.000 A 
ATOM      3  C   UNL     1      46.212   3.902   7.870  0.00  0.00    +0.000 A 
ATOM      4  C   UNL     1      45.518   4.642   8.839  0.00  0.00    +0.000 A 
ATOM      5  C   UNL     1      44.757   3.946   9.792  0.00  0.00    +0.000 A 
ATOM      6  C   UNL     1      44.681   2.549   9.784  0.00  0.00    +0.000 A 
ATOM      7  C   UNL     1      43.840   2.161  10.860  0.00  0.00    +0.000 A 
ATOM      8  C   UNL     1      43.407   3.305  11.486  0.00  0.00    +0.000 A 
ATOM      9  N   UNL     1      43.948   4.385  10.826  0.00  0.00    +0.000 N 
ATOM     10  C   UNL     1      45.372   1.830   8.787  0.00  0.00    +0.000 A 
BRANCH   2  12
ATOM     11  C   UNL     1      47.993   2.196   6.400  0.00  0.00    +0.000 C 
ATOM     12  O   UNL     1      46.761   1.710   6.917  0.00  0.00    +0.000 OA
ENDBRANCH   2  12
ENDBRANCH   1   9
BRANCH   1  13
ATOM     13  C   UNL     1      44.487   6.623  11.784  0.00  0.00    +0.000 A 
ATOM     14  C   UNL     1      44.661   7.977  11.484  0.00  0.00    +0.000 A 
ATOM     15  C   UNL     1      45.726   8.683  12.046  0.00  0.00    +0.000 A 
ATOM     16  C   UNL     1      46.593   8.018  12.907  0.00  0.00    +0.000 A 
ATOM     17  N   UNL     1      46.397   6.728  13.271  0.00  0.00    +0.000 NA
ATOM     18  C   UNL     1      45.353   6.071  12.719  0.00  0.00    +0.000 A 
BRANCH  16  19
ATOM     19  C   UNL     1      47.872   8.667  13.378  0.00  0.00    +0.000 C 
BRANCH  19  20
ATOM     20  C   UNL     1      48.783   7.609  14.031  0.00  0.00    +0.000 C 
BRANCH  20  21
ATOM     21  N   UNL     1      49.171   7.891  15.430  0.00  0.00    +0.000 NA
ATOM     22  C   UNL     1      48.363   8.965  16.012  0.00  0.00    +0.000 C 
ATOM     23  C   UNL     1      49.005   6.674  16.237  0.00  0.00    +0.000 C 
ENDBRANCH  20  21
ENDBRANCH  19  20
ENDBRANCH  16  19
ENDBRANCH   1  13
TORSDOF 6
ENDMDL
MODEL 3
REMARK VINA RESULT:    -6.345      1.765      2.399
REMARK INTER + INTRA:          -9.232
REMARK INTER:                  -8.483
REMARK INTRA:                  -0.749
REMARK UNBOUND:                -0.661
REMARK  Name = 
REMARK  9 active torsions:
REMARK  status: ('A' for Active; 'I' for Inactive)
REMARK    1  A    between atoms: C_1  and  O_2
REMARK    2  A    between atoms: O_2  and  C_3
REMARK    3  A    between atoms: N_10  and  C_11
REMARK    4  A    between atoms: C_11  and  C_12
REMARK    5  A    between atoms: C_15  and  C_16
REMARK    6  A    between atoms: C_16  and  C_17
REMARK    7  A    between atoms: C_17  and  N_18
REMARK    8  A    between atoms: N_18  and  C_19
REMARK    9  A    between atoms: N_18  and  C_20
REMARK                            x       y       z     vdW  Elec       q    Type
REMARK                         _______ _______ _______ _____ _____    ______ ____
ROOT
ATOM      1  C   UNL     1      43.911   6.219  11.570  0.00  0.00    +0.000 C 
ENDROOT
BRANCH   1   9
ATOM      2  C   UNL     1      45.883   2.950   7.948  0.00  0.00    +0.000 A 
ATOM      3  C   UNL     1      46.142   4.311   8.083  0.00  0.00    +0.000 A 
ATOM      4  C   UNL     1      45.615   5.048   9.154  0.00  0.00    +0.000 A 
ATOM      5  C   UNL     1      44.819   4.377  10.097  0.00  0.00    +0.000 A 
ATOM      6  C   UNL     1      44.548   3.009   9.980  0.00  0.00    +0.000 A 
ATOM      7  C   UNL     1      43.723   2.642  11.076  0.00  0.00    +0.000 A 
ATOM      8  C   UNL     1      43.490   3.773  11.822  0.00  0.00    +0.000 A 
ATOM      9  N   UNL     1      44.139   4.825  11.216  0.00  0.00    +0.000 N 
ATOM     10  C   UNL     1      45.074   2.297   8.884  0.00  0.00    +0.000 A 
BRANCH   2  12
ATOM     11  C   UNL     1      47.108   1.035   7.297  0.00  0.00    +0.000 C 
ATOM     12  O   UNL     1      46.324   2.160   6.919  0.00  0.00    +0.000 OA
ENDBRANCH   2  12
ENDBRANCH   1   9
BRANCH   1  13
ATOM     13  C   UNL     1      45.034   6.871  12.326  0.00  0.00    +0.000 A 
ATOM     14  C   UNL     1      45.195   8.259  12.369  0.00  0.00    +0.000 A 
ATOM     15  C   UNL     1      46.367   8.808  12.893  0.00  0.00    +0.000 A 
ATOM     16  C   UNL     1      47.354   7.951  13.371  0.00  0.00    +0.000 A 
ATOM     17  N   UNL     1      47.185   6.608  13.410  0.00  0.00    +0.000 NA
ATOM     18  C   UNL     1      46.037   6.104  12.905  0.00  0.00    +0.000 A 
BRANCH  16  19
ATOM     19  C   UNL     1      48.718   8.474  13.754  0.00  0.00    +0.000 C 
BRANCH  19  20
ATOM     20  C   UNL     1      49.799   7.771  12.910  0.00  0.00    +0.000 C 
BRANCH  20  21
ATOM     21  N   UNL     1      49.978   8.309  11.543  0.00  0.00    +0.000 NA
ATOM     22  C   UNL     1      49.971   9.774  11.531  0.00  0.00    +0.000 C 
ATOM     23  C   UNL     1      51.254   7.830  10.993  0.00  0.00    +0.000 C 
ENDBRANCH  20  21
ENDBRANCH  19  20
ENDBRANCH  16  19
ENDBRANCH   1  13
TORSDOF 6
ENDMDL
MODEL 4
REMARK VINA RESULT:    -6.148      3.162      7.273
REMARK INTER + INTRA:          -8.965
REMARK INTER:                  -8.389
REMARK INTRA:                  -0.577
REMARK UNBOUND:                -0.661
REMARK  Name = 
REMARK  9 active torsions:
REMARK  status: ('A' for Active; 'I' for Inactive)
REMARK    1  A    between atoms: C_1  and  O_2
REMARK    2  A    between atoms: O_2  and  C_3
REMARK    3  A    between atoms: N_10  and  C_11
REMARK    4  A    between atoms: C_11  and  C_12
REMARK    5  A    between atoms: C_15  and  C_16
REMARK    6  A    between atoms: C_16  and  C_17
REMARK    7  A    between atoms: C_17  and  N_18
REMARK    8  A    between atoms: N_18  and  C_19
REMARK    9  A    between atoms: N_18  and  C_20
REMARK                            x       y       z     vdW  Elec       q    Type
REMARK                         _______ _______ _______ _____ _____    ______ ____
ROOT
ATOM      1  C   UNL     1      45.372   6.425  12.890  0.00  0.00    +0.000 C 
ENDROOT
BRANCH   1   9
ATOM      2  C   UNL     1      49.851   8.965  11.800  0.00  0.00    +0.000 A 
ATOM      3  C   UNL     1      49.679   7.592  11.960  0.00  0.00    +0.000 A 
ATOM      4  C   UNL     1      48.406   7.039  12.162  0.00  0.00    +0.000 A 
ATOM      5  C   UNL     1      47.300   7.904  12.194  0.00  0.00    +0.000 A 
ATOM      6  C   UNL     1      47.451   9.286  12.033  0.00  0.00    +0.000 A 
ATOM      7  C   UNL     1      46.159   9.869  12.119  0.00  0.00    +0.000 A 
ATOM      8  C   UNL     1      45.257   8.857  12.346  0.00  0.00    +0.000 A 
ATOM      9  N   UNL     1      45.953   7.671  12.409  0.00  0.00    +0.000 N 
ATOM     10  C   UNL     1      48.743   9.818  11.852  0.00  0.00    +0.000 A 
BRANCH   2  12
ATOM     11  C   UNL     1      52.203   8.759  11.685  0.00  0.00    +0.000 C 
ATOM     12  O   UNL     1      51.055   9.596  11.634  0.00  0.00    +0.000 OA
ENDBRANCH   2  12
ENDBRANCH   1   9
BRANCH   1  13
ATOM     13  C   UNL     1      45.040   5.428  11.817  0.00  0.00    +0.000 A 
ATOM     14  C   UNL     1      44.501   4.172  12.109  0.00  0.00    +0.000 A 
ATOM     15  C   UNL     1      44.414   3.201  11.109  0.00  0.00    +0.000 A 
ATOM     16  C   UNL     1      44.864   3.513   9.831  0.00  0.00    +0.000 A 
ATOM     17  N   UNL     1      45.317   4.748   9.508  0.00  0.00    +0.000 NA
ATOM     18  C   UNL     1      45.381   5.671  10.493  0.00  0.00    +0.000 A 
BRANCH  16  19
ATOM     19  C   UNL     1      44.989   2.447   8.768  0.00  0.00    +0.000 C 
BRANCH  19  20
ATOM     20  C   UNL     1      45.970   2.916   7.675  0.00  0.00    +0.000 C 
BRANCH  20  21
ATOM     21  N   UNL     1      47.155   2.050   7.481  0.00  0.00    +0.000 NA
ATOM     22  C   UNL     1      46.824   0.632   7.644  0.00  0.00    +0.000 C 
ATOM     23  C   UNL     1      47.700   2.265   6.134  0.00  0.00    +0.000 C 
ENDBRANCH  20  21
ENDBRANCH  19  20
ENDBRANCH  16  19
ENDBRANCH   1  13
TORSDOF 6
ENDMDL
MODEL 5
REMARK VINA RESULT:    -6.101      2.924      7.228
REMARK INTER + INTRA:          -8.901
REMARK INTER:                  -8.134
REMARK INTRA:                  -0.767
REMARK UNBOUND:                -0.661
REMARK  Name = 
REMARK  9 active torsions:
REMARK  status: ('A' for Active; 'I' for Inactive)
REMARK    1  A    between atoms: C_1  and  O_2
REMARK    2  A    between atoms: O_2  and  C_3
REMARK    3  A    between atoms: N_10  and  C_11
REMARK    4  A    between atoms: C_11  and  C_12
REMARK    5  A    between atoms: C_15  and  C_16
REMARK    6  A    between atoms: C_16  and  C_17
REMARK    7  A    between atoms: C_17  and  N_18
REMARK    8  A    between atoms: N_18  and  C_19
REMARK    9  A    between atoms: N_18  and  C_20
REMARK                            x       y       z     vdW  Elec       q    Type
REMARK                         _______ _______ _______ _____ _____    ______ ____
ROOT
ATOM      1  C   UNL     1      44.325   5.527  12.938  0.00  0.00    +0.000 C 
ENDROOT
BRANCH   1   9
ATOM      2  C   UNL     1      47.594   9.609  12.346  0.00  0.00    +0.000 A 
ATOM      3  C   UNL     1      46.212   9.604  12.169  0.00  0.00    +0.000 A 
ATOM      4  C   UNL     1      45.449   8.461  12.448  0.00  0.00    +0.000 A 
ATOM      5  C   UNL     1      46.111   7.316  12.919  0.00  0.00    +0.000 A 
ATOM      6  C   UNL     1      47.498   7.301  13.107  0.00  0.00    +0.000 A 
ATOM      7  C   UNL     1      47.850   6.010  13.582  0.00  0.00    +0.000 A 
ATOM      8  C   UNL     1      46.699   5.263  13.658  0.00  0.00    +0.000 A 
ATOM      9  N   UNL     1      45.651   6.050  13.239  0.00  0.00    +0.000 N 
ATOM     10  C   UNL     1      48.244   8.457  12.800  0.00  0.00    +0.000 A 
BRANCH   2  12
ATOM     11  C   UNL     1      49.788  10.486  12.418  0.00  0.00    +0.000 C 
ATOM     12  O   UNL     1      48.421  10.664  12.067  0.00  0.00    +0.000 OA
ENDBRANCH   2  12
ENDBRANCH   1   9
BRANCH   1  13
ATOM     13  C   UNL     1      44.240   4.708  11.682  0.00  0.00    +0.000 A 
ATOM     14  C   UNL     1      44.116   3.316  11.708  0.00  0.00    +0.000 A 
ATOM     15  C   UNL     1      44.261   2.581  10.530  0.00  0.00    +0.000 A 
ATOM     16  C   UNL     1      44.522   3.260   9.344  0.00  0.00    +0.000 A 
ATOM     17  N   UNL     1      44.569   4.613   9.283  0.00  0.00    +0.000 NA
ATOM     18  C   UNL     1      44.414   5.299  10.437  0.00  0.00    +0.000 A 
BRANCH  16  19
ATOM     19  C   UNL     1      44.893   2.513   8.085  0.00  0.00    +0.000 C 
BRANCH  19  20
ATOM     20  C   UNL     1      46.179   3.115   7.484  0.00  0.00    +0.000 C 
BRANCH  20  21
ATOM     21  N   UNL     1      47.295   2.161   7.304  0.00  0.00    +0.000 NA
ATOM     22  C   UNL     1      46.879   0.782   7.571  0.00  0.00    +0.000 C 
ATOM     23  C   UNL     1      47.799   2.253   5.927  0.00  0.00    +0.000 C 
ENDBRANCH  20  21
ENDBRANCH  19  20
ENDBRANCH  16  19
ENDBRANCH   1  13
TORSDOF 6
ENDMDL
MODEL 6
REMARK VINA RESULT:    -5.704      3.981      8.850
REMARK INTER + INTRA:          -8.365
REMARK INTER:                  -7.680
REMARK INTRA:                  -0.685
REMARK UNBOUND:                -0.661
REMARK  Name = 
REMARK  9 active torsions:
REMARK  status: ('A' for Active; 'I' for Inactive)
REMARK    1  A    between atoms: C_1  and  O_2
REMARK    2  A    between atoms: O_2  and  C_3
REMARK    3  A    between atoms: N_10  and  C_11
REMARK    4  A    between atoms: C_11  and  C_12
REMARK    5  A    between atoms: C_15  and  C_16
REMARK    6  A    between atoms: C_16  and  C_17
REMARK    7  A    between atoms: C_17  and  N_18
REMARK    8  A    between atoms: N_18  and  C_19
REMARK    9  A    between atoms: N_18  and  C_20
REMARK                            x       y       z     vdW  Elec       q    Type
REMARK                         _______ _______ _______ _____ _____    ______ ____
ROOT
ATOM      1  C   UNL     1      48.590   5.112  17.577  0.00  0.00    +0.000 C 
ENDROOT
BRANCH   1   9
ATOM      2  C   UNL     1      52.473   1.565  17.809  0.00  0.00    +0.000 A 
ATOM      3  C   UNL     1      51.173   1.363  17.350  0.00  0.00    +0.000 A 
ATOM      4  C   UNL     1      50.261   2.424  17.261  0.00  0.00    +0.000 A 
ATOM      5  C   UNL     1      50.691   3.706  17.640  0.00  0.00    +0.000 A 
ATOM      6  C   UNL     1      51.992   3.932  18.102  0.00  0.00    +0.000 A 
ATOM      7  C   UNL     1      52.105   5.315  18.403  0.00  0.00    +0.000 A 
ATOM      8  C   UNL     1      50.888   5.900  18.145  0.00  0.00    +0.000 A 
ATOM      9  N   UNL     1      50.029   4.921  17.701  0.00  0.00    +0.000 N 
ATOM     10  C   UNL     1      52.883   2.844  18.201  0.00  0.00    +0.000 A 
BRANCH   2  12
ATOM     11  C   UNL     1      54.606   0.975  18.641  0.00  0.00    +0.000 C 
ATOM     12  O   UNL     1      53.417   0.586  17.963  0.00  0.00    +0.000 OA
ENDBRANCH   2  12
ENDBRANCH   1   9
BRANCH   1  13
ATOM     13  C   UNL     1      48.061   5.030  16.174  0.00  0.00    +0.000 A 
ATOM     14  C   UNL     1      48.309   6.027  15.226  0.00  0.00    +0.000 A 
ATOM     15  C   UNL     1      47.621   6.019  14.011  0.00  0.00    +0.000 A 
ATOM     16  C   UNL     1      46.701   5.004  13.768  0.00  0.00    +0.000 A 
ATOM     17  N   UNL     1      46.503   3.986  14.639  0.00  0.00    +0.000 NA
ATOM     18  C   UNL     1      47.190   4.014  15.803  0.00  0.00    +0.000 A 
BRANCH  16  19
ATOM     19  C   UNL     1      45.781   5.058  12.571  0.00  0.00    +0.000 C 
BRANCH  19  20
ATOM     20  C   UNL     1      44.494   5.823  12.939  0.00  0.00    +0.000 C 
BRANCH  20  21
ATOM     21  N   UNL     1      43.246   5.034  12.845  0.00  0.00    +0.000 NA
ATOM     22  C   UNL     1      42.339   5.571  11.827  0.00  0.00    +0.000 C 
ATOM     23  C   UNL     1      43.573   3.641  12.510  0.00  0.00    +0.000 C 
ENDBRANCH  20  21
ENDBRANCH  19  20
ENDBRANCH  16  19
ENDBRANCH   1  13
TORSDOF 6
ENDMDL
MODEL 7
REMARK VINA RESULT:    -5.336      3.461      8.514
REMARK INTER + INTRA:          -7.869
REMARK INTER:                  -7.063
REMARK INTRA:                  -0.806
REMARK UNBOUND:                -0.661
REMARK  Name = 
REMARK  9 active torsions:
REMARK  status: ('A' for Active; 'I' for Inactive)
REMARK    1  A    between atoms: C_1  and  O_2
REMARK    2  A    between atoms: O_2  and  C_3
REMARK    3  A    between atoms: N_10  and  C_11
REMARK    4  A    between atoms: C_11  and  C_12
REMARK    5  A    between atoms: C_15  and  C_16
REMARK    6  A    between atoms: C_16  and  C_17
REMARK    7  A    between atoms: C_17  and  N_18
REMARK    8  A    between atoms: N_18  and  C_19
REMARK    9  A    between atoms: N_18  and  C_20
REMARK                            x       y       z     vdW  Elec       q    Type
REMARK                         _______ _______ _______ _____ _____    ______ ____
ROOT
ATOM      1  C   UNL     1      48.591   6.509  13.496  0.00  0.00    +0.000 C 
ENDROOT
BRANCH   1   9
ATOM      2  C   UNL     1      48.668   6.821  18.749  0.00  0.00    +0.000 A 
ATOM      3  C   UNL     1      48.917   5.695  17.969  0.00  0.00    +0.000 A 
ATOM      4  C   UNL     1      48.950   5.774  16.569  0.00  0.00    +0.000 A 
ATOM      5  C   UNL     1      48.732   7.024  15.967  0.00  0.00    +0.000 A 
ATOM      6  C   UNL     1      48.482   8.168  16.732  0.00  0.00    +0.000 A 
ATOM      7  C   UNL     1      48.302   9.252  15.833  0.00  0.00    +0.000 A 
ATOM      8  C   UNL     1      48.423   8.761  14.555  0.00  0.00    +0.000 A 
ATOM      9  N   UNL     1      48.664   7.408  14.639  0.00  0.00    +0.000 N 
ATOM     10  C   UNL     1      48.434   8.057  18.137  0.00  0.00    +0.000 A 
BRANCH   2  12
ATOM     11  C   UNL     1      47.460   6.155  20.669  0.00  0.00    +0.000 C 
ATOM     12  O   UNL     1      48.582   6.832  20.116  0.00  0.00    +0.000 OA
ENDBRANCH   2  12
ENDBRANCH   1   9
BRANCH   1  13
ATOM     13  C   UNL     1      47.199   6.170  13.047  0.00  0.00    +0.000 A 
ATOM     14  C   UNL     1      46.432   5.186  13.677  0.00  0.00    +0.000 A 
ATOM     15  C   UNL     1      45.239   4.753  13.095  0.00  0.00    +0.000 A 
ATOM     16  C   UNL     1      44.833   5.324  11.893  0.00  0.00    +0.000 A 
ATOM     17  N   UNL     1      45.521   6.333  11.306  0.00  0.00    +0.000 NA
ATOM     18  C   UNL     1      46.667   6.738  11.896  0.00  0.00    +0.000 A 
BRANCH  16  19
ATOM     19  C   UNL     1      43.670   4.755  11.115  0.00  0.00    +0.000 C 
BRANCH  19  20
ATOM     20  C   UNL     1      43.998   3.318  10.667  0.00  0.00    +0.000 C 
BRANCH  20  21
ATOM     21  N   UNL     1      44.993   3.211   9.577  0.00  0.00    +0.000 NA
ATOM     22  C   UNL     1      45.064   1.850   9.038  0.00  0.00    +0.000 C 
ATOM     23  C   UNL     1      44.634   4.138   8.496  0.00  0.00    +0.000 C 
ENDBRANCH  20  21
ENDBRANCH  19  20
ENDBRANCH  16  19
ENDBRANCH   1  13
TORSDOF 6
ENDMDL
MODEL 8
REMARK VINA RESULT:    -5.310      3.495      4.835
REMARK INTER + INTRA:          -7.833
REMARK INTER:                  -7.059
REMARK INTRA:                  -0.774
REMARK UNBOUND:                -0.661
REMARK  Name = 
REMARK  9 active torsions:
REMARK  status: ('A' for Active; 'I' for Inactive)
REMARK    1  A    between atoms: C_1  and  O_2
REMARK    2  A    between atoms: O_2  and  C_3
REMARK    3  A    between atoms: N_10  and  C_11
REMARK    4  A    between atoms: C_11  and  C_12
REMARK    5  A    between atoms: C_15  and  C_16
REMARK    6  A    between atoms: C_16  and  C_17
REMARK    7  A    between atoms: C_17  and  N_18
REMARK    8  A    between atoms: N_18  and  C_19
REMARK    9  A    between atoms: N_18  and  C_20
REMARK                            x       y       z     vdW  Elec       q    Type
REMARK                         _______ _______ _______ _____ _____    ______ ____
ROOT
ATOM      1  C   UNL     1      47.162   7.720  13.270  0.00  0.00    +0.000 C 
ENDROOT
BRANCH   1   9
ATOM      2  C   UNL     1      44.675   3.768  10.842  0.00  0.00    +0.000 A 
ATOM      3  C   UNL     1      44.886   5.056  10.354  0.00  0.00    +0.000 A 
ATOM      4  C   UNL     1      45.647   5.989  11.075  0.00  0.00    +0.000 A 
ATOM      5  C   UNL     1      46.200   5.592  12.303  0.00  0.00    +0.000 A 
ATOM      6  C   UNL     1      46.002   4.303  12.809  0.00  0.00    +0.000 A 
ATOM      7  C   UNL     1      46.679   4.224  14.054  0.00  0.00    +0.000 A 
ATOM      8  C   UNL     1      47.254   5.448  14.296  0.00  0.00    +0.000 A 
ATOM      9  N   UNL     1      46.947   6.280  13.243  0.00  0.00    +0.000 N 
ATOM     10  C   UNL     1      45.217   3.391  12.075  0.00  0.00    +0.000 A 
BRANCH   2  12
ATOM     11  C   UNL     1      44.565   2.090   9.179  0.00  0.00    +0.000 C 
ATOM     12  O   UNL     1      43.920   2.805  10.226  0.00  0.00    +0.000 OA
ENDBRANCH   2  12
ENDBRANCH   1   9
BRANCH   1  13
ATOM     13  C   UNL     1      48.283   8.207  12.396  0.00  0.00    +0.000 A 
ATOM     14  C   UNL     1      49.367   7.394  12.054  0.00  0.00    +0.000 A 
ATOM     15  C   UNL     1      50.484   7.950  11.428  0.00  0.00    +0.000 A 
ATOM     16  C   UNL     1      50.489   9.314  11.151  0.00  0.00    +0.000 A 
ATOM     17  N   UNL     1      49.419  10.104  11.404  0.00  0.00    +0.000 NA
ATOM     18  C   UNL     1      48.346   9.538  12.001  0.00  0.00    +0.000 A 
BRANCH  16  19
ATOM     19  C   UNL     1      51.742  10.005  10.670  0.00  0.00    +0.000 C 
BRANCH  19  20
ATOM     20  C   UNL     1      52.948   9.056  10.817  0.00  0.00    +0.000 C 
BRANCH  20  21
ATOM     21  N   UNL     1      53.625   8.699   9.550  0.00  0.00    +0.000 NA
ATOM     22  C   UNL     1      53.428   7.288   9.209  0.00  0.00    +0.000 C 
ATOM     23  C   UNL     1      53.097   9.535   8.463  0.00  0.00    +0.000 C 
ENDBRANCH  20  21
ENDBRANCH  19  20
ENDBRANCH  16  19
ENDBRANCH   1  13
TORSDOF 6
ENDMDL
MODEL 9
REMARK VINA RESULT:    -5.299      2.590      3.288
REMARK INTER + INTRA:          -7.818
REMARK INTER:                  -7.231
REMARK INTRA:                  -0.587
REMARK UNBOUND:                -0.661
REMARK  Name = 
REMARK  9 active torsions:
REMARK  status: ('A' for Active; 'I' for Inactive)
REMARK    1  A    between atoms: C_1  and  O_2
REMARK    2  A    between atoms: O_2  and  C_3
REMARK    3  A    between atoms: N_10  and  C_11
REMARK    4  A    between atoms: C_11  and  C_12
REMARK    5  A    between atoms: C_15  and  C_16
REMARK    6  A    between atoms: C_16  and  C_17
REMARK    7  A    between atoms: C_17  and  N_18
REMARK    8  A    between atoms: N_18  and  C_19
REMARK    9  A    between atoms: N_18  and  C_20
REMARK                            x       y       z     vdW  Elec       q    Type
REMARK                         _______ _______ _______ _____ _____    ______ ____
ROOT
ATOM      1  C   UNL     1      45.201   7.519  11.991  0.00  0.00    +0.000 C 
ENDROOT
BRANCH   1   9
ATOM      2  C   UNL     1      45.173   3.100   9.132  0.00  0.00    +0.000 A 
ATOM      3  C   UNL     1      45.566   4.369   8.716  0.00  0.00    +0.000 A 
ATOM      4  C   UNL     1      45.607   5.447   9.613  0.00  0.00    +0.000 A 
ATOM      5  C   UNL     1      45.247   5.215  10.951  0.00  0.00    +0.000 A 
ATOM      6  C   UNL     1      44.852   3.947  11.390  0.00  0.00    +0.000 A 
ATOM      7  C   UNL     1      44.554   4.048  12.774  0.00  0.00    +0.000 A 
ATOM      8  C   UNL     1      44.749   5.356  13.150  0.00  0.00    +0.000 A 
ATOM      9  N   UNL     1      45.151   6.064  12.040  0.00  0.00    +0.000 N 
ATOM     10  C   UNL     1      44.800   2.886  10.463  0.00  0.00    +0.000 A 
BRANCH   2  12
ATOM     11  C   UNL     1      46.288   1.323   8.041  0.00  0.00    +0.000 C 
ATOM     12  O   UNL     1      45.070   2.000   8.322  0.00  0.00    +0.000 OA
ENDBRANCH   2  12
ENDBRANCH   1   9
BRANCH   1  13
ATOM     13  C   UNL     1      46.576   8.107  12.121  0.00  0.00    +0.000 A 
ATOM     14  C   UNL     1      46.804   9.485  12.071  0.00  0.00    +0.000 A 
ATOM     15  C   UNL     1      48.109   9.973  11.974  0.00  0.00    +0.000 A 
ATOM     16  C   UNL     1      49.163   9.066  11.937  0.00  0.00    +0.000 A 
ATOM     17  N   UNL     1      48.970   7.731  12.063  0.00  0.00    +0.000 NA
ATOM     18  C   UNL     1      47.697   7.288  12.165  0.00  0.00    +0.000 A 
BRANCH  16  19
ATOM     19  C   UNL     1      50.569   9.520  11.626  0.00  0.00    +0.000 C 
BRANCH  19  20
ATOM     20  C   UNL     1      51.579   8.482  12.153  0.00  0.00    +0.000 C 
BRANCH  20  21
ATOM     21  N   UNL     1      52.634   8.088  11.194  0.00  0.00    +0.000 NA
ATOM     22  C   UNL     1      52.501   8.797   9.919  0.00  0.00    +0.000 C 
ATOM     23  C   UNL     1      53.953   8.382  11.771  0.00  0.00    +0.000 C 
ENDBRANCH  20  21
ENDBRANCH  19  20
ENDBRANCH  16  19
ENDBRANCH   1  13
TORSDOF 6
ENDMDL
