MODEL 1
REMARK VINA RESULT:    -7.208      0.000      0.000
REMARK INTER + INTRA:          -9.370
REMARK INTER:                  -8.894
REMARK INTRA:                  -0.477
REMARK UNBOUND:                -0.477
REMARK  Name = 
REMARK  4 active torsions:
REMARK  status: ('A' for Active; 'I' for Inactive)
REMARK    1  A    between atoms: C_2  and  C_3
REMARK    2  A    between atoms: C_6  and  N_7
REMARK    3  A    between atoms: N_7  and  C_8
REMARK    4  A    between atoms: C_8  and  C_9
REMARK                            x       y       z     vdW  Elec       q    Type
REMARK                         _______ _______ _______ _____ _____    ______ ____
ROOT
ATOM      1  N   UNL     1      43.784   4.008  10.336  0.00  0.00    +0.000 N 
ATOM      2  H   UNL     1      43.592   3.364  11.103  0.00  0.00    +0.000 HD
ENDROOT
BRANCH   1   6
ATOM      3  C   UNL     1      46.547   2.469   7.545  0.00  0.00    +0.000 A 
ATOM      4  C   UNL     1      45.877   1.586   8.398  0.00  0.00    +0.000 A 
ATOM      5  C   UNL     1      44.945   2.073   9.326  0.00  0.00    +0.000 A 
ATOM      6  C   UNL     1      44.688   3.442   9.431  0.00  0.00    +0.000 A 
ATOM      7  C   UNL     1      45.314   4.304   8.522  0.00  0.00    +0.000 A 
ATOM      8  C   UNL     1      46.252   3.830   7.601  0.00  0.00    +0.000 A 
BRANCH   3  10
ATOM      9  N   UNL     1      48.324   1.582   5.874  0.00  0.00    +0.000 NA
ATOM     10  C   UNL     1      47.533   1.980   6.622  0.00  0.00    +0.000 C 
ENDBRANCH   3  10
ENDBRANCH   1   6
BRANCH   1  11
ATOM     11  C   UNL     1      44.041   5.361  10.822  0.00  0.00    +0.000 C 
BRANCH  11  12
ATOM     12  C   UNL     1      45.093   5.359  11.902  0.00  0.00    +0.000 A 
ATOM     13  C   UNL     1      46.255   6.138  11.842  0.00  0.00    +0.000 A 
ATOM     14  C   UNL     1      47.216   6.036  12.846  0.00  0.00    +0.000 A 
ATOM     15  C   UNL     1      46.994   5.140  13.876  0.00  0.00    +0.000 A 
ATOM     16  N   UNL     1      45.901   4.353  13.962  0.00  0.00    +0.000 NA
ATOM     17  C   UNL     1      44.985   4.476  12.972  0.00  0.00    +0.000 A 
ENDBRANCH  11  12
ENDBRANCH   1  11
TORSDOF 4
ENDMDL
MODEL 2
REMARK VINA RESULT:    -6.892      1.342      5.918
REMARK INTER + INTRA:          -8.980
REMARK INTER:                  -8.641
REMARK INTRA:                  -0.340
REMARK UNBOUND:                -0.477
REMARK  Name = 
REMARK  4 active torsions:
REMARK  status: ('A' for Active; 'I' for Inactive)
REMARK    1  A    between atoms: C_2  and  C_3
REMARK    2  A    between atoms: C_6  and  N_7
REMARK    3  A    between atoms: N_7  and  C_8
REMARK    4  A    between atoms: C_8  and  C_9
REMARK                            x       y       z     vdW  Elec       q    Type
REMARK                         _______ _______ _______ _____ _____    ______ ____
ROOT
ATOM      1  N   UNL     1      44.987   5.135   9.458  0.00  0.00    +0.000 N 
ATOM      2  H   UNL     1      45.691   5.587   8.875  0.00  0.00    +0.000 HD
ENDROOT
BRANCH   1   6
ATOM      3  C   UNL     1      46.265   4.632  13.447  0.00  0.00    +0.000 A 
ATOM      4  C   UNL     1      46.632   5.791  12.756  0.00  0.00    +0.000 A 
ATOM      5  C   UNL     1      46.209   5.987  11.433  0.00  0.00    +0.000 A 
ATOM      6  C   UNL     1      45.438   5.022  10.778  0.00  0.00    +0.000 A 
ATOM      7  C   UNL     1      45.021   3.902  11.507  0.00  0.00    +0.000 A 
ATOM      8  C   UNL     1      45.447   3.693  12.822  0.00  0.00    +0.000 A 
BRANCH   3  10
ATOM      9  N   UNL     1      47.113   4.228  15.866  0.00  0.00    +0.000 NA
ATOM     10  C   UNL     1      46.731   4.408  14.787  0.00  0.00    +0.000 C 
ENDBRANCH   3  10
ENDBRANCH   1   6
BRANCH   1  11
ATOM     11  C   UNL     1      44.430   3.952   8.809  0.00  0.00    +0.000 C 
BRANCH  11  12
ATOM     12  C   UNL     1      45.521   3.084   8.235  0.00  0.00    +0.000 A 
ATOM     13  C   UNL     1      46.432   3.534   7.271  0.00  0.00    +0.000 A 
ATOM     14  C   UNL     1      47.374   2.656   6.738  0.00  0.00    +0.000 A 
ATOM     15  C   UNL     1      47.365   1.342   7.173  0.00  0.00    +0.000 A 
ATOM     16  N   UNL     1      46.491   0.861   8.082  0.00  0.00    +0.000 NA
ATOM     17  C   UNL     1      45.590   1.739   8.583  0.00  0.00    +0.000 A 
ENDBRANCH  11  12
ENDBRANCH   1  11
TORSDOF 4
ENDMDL
MODEL 3
REMARK VINA RESULT:    -6.648      1.482      5.657
REMARK INTER + INTRA:          -8.679
REMARK INTER:                  -8.271
REMARK INTRA:                  -0.408
REMARK UNBOUND:                -0.477
REMARK  Name = 
REMARK  4 active torsions:
REMARK  status: ('A' for Active; 'I' for Inactive)
REMARK    1  A    between atoms: C_2  and  C_3
REMARK    2  A    between atoms: C_6  and  N_7
REMARK    3  A    between atoms: N_7  and  C_8
REMARK    4  A    between atoms: C_8  and  C_9
REMARK                            x       y       z     vdW  Elec       q    Type
REMARK                         _______ _______ _______ _____ _____    ______ ____
ROOT
ATOM      1  N   UNL     1      44.033   4.125  10.229  0.00  0.00    +0.000 N 
ATOM      2  H   UNL     1      43.103   4.478  10.456  0.00  0.00    +0.000 HD
ENDROOT
BRANCH   1   6
ATOM      3  C   UNL     1      46.856   5.469  13.062  0.00  0.00    +0.000 A 
ATOM      4  C   UNL     1      46.244   4.225  13.247  0.00  0.00    +0.000 A 
ATOM      5  C   UNL     1      45.312   3.751  12.313  0.00  0.00    +0.000 A 
ATOM      6  C   UNL     1      44.961   4.520  11.199  0.00  0.00    +0.000 A 
ATOM      7  C   UNL     1      45.634   5.730  10.992  0.00  0.00    +0.000 A 
ATOM      8  C   UNL     1      46.556   6.215  11.924  0.00  0.00    +0.000 A 
BRANCH   3  10
ATOM      9  N   UNL     1      48.523   6.393  14.823  0.00  0.00    +0.000 NA
ATOM     10  C   UNL     1      47.779   5.977  14.037  0.00  0.00    +0.000 C 
ENDBRANCH   3  10
ENDBRANCH   1   6
BRANCH   1  11
ATOM     11  C   UNL     1      44.361   4.342   8.823  0.00  0.00    +0.000 C 
BRANCH  11  12
ATOM     12  C   UNL     1      45.354   3.318   8.334  0.00  0.00    +0.000 A 
ATOM     13  C   UNL     1      46.338   3.600   7.379  0.00  0.00    +0.000 A 
ATOM     14  C   UNL     1      47.182   2.587   6.926  0.00  0.00    +0.000 A 
ATOM     15  C   UNL     1      47.002   1.311   7.431  0.00  0.00    +0.000 A 
ATOM     16  N   UNL     1      46.052   0.990   8.334  0.00  0.00    +0.000 NA
ATOM     17  C   UNL     1      45.251   1.997   8.756  0.00  0.00    +0.000 A 
ENDBRANCH  11  12
ENDBRANCH   1  11
TORSDOF 4
ENDMDL
MODEL 4
REMARK VINA RESULT:    -6.562      1.586      6.041
REMARK INTER + INTRA:          -8.573
REMARK INTER:                  -8.205
REMARK INTRA:                  -0.368
REMARK UNBOUND:                -0.477
REMARK  Name = 
REMARK  4 active torsions:
REMARK  status: ('A' for Active; 'I' for Inactive)
REMARK    1  A    between atoms: C_2  and  C_3
REMARK    2  A    between atoms: C_6  and  N_7
REMARK    3  A    between atoms: N_7  and  C_8
REMARK    4  A    between atoms: C_8  and  C_9
REMARK                            x       y       z     vdW  Elec       q    Type
REMARK                         _______ _______ _______ _____ _____    ______ ____
ROOT
ATOM      1  N   UNL     1      44.918   2.545  10.528  0.00  0.00    +0.000 N 
ATOM      2  H   UNL     1      44.321   2.002  11.150  0.00  0.00    +0.000 HD
ENDROOT
BRANCH   1   6
ATOM      3  C   UNL     1      45.731   6.285  12.304  0.00  0.00    +0.000 A 
ATOM      4  C   UNL     1      45.260   6.244  10.987  0.00  0.00    +0.000 A 
ATOM      5  C   UNL     1      44.971   5.013  10.379  0.00  0.00    +0.000 A 
ATOM      6  C   UNL     1      45.170   3.812  11.066  0.00  0.00    +0.000 A 
ATOM      7  C   UNL     1      45.574   3.874  12.405  0.00  0.00    +0.000 A 
ATOM      8  C   UNL     1      45.875   5.096  13.015  0.00  0.00    +0.000 A 
BRANCH   3  10
ATOM      9  N   UNL     1      46.343   8.554  13.404  0.00  0.00    +0.000 NA
ATOM     10  C   UNL     1      46.068   7.539  12.915  0.00  0.00    +0.000 C 
ENDBRANCH   3  10
ENDBRANCH   1   6
BRANCH   1  11
ATOM     11  C   UNL     1      44.473   2.455   9.140  0.00  0.00    +0.000 C 
BRANCH  11  12
ATOM     12  C   UNL     1      45.647   2.366   8.198  0.00  0.00    +0.000 A 
ATOM     13  C   UNL     1      46.016   3.402   7.332  0.00  0.00    +0.000 A 
ATOM     14  C   UNL     1      47.074   3.224   6.442  0.00  0.00    +0.000 A 
ATOM     15  C   UNL     1      47.722   2.002   6.432  0.00  0.00    +0.000 A 
ATOM     16  N   UNL     1      47.385   0.969   7.232  0.00  0.00    +0.000 NA
ATOM     17  C   UNL     1      46.355   1.173   8.086  0.00  0.00    +0.000 A 
ENDBRANCH  11  12
ENDBRANCH   1  11
TORSDOF 4
ENDMDL
MODEL 5
REMARK VINA RESULT:    -5.830      1.649      5.841
REMARK INTER + INTRA:          -7.670
REMARK INTER:                  -7.172
REMARK INTRA:                  -0.498
REMARK UNBOUND:                -0.477
REMARK  Name = 
REMARK  4 active torsions:
REMARK  status: ('A' for Active; 'I' for Inactive)
REMARK    1  A    between atoms: C_2  and  C_3
REMARK    2  A    between atoms: C_6  and  N_7
REMARK    3  A    between atoms: N_7  and  C_8
REMARK    4  A    between atoms: C_8  and  C_9
REMARK                            x       y       z     vdW  Elec       q    Type
REMARK                         _______ _______ _______ _____ _____    ______ ____
ROOT
ATOM      1  N   UNL     1      44.035   4.390  11.615  0.00  0.00    +0.000 N 
ATOM      2  H   UNL     1      43.225   4.555  12.212  0.00  0.00    +0.000 HD
ENDROOT
BRANCH   1   6
ATOM      3  C   UNL     1      47.496   6.081  13.335  0.00  0.00    +0.000 A 
ATOM      4  C   UNL     1      46.810   6.793  12.345  0.00  0.00    +0.000 A 
ATOM      5  C   UNL     1      45.650   6.256  11.767  0.00  0.00    +0.000 A 
ATOM      6  C   UNL     1      45.175   4.999  12.151  0.00  0.00    +0.000 A 
ATOM      7  C   UNL     1      45.833   4.332  13.191  0.00  0.00    +0.000 A 
ATOM      8  C   UNL     1      46.997   4.854  13.765  0.00  0.00    +0.000 A 
BRANCH   3  10
ATOM      9  N   UNL     1      49.689   7.025  14.352  0.00  0.00    +0.000 NA
ATOM     10  C   UNL     1      48.708   6.606  13.899  0.00  0.00    +0.000 C 
ENDBRANCH   3  10
ENDBRANCH   1   6
BRANCH   1  11
ATOM     11  C   UNL     1      43.721   4.617  10.208  0.00  0.00    +0.000 C 
BRANCH  11  12
ATOM     12  C   UNL     1      44.635   3.818   9.312  0.00  0.00    +0.000 A 
ATOM     13  C   UNL     1      44.809   2.434   9.432  0.00  0.00    +0.000 A 
ATOM     14  C   UNL     1      45.719   1.772   8.611  0.00  0.00    +0.000 A 
ATOM     15  C   UNL     1      46.446   2.520   7.702  0.00  0.00    +0.000 A 
ATOM     16  N   UNL     1      46.328   3.858   7.569  0.00  0.00    +0.000 NA
ATOM     17  C   UNL     1      45.433   4.472   8.379  0.00  0.00    +0.000 A 
ENDBRANCH  11  12
ENDBRANCH   1  11
TORSDOF 4
ENDMDL
MODEL 6
REMARK VINA RESULT:    -5.529      2.478      5.422
REMARK INTER + INTRA:          -7.299
REMARK INTER:                  -6.786
REMARK INTRA:                  -0.512
REMARK UNBOUND:                -0.477
REMARK  Name = 
REMARK  4 active torsions:
REMARK  status: ('A' for Active; 'I' for Inactive)
REMARK    1  A    between atoms: C_2  and  C_3
REMARK    2  A    between atoms: C_6  and  N_7
REMARK    3  A    between atoms: N_7  and  C_8
REMARK    4  A    between atoms: C_8  and  C_9
REMARK                            x       y       z     vdW  Elec       q    Type
REMARK                         _______ _______ _______ _____ _____    ______ ____
ROOT
ATOM      1  N   UNL     1      43.519   5.793  13.096  0.00  0.00    +0.000 N 
ATOM      2  H   UNL     1      43.041   6.408  13.754  0.00  0.00    +0.000 HD
ENDROOT
BRANCH   1   6
ATOM      3  C   UNL     1      47.510   6.989  12.437  0.00  0.00    +0.000 A 
ATOM      4  C   UNL     1      46.472   7.864  12.099  0.00  0.00    +0.000 A 
ATOM      5  C   UNL     1      45.138   7.494  12.319  0.00  0.00    +0.000 A 
ATOM      6  C   UNL     1      44.822   6.242  12.856  0.00  0.00    +0.000 A 
ATOM      7  C   UNL     1      45.874   5.408  13.255  0.00  0.00    +0.000 A 
ATOM      8  C   UNL     1      47.207   5.764  13.028  0.00  0.00    +0.000 A 
BRANCH   3  10
ATOM      9  N   UNL     1      49.980   7.634  11.968  0.00  0.00    +0.000 NA
ATOM     10  C   UNL     1      48.876   7.346  12.174  0.00  0.00    +0.000 C 
ENDBRANCH   3  10
ENDBRANCH   1   6
BRANCH   1  11
ATOM     11  C   UNL     1      42.672   5.472  11.950  0.00  0.00    +0.000 C 
BRANCH  11  12
ATOM     12  C   UNL     1      43.359   4.501  11.023  0.00  0.00    +0.000 A 
ATOM     13  C   UNL     1      43.946   4.882   9.811  0.00  0.00    +0.000 A 
ATOM     14  C   UNL     1      44.506   3.918   8.974  0.00  0.00    +0.000 A 
ATOM     15  C   UNL     1      44.446   2.593   9.368  0.00  0.00    +0.000 A 
ATOM     16  N   UNL     1      43.870   2.179  10.516  0.00  0.00    +0.000 NA
ATOM     17  C   UNL     1      43.336   3.139  11.308  0.00  0.00    +0.000 A 
ENDBRANCH  11  12
ENDBRANCH   1  11
TORSDOF 4
ENDMDL
MODEL 7
REMARK VINA RESULT:    -5.198      3.122      5.729
REMARK INTER + INTRA:          -6.890
REMARK INTER:                  -6.546
REMARK INTRA:                  -0.344
REMARK UNBOUND:                -0.477
REMARK  Name = 
REMARK  4 active torsions:
REMARK  status: ('A' for Active; 'I' for Inactive)
REMARK    1  A    between atoms: C_2  and  C_3
REMARK    2  A    between atoms: C_6  and  N_7
REMARK    3  A    between atoms: N_7  and  C_8
REMARK    4  A    between atoms: C_8  and  C_9
REMARK                            x       y       z     vdW  Elec       q    Type
REMARK                         _______ _______ _______ _____ _____    ______ ____
ROOT
ATOM      1  N   UNL     1      47.462   5.374  15.189  0.00  0.00    +0.000 N 
ATOM      2  H   UNL     1      47.410   6.342  15.504  0.00  0.00    +0.000 HD
ENDROOT
BRANCH   1   6
ATOM      3  C   UNL     1      45.407   4.723  11.562  0.00  0.00    +0.000 A 
ATOM      4  C   UNL     1      45.956   5.984  11.817  0.00  0.00    +0.000 A 
ATOM      5  C   UNL     1      46.654   6.221  13.011  0.00  0.00    +0.000 A 
ATOM      6  C   UNL     1      46.793   5.215  13.971  0.00  0.00    +0.000 A 
ATOM      7  C   UNL     1      46.300   3.940  13.668  0.00  0.00    +0.000 A 
ATOM      8  C   UNL     1      45.593   3.697  12.487  0.00  0.00    +0.000 A 
BRANCH   3  10
ATOM      9  N   UNL     1      44.046   4.302   9.394  0.00  0.00    +0.000 NA
ATOM     10  C   UNL     1      44.656   4.487  10.362  0.00  0.00    +0.000 C 
ENDBRANCH   3  10
ENDBRANCH   1   6
BRANCH   1  11
ATOM     11  C   UNL     1      47.169   4.440  16.271  0.00  0.00    +0.000 C 
BRANCH  11  12
ATOM     12  C   UNL     1      48.397   3.655  16.659  0.00  0.00    +0.000 A 
ATOM     13  C   UNL     1      49.421   4.179  17.459  0.00  0.00    +0.000 A 
ATOM     14  C   UNL     1      50.557   3.417  17.723  0.00  0.00    +0.000 A 
ATOM     15  C   UNL     1      50.646   2.156  17.163  0.00  0.00    +0.000 A 
ATOM     16  N   UNL     1      49.695   1.621  16.368  0.00  0.00    +0.000 NA
ATOM     17  C   UNL     1      48.602   2.384  16.132  0.00  0.00    +0.000 A 
ENDBRANCH  11  12
ENDBRANCH   1  11
TORSDOF 4
ENDMDL
MODEL 8
REMARK VINA RESULT:    -4.939      2.819      6.338
REMARK INTER + INTRA:          -6.570
REMARK INTER:                  -6.134
REMARK INTRA:                  -0.436
REMARK UNBOUND:                -0.477
REMARK  Name = 
REMARK  4 active torsions:
REMARK  status: ('A' for Active; 'I' for Inactive)
REMARK    1  A    between atoms: C_2  and  C_3
REMARK    2  A    between atoms: C_6  and  N_7
REMARK    3  A    between atoms: N_7  and  C_8
REMARK    4  A    between atoms: C_8  and  C_9
REMARK                            x       y       z     vdW  Elec       q    Type
REMARK                         _______ _______ _______ _____ _____    ______ ____
ROOT
ATOM      1  N   UNL     1      45.494   5.347  12.313  0.00  0.00    +0.000 N 
ATOM      2  H   UNL     1      45.277   5.054  13.264  0.00  0.00    +0.000 HD
ENDROOT
BRANCH   1   6
ATOM      3  C   UNL     1      47.259   9.178  12.249  0.00  0.00    +0.000 A 
ATOM      4  C   UNL     1      45.887   9.064  12.494  0.00  0.00    +0.000 A 
ATOM      5  C   UNL     1      45.280   7.801  12.533  0.00  0.00    +0.000 A 
ATOM      6  C   UNL     1      46.026   6.641  12.304  0.00  0.00    +0.000 A 
ATOM      7  C   UNL     1      47.409   6.768  12.130  0.00  0.00    +0.000 A 
ATOM      8  C   UNL     1      48.021   8.024  12.079  0.00  0.00    +0.000 A 
BRANCH   3  10
ATOM      9  N   UNL     1      48.376  11.516  12.106  0.00  0.00    +0.000 NA
ATOM     10  C   UNL     1      47.878  10.471  12.166  0.00  0.00    +0.000 C 
ENDBRANCH   3  10
ENDBRANCH   1   6
BRANCH   1  11
ATOM     11  C   UNL     1      44.404   5.036  11.392  0.00  0.00    +0.000 C 
BRANCH  11  12
ATOM     12  C   UNL     1      44.900   4.239  10.213  0.00  0.00    +0.000 A 
ATOM     13  C   UNL     1      45.559   4.816   9.120  0.00  0.00    +0.000 A 
ATOM     14  C   UNL     1      45.932   4.025   8.034  0.00  0.00    +0.000 A 
ATOM     15  C   UNL     1      45.617   2.678   8.066  0.00  0.00    +0.000 A 
ATOM     16  N   UNL     1      44.963   2.086   9.087  0.00  0.00    +0.000 NA
ATOM     17  C   UNL     1      44.616   2.880  10.127  0.00  0.00    +0.000 A 
ENDBRANCH  11  12
ENDBRANCH   1  11
TORSDOF 4
ENDMDL
MODEL 9
REMARK VINA RESULT:    -4.935      2.574      4.418
REMARK INTER + INTRA:          -6.566
REMARK INTER:                  -6.213
REMARK INTRA:                  -0.353
REMARK UNBOUND:                -0.477
REMARK  Name = 
REMARK  4 active torsions:
REMARK  status: ('A' for Active; 'I' for Inactive)
REMARK    1  A    between atoms: C_2  and  C_3
REMARK    2  A    between atoms: C_6  and  N_7
REMARK    3  A    between atoms: N_7  and  C_8
REMARK    4  A    between atoms: C_8  and  C_9
REMARK                            x       y       z     vdW  Elec       q    Type
REMARK                         _______ _______ _______ _____ _____    ______ ____
ROOT
ATOM      1  N   UNL     1      46.173   5.512  14.043  0.00  0.00    +0.000 N 
ATOM      2  H   UNL     1      45.623   5.044  14.762  0.00  0.00    +0.000 HD
ENDROOT
BRANCH   1   6
ATOM      3  C   UNL     1      45.151   4.283  10.138  0.00  0.00    +0.000 A 
ATOM      4  C   UNL     1      44.946   3.402  11.205  0.00  0.00    +0.000 A 
ATOM      5  C   UNL     1      45.267   3.792  12.514  0.00  0.00    +0.000 A 
ATOM      6  C   UNL     1      45.816   5.052  12.771  0.00  0.00    +0.000 A 
ATOM      7  C   UNL     1      45.948   5.946  11.701  0.00  0.00    +0.000 A 
ATOM      8  C   UNL     1      45.642   5.562  10.393  0.00  0.00    +0.000 A 
BRANCH   3  10
ATOM      9  N   UNL     1      44.638   3.538   7.706  0.00  0.00    +0.000 NA
ATOM     10  C   UNL     1      44.864   3.872   8.793  0.00  0.00    +0.000 C 
ENDBRANCH   3  10
ENDBRANCH   1   6
BRANCH   1  11
ATOM     11  C   UNL     1      47.589   5.556  14.393  0.00  0.00    +0.000 C 
BRANCH  11  12
ATOM     12  C   UNL     1      47.834   4.932  15.744  0.00  0.00    +0.000 A 
ATOM     13  C   UNL     1      47.243   3.730  16.152  0.00  0.00    +0.000 A 
ATOM     14  C   UNL     1      47.464   3.245  17.440  0.00  0.00    +0.000 A 
ATOM     15  C   UNL     1      48.259   3.991  18.292  0.00  0.00    +0.000 A 
ATOM     16  N   UNL     1      48.829   5.165  17.949  0.00  0.00    +0.000 NA
ATOM     17  C   UNL     1      48.597   5.608  16.691  0.00  0.00    +0.000 A 
ENDBRANCH  11  12
ENDBRANCH   1  11
TORSDOF 4
ENDMDL
