MODEL 1
REMARK VINA RESULT:    -6.410      0.000      0.000
REMARK INTER + INTRA:          -8.419
REMARK INTER:                  -7.909
REMARK INTRA:                  -0.510
REMARK UNBOUND:                -0.510
REMARK  Name = 
REMARK  7 active torsions:
REMARK  status: ('A' for Active; 'I' for Inactive)
REMARK    1  A    between atoms: C_1  and  C_2
REMARK    2  A    between atoms: C_2  and  C_3
REMARK    3  A    between atoms: C_2  and  C_4
REMARK    4  A    between atoms: C_2  and  C_5
REMARK    5  A    between atoms: C_8  and  C_9
REMARK    6  A    between atoms: C_16  and  C_17
REMARK    7  A    between atoms: C_17  and  N_18
REMARK                            x       y       z     vdW  Elec       q    Type
REMARK                         _______ _______ _______ _____ _____    ______ ____
ROOT
ATOM      1  C   UNL     1      45.517   4.978  12.861  0.00  0.00    +0.000 A 
ATOM      2  N   UNL     1      45.845   4.178  13.980  0.00  0.00    +0.000 NA
ATOM      3  C   UNL     1      46.864   4.766  14.609  0.00  0.00    +0.000 A 
ATOM      4  C   UNL     1      47.630   4.512  15.789  0.00  0.00    +0.000 A 
ATOM      5  C   UNL     1      48.665   5.327  16.077  0.00  0.00    +0.000 A 
ATOM      6  N   UNL     1      49.097   6.386  15.298  0.00  0.00    +0.000 NA
ATOM      7  C   UNL     1      48.400   6.615  14.228  0.00  0.00    +0.000 A 
ATOM      8  N   UNL     1      47.260   5.875  13.894  0.00  0.00    +0.000 N 
ATOM      9  C   UNL     1      46.345   6.116  12.881  0.00  0.00    +0.000 A 
ENDROOT
BRANCH   4  10
ATOM     10  C   UNL     1      47.441   3.405  16.768  0.00  0.00    +0.000 C 
ATOM     11  N   UNL     1      48.503   2.587  16.964  0.00  0.00    +0.000 N 
ATOM     12  O   UNL     1      46.400   3.216  17.389  0.00  0.00    +0.000 OA
ATOM     13  H   UNL     1      49.385   2.727  16.480  0.00  0.00    +0.000 HD
ATOM     14  H   UNL     1      48.406   1.849  17.650  0.00  0.00    +0.000 HD
ENDBRANCH   4  10
BRANCH   1  16
ATOM     15  C   UNL     1      44.900   4.371  10.412  0.00  0.00    +0.000 C 
ATOM     16  C   UNL     1      44.395   4.485  11.872  0.00  0.00    +0.000 C 
ATOM     17  C   UNL     1      43.195   5.473  11.854  0.00  0.00    +0.000 C 
ATOM     18  C   UNL     1      43.785   3.104  12.208  0.00  0.00    +0.000 C 
ENDBRANCH   1  16
BRANCH   9  19
ATOM     19  C   UNL     1      46.463   7.379  12.075  0.00  0.00    +0.000 C 
BRANCH  19  20
ATOM     20  N   UNL     1      46.208   8.602  12.848  0.00  0.00    +0.000 NA
ATOM     21  C   UNL     1      44.900   9.208  12.514  0.00  0.00    +0.000 C 
ATOM     22  C   UNL     1      44.915  10.195  11.333  0.00  0.00    +0.000 C 
ATOM     23  O   UNL     1      45.850  11.251  11.551  0.00  0.00    +0.000 OA
ATOM     24  C   UNL     1      47.169  10.742  11.754  0.00  0.00    +0.000 C 
ATOM     25  C   UNL     1      47.223   9.679  12.876  0.00  0.00    +0.000 C 
ENDBRANCH  19  20
ENDBRANCH   9  19
TORSDOF 4
ENDMDL
MODEL 2
REMARK VINA RESULT:    -6.206      2.659      5.147
REMARK INTER + INTRA:          -8.168
REMARK INTER:                  -7.343
REMARK INTRA:                  -0.825
REMARK UNBOUND:                -0.510
REMARK  Name = 
REMARK  7 active torsions:
REMARK  status: ('A' for Active; 'I' for Inactive)
REMARK    1  A    between atoms: C_1  and  C_2
REMARK    2  A    between atoms: C_2  and  C_3
REMARK    3  A    between atoms: C_2  and  C_4
REMARK    4  A    between atoms: C_2  and  C_5
REMARK    5  A    between atoms: C_8  and  C_9
REMARK    6  A    between atoms: C_16  and  C_17
REMARK    7  A    between atoms: C_17  and  N_18
REMARK                            x       y       z     vdW  Elec       q    Type
REMARK                         _______ _______ _______ _____ _____    ______ ____
ROOT
ATOM      1  C   UNL     1      47.488   4.746  15.617  0.00  0.00    +0.000 A 
ATOM      2  N   UNL     1      46.541   4.016  14.862  0.00  0.00    +0.000 NA
ATOM      3  C   UNL     1      46.357   4.666  13.712  0.00  0.00    +0.000 A 
ATOM      4  C   UNL     1      45.588   4.460  12.525  0.00  0.00    +0.000 A 
ATOM      5  C   UNL     1      45.612   5.409  11.566  0.00  0.00    +0.000 A 
ATOM      6  N   UNL     1      46.291   6.613  11.640  0.00  0.00    +0.000 NA
ATOM      7  C   UNL     1      46.989   6.795  12.718  0.00  0.00    +0.000 A 
ATOM      8  N   UNL     1      47.091   5.832  13.728  0.00  0.00    +0.000 N 
ATOM      9  C   UNL     1      47.920   5.835  14.838  0.00  0.00    +0.000 A 
ENDROOT
BRANCH   4  10
ATOM     10  C   UNL     1      44.709   3.300  12.208  0.00  0.00    +0.000 C 
ATOM     11  N   UNL     1      44.911   2.701  11.010  0.00  0.00    +0.000 N 
ATOM     12  O   UNL     1      43.844   2.875  12.967  0.00  0.00    +0.000 OA
ATOM     13  H   UNL     1      45.630   3.017  10.366  0.00  0.00    +0.000 HD
ATOM     14  H   UNL     1      44.346   1.891  10.789  0.00  0.00    +0.000 HD
ENDBRANCH   4  10
BRANCH   1  16
ATOM     15  C   UNL     1      47.279   2.850  17.380  0.00  0.00    +0.000 C 
ATOM     16  C   UNL     1      47.844   4.259  17.072  0.00  0.00    +0.000 C 
ATOM     17  C   UNL     1      47.256   5.221  18.142  0.00  0.00    +0.000 C 
ATOM     18  C   UNL     1      49.357   4.175  17.383  0.00  0.00    +0.000 C 
ENDBRANCH   1  16
BRANCH   9  19
ATOM     19  C   UNL     1      48.950   6.922  14.979  0.00  0.00    +0.000 C 
BRANCH  19  20
ATOM     20  N   UNL     1      48.691   7.841  16.095  0.00  0.00    +0.000 NA
ATOM     21  C   UNL     1      48.291   9.186  15.626  0.00  0.00    +0.000 C 
ATOM     22  C   UNL     1      49.452  10.159  15.353  0.00  0.00    +0.000 C 
ATOM     23  O   UNL     1      50.279  10.320  16.506  0.00  0.00    +0.000 OA
ATOM     24  C   UNL     1      50.808   9.067  16.942  0.00  0.00    +0.000 C 
ATOM     25  C   UNL     1      49.705   8.005  17.161  0.00  0.00    +0.000 C 
ENDBRANCH  19  20
ENDBRANCH   9  19
TORSDOF 4
ENDMDL
MODEL 3
REMARK VINA RESULT:    -6.157      2.639      5.019
REMARK INTER + INTRA:          -8.106
REMARK INTER:                  -7.359
REMARK INTRA:                  -0.747
REMARK UNBOUND:                -0.510
REMARK  Name = 
REMARK  7 active torsions:
REMARK  status: ('A' for Active; 'I' for Inactive)
REMARK    1  A    between atoms: C_1  and  C_2
REMARK    2  A    between atoms: C_2  and  C_3
REMARK    3  A    between atoms: C_2  and  C_4
REMARK    4  A    between atoms: C_2  and  C_5
REMARK    5  A    between atoms: C_8  and  C_9
REMARK    6  A    between atoms: C_16  and  C_17
REMARK    7  A    between atoms: C_17  and  N_18
REMARK                            x       y       z     vdW  Elec       q    Type
REMARK                         _______ _______ _______ _____ _____    ______ ____
ROOT
ATOM      1  C   UNL     1      47.281   4.687  14.951  0.00  0.00    +0.000 A 
ATOM      2  N   UNL     1      46.394   3.892  14.188  0.00  0.00    +0.000 NA
ATOM      3  C   UNL     1      45.985   4.627  13.154  0.00  0.00    +0.000 A 
ATOM      4  C   UNL     1      45.140   4.427  12.018  0.00  0.00    +0.000 A 
ATOM      5  C   UNL     1      44.905   5.468  11.194  0.00  0.00    +0.000 A 
ATOM      6  N   UNL     1      45.378   6.757  11.368  0.00  0.00    +0.000 NA
ATOM      7  C   UNL     1      46.146   6.935  12.399  0.00  0.00    +0.000 A 
ATOM      8  N   UNL     1      46.512   5.895  13.261  0.00  0.00    +0.000 N 
ATOM      9  C   UNL     1      47.441   5.918  14.288  0.00  0.00    +0.000 A 
ENDROOT
BRANCH   4  10
ATOM     10  C   UNL     1      44.436   3.173  11.625  0.00  0.00    +0.000 C 
ATOM     11  N   UNL     1      43.878   2.456  12.630  0.00  0.00    +0.000 N 
ATOM     12  O   UNL     1      44.338   2.783  10.467  0.00  0.00    +0.000 OA
ATOM     13  H   UNL     1      43.924   2.762  13.597  0.00  0.00    +0.000 HD
ATOM     14  H   UNL     1      43.366   1.619  12.381  0.00  0.00    +0.000 HD
ENDBRANCH   4  10
BRANCH   1  16
ATOM     15  C   UNL     1      48.292   2.624  16.162  0.00  0.00    +0.000 C 
ATOM     16  C   UNL     1      47.864   4.106  16.293  0.00  0.00    +0.000 C 
ATOM     17  C   UNL     1      46.808   4.167  17.433  0.00  0.00    +0.000 C 
ATOM     18  C   UNL     1      49.105   4.848  16.844  0.00  0.00    +0.000 C 
ENDBRANCH   1  16
BRANCH   9  19
ATOM     19  C   UNL     1      48.285   7.147  14.484  0.00  0.00    +0.000 C 
BRANCH  19  20
ATOM     20  N   UNL     1      49.605   7.067  13.843  0.00  0.00    +0.000 NA
ATOM     21  C   UNL     1      50.637   7.808  14.603  0.00  0.00    +0.000 C 
ATOM     22  C   UNL     1      50.772   9.298  14.245  0.00  0.00    +0.000 C 
ATOM     23  O   UNL     1      51.033   9.478  12.853  0.00  0.00    +0.000 OA
ATOM     24  C   UNL     1      50.002   8.895  12.054  0.00  0.00    +0.000 C 
ATOM     25  C   UNL     1      49.747   7.413  12.411  0.00  0.00    +0.000 C 
ENDBRANCH  19  20
ENDBRANCH   9  19
TORSDOF 4
ENDMDL
MODEL 4
REMARK VINA RESULT:    -6.039      2.428      6.049
REMARK INTER + INTRA:          -7.961
REMARK INTER:                  -7.050
REMARK INTRA:                  -0.911
REMARK UNBOUND:                -0.510
REMARK  Name = 
REMARK  7 active torsions:
REMARK  status: ('A' for Active; 'I' for Inactive)
REMARK    1  A    between atoms: C_1  and  C_2
REMARK    2  A    between atoms: C_2  and  C_3
REMARK    3  A    between atoms: C_2  and  C_4
REMARK    4  A    between atoms: C_2  and  C_5
REMARK    5  A    between atoms: C_8  and  C_9
REMARK    6  A    between atoms: C_16  and  C_17
REMARK    7  A    between atoms: C_17  and  N_18
REMARK                            x       y       z     vdW  Elec       q    Type
REMARK                         _______ _______ _______ _____ _____    ______ ____
ROOT
ATOM      1  C   UNL     1      47.251   8.120  12.810  0.00  0.00    +0.000 A 
ATOM      2  N   UNL     1      45.971   7.827  12.284  0.00  0.00    +0.000 NA
ATOM      3  C   UNL     1      45.672   6.574  12.631  0.00  0.00    +0.000 A 
ATOM      4  C   UNL     1      44.556   5.698  12.461  0.00  0.00    +0.000 A 
ATOM      5  C   UNL     1      44.653   4.431  12.913  0.00  0.00    +0.000 A 
ATOM      6  N   UNL     1      45.773   3.869  13.502  0.00  0.00    +0.000 NA
ATOM      7  C   UNL     1      46.783   4.668  13.656  0.00  0.00    +0.000 A 
ATOM      8  N   UNL     1      46.744   6.019  13.294  0.00  0.00    +0.000 N 
ATOM      9  C   UNL     1      47.683   7.005  13.551  0.00  0.00    +0.000 A 
ENDROOT
BRANCH   4  10
ATOM     10  C   UNL     1      43.257   6.006  11.799  0.00  0.00    +0.000 C 
ATOM     11  N   UNL     1      43.187   7.181  11.128  0.00  0.00    +0.000 N 
ATOM     12  O   UNL     1      42.284   5.259  11.829  0.00  0.00    +0.000 OA
ATOM     13  H   UNL     1      43.980   7.812  11.068  0.00  0.00    +0.000 HD
ATOM     14  H   UNL     1      42.324   7.394  10.643  0.00  0.00    +0.000 HD
ENDBRANCH   4  10
BRANCH   1  16
ATOM     15  C   UNL     1      46.918  10.494  11.811  0.00  0.00    +0.000 C 
ATOM     16  C   UNL     1      47.909   9.514  12.486  0.00  0.00    +0.000 C 
ATOM     17  C   UNL     1      49.109   9.350  11.511  0.00  0.00    +0.000 C 
ATOM     18  C   UNL     1      48.474  10.273  13.709  0.00  0.00    +0.000 C 
ENDBRANCH   1  16
BRANCH   9  19
ATOM     19  C   UNL     1      48.864   6.681  14.424  0.00  0.00    +0.000 C 
BRANCH  19  20
ATOM     20  N   UNL     1      48.593   6.821  15.861  0.00  0.00    +0.000 NA
ATOM     21  C   UNL     1      49.414   7.885  16.480  0.00  0.00    +0.000 C 
ATOM     22  C   UNL     1      50.797   7.438  16.986  0.00  0.00    +0.000 C 
ATOM     23  O   UNL     1      50.688   6.363  17.919  0.00  0.00    +0.000 OA
ATOM     24  C   UNL     1      50.014   5.244  17.343  0.00  0.00    +0.000 C 
ATOM     25  C   UNL     1      48.644   5.628  16.737  0.00  0.00    +0.000 C 
ENDBRANCH  19  20
ENDBRANCH   9  19
TORSDOF 4
ENDMDL
MODEL 5
REMARK VINA RESULT:    -5.897      2.247      6.410
REMARK INTER + INTRA:          -7.786
REMARK INTER:                  -6.923
REMARK INTRA:                  -0.863
REMARK UNBOUND:                -0.510
REMARK  Name = 
REMARK  7 active torsions:
REMARK  status: ('A' for Active; 'I' for Inactive)
REMARK    1  A    between atoms: C_1  and  C_2
REMARK    2  A    between atoms: C_2  and  C_3
REMARK    3  A    between atoms: C_2  and  C_4
REMARK    4  A    between atoms: C_2  and  C_5
REMARK    5  A    between atoms: C_8  and  C_9
REMARK    6  A    between atoms: C_16  and  C_17
REMARK    7  A    between atoms: C_17  and  N_18
REMARK                            x       y       z     vdW  Elec       q    Type
REMARK                         _______ _______ _______ _____ _____    ______ ____
ROOT
ATOM      1  C   UNL     1      47.300   7.251  13.303  0.00  0.00    +0.000 A 
ATOM      2  N   UNL     1      46.197   7.115  12.429  0.00  0.00    +0.000 NA
ATOM      3  C   UNL     1      45.804   5.842  12.472  0.00  0.00    +0.000 A 
ATOM      4  C   UNL     1      44.759   5.066  11.880  0.00  0.00    +0.000 A 
ATOM      5  C   UNL     1      44.721   3.739  12.122  0.00  0.00    +0.000 A 
ATOM      6  N   UNL     1      45.643   3.030  12.872  0.00  0.00    +0.000 NA
ATOM      7  C   UNL     1      46.589   3.738  13.410  0.00  0.00    +0.000 A 
ATOM      8  N   UNL     1      46.660   5.130  13.283  0.00  0.00    +0.000 N 
ATOM      9  C   UNL     1      47.512   6.009  13.931  0.00  0.00    +0.000 A 
ENDROOT
BRANCH   4  10
ATOM     10  C   UNL     1      43.680   5.547  10.972  0.00  0.00    +0.000 C 
ATOM     11  N   UNL     1      43.268   6.824  11.150  0.00  0.00    +0.000 N 
ATOM     12  O   UNL     1      43.175   4.857  10.092  0.00  0.00    +0.000 OA
ATOM     13  H   UNL     1      43.679   7.427  11.857  0.00  0.00    +0.000 HD
ATOM     14  H   UNL     1      42.559   7.181  10.522  0.00  0.00    +0.000 HD
ENDBRANCH   4  10
BRANCH   1  16
ATOM     15  C   UNL     1      48.135   9.162  14.850  0.00  0.00    +0.000 C 
ATOM     16  C   UNL     1      48.036   8.640  13.396  0.00  0.00    +0.000 C 
ATOM     17  C   UNL     1      47.279   9.727  12.581  0.00  0.00    +0.000 C 
ATOM     18  C   UNL     1      49.483   8.652  12.852  0.00  0.00    +0.000 C 
ENDBRANCH   1  16
BRANCH   9  19
ATOM     19  C   UNL     1      48.422   5.486  15.008  0.00  0.00    +0.000 C 
BRANCH  19  20
ATOM     20  N   UNL     1      47.803   5.448  16.339  0.00  0.00    +0.000 NA
ATOM     21  C   UNL     1      48.670   6.056  17.373  0.00  0.00    +0.000 C 
ATOM     22  C   UNL     1      49.678   5.097  18.032  0.00  0.00    +0.000 C 
ATOM     23  O   UNL     1      49.021   3.969  18.612  0.00  0.00    +0.000 OA
ATOM     24  C   UNL     1      48.261   3.255  17.636  0.00  0.00    +0.000 C 
ATOM     25  C   UNL     1      47.278   4.169  16.869  0.00  0.00    +0.000 C 
ENDBRANCH  19  20
ENDBRANCH   9  19
TORSDOF 4
ENDMDL
MODEL 6
REMARK VINA RESULT:    -5.841      2.476      4.634
REMARK INTER + INTRA:          -7.717
REMARK INTER:                  -6.727
REMARK INTRA:                  -0.990
REMARK UNBOUND:                -0.510
REMARK  Name = 
REMARK  7 active torsions:
REMARK  status: ('A' for Active; 'I' for Inactive)
REMARK    1  A    between atoms: C_1  and  C_2
REMARK    2  A    between atoms: C_2  and  C_3
REMARK    3  A    between atoms: C_2  and  C_4
REMARK    4  A    between atoms: C_2  and  C_5
REMARK    5  A    between atoms: C_8  and  C_9
REMARK    6  A    between atoms: C_16  and  C_17
REMARK    7  A    between atoms: C_17  and  N_18
REMARK                            x       y       z     vdW  Elec       q    Type
REMARK                         _______ _______ _______ _____ _____    ______ ____
ROOT
ATOM      1  C   UNL     1      47.937   6.513  14.237  0.00  0.00    +0.000 A 
ATOM      2  N   UNL     1      48.644   6.594  15.459  0.00  0.00    +0.000 NA
ATOM      3  C   UNL     1      48.336   5.510  16.173  0.00  0.00    +0.000 A 
ATOM      4  C   UNL     1      48.717   4.970  17.441  0.00  0.00    +0.000 A 
ATOM      5  C   UNL     1      48.119   3.840  17.869  0.00  0.00    +0.000 A 
ATOM      6  N   UNL     1      47.114   3.158  17.205  0.00  0.00    +0.000 NA
ATOM      7  C   UNL     1      46.771   3.650  16.054  0.00  0.00    +0.000 A 
ATOM      8  N   UNL     1      47.396   4.769  15.492  0.00  0.00    +0.000 N 
ATOM      9  C   UNL     1      47.239   5.291  14.218  0.00  0.00    +0.000 A 
ENDROOT
BRANCH   4  10
ATOM     10  C   UNL     1      49.711   5.530  18.400  0.00  0.00    +0.000 C 
ATOM     11  N   UNL     1      49.798   6.880  18.456  0.00  0.00    +0.000 N 
ATOM     12  O   UNL     1      50.422   4.840  19.123  0.00  0.00    +0.000 OA
ATOM     13  H   UNL     1      49.211   7.480  17.885  0.00  0.00    +0.000 HD
ATOM     14  H   UNL     1      50.443   7.282  19.125  0.00  0.00    +0.000 HD
ENDBRANCH   4  10
BRANCH   1  16
ATOM     15  C   UNL     1      49.155   8.713  13.589  0.00  0.00    +0.000 C 
ATOM     16  C   UNL     1      48.039   7.707  13.215  0.00  0.00    +0.000 C 
ATOM     17  C   UNL     1      46.710   8.512  13.165  0.00  0.00    +0.000 C 
ATOM     18  C   UNL     1      48.325   7.295  11.752  0.00  0.00    +0.000 C 
ENDBRANCH   1  16
BRANCH   9  19
ATOM     19  C   UNL     1      46.396   4.545  13.221  0.00  0.00    +0.000 C 
BRANCH  19  20
ATOM     20  N   UNL     1      45.182   5.266  12.815  0.00  0.00    +0.000 NA
ATOM     21  C   UNL     1      43.952   4.583  13.275  0.00  0.00    +0.000 C 
ATOM     22  C   UNL     1      43.398   3.513  12.318  0.00  0.00    +0.000 C 
ATOM     23  O   UNL     1      43.146   4.053  11.021  0.00  0.00    +0.000 OA
ATOM     24  C   UNL     1      44.330   4.619  10.457  0.00  0.00    +0.000 C 
ATOM     25  C   UNL     1      44.996   5.651  11.398  0.00  0.00    +0.000 C 
ENDBRANCH  19  20
ENDBRANCH   9  19
TORSDOF 4
ENDMDL
MODEL 7
REMARK VINA RESULT:    -5.635      2.717      6.295
REMARK INTER + INTRA:          -7.463
REMARK INTER:                  -6.746
REMARK INTRA:                  -0.717
REMARK UNBOUND:                -0.510
REMARK  Name = 
REMARK  7 active torsions:
REMARK  status: ('A' for Active; 'I' for Inactive)
REMARK    1  A    between atoms: C_1  and  C_2
REMARK    2  A    between atoms: C_2  and  C_3
REMARK    3  A    between atoms: C_2  and  C_4
REMARK    4  A    between atoms: C_2  and  C_5
REMARK    5  A    between atoms: C_8  and  C_9
REMARK    6  A    between atoms: C_16  and  C_17
REMARK    7  A    between atoms: C_17  and  N_18
REMARK                            x       y       z     vdW  Elec       q    Type
REMARK                         _______ _______ _______ _____ _____    ______ ____
ROOT
ATOM      1  C   UNL     1      48.372   7.716  12.913  0.00  0.00    +0.000 A 
ATOM      2  N   UNL     1      47.570   7.241  11.850  0.00  0.00    +0.000 NA
ATOM      3  C   UNL     1      46.881   6.193  12.304  0.00  0.00    +0.000 A 
ATOM      4  C   UNL     1      45.894   5.303  11.777  0.00  0.00    +0.000 A 
ATOM      5  C   UNL     1      45.464   4.284  12.548  0.00  0.00    +0.000 A 
ATOM      6  N   UNL     1      45.928   3.982  13.817  0.00  0.00    +0.000 NA
ATOM      7  C   UNL     1      46.822   4.792  14.293  0.00  0.00    +0.000 A 
ATOM      8  N   UNL     1      47.266   5.924  13.599  0.00  0.00    +0.000 N 
ATOM      9  C   UNL     1      48.084   6.945  14.054  0.00  0.00    +0.000 A 
ENDROOT
BRANCH   4  10
ATOM     10  C   UNL     1      45.275   5.341  10.422  0.00  0.00    +0.000 C 
ATOM     11  N   UNL     1      43.921   5.316  10.379  0.00  0.00    +0.000 N 
ATOM     12  O   UNL     1      45.920   5.401   9.381  0.00  0.00    +0.000 OA
ATOM     13  H   UNL     1      43.357   5.285  11.223  0.00  0.00    +0.000 HD
ATOM     14  H   UNL     1      43.480   5.374   9.470  0.00  0.00    +0.000 HD
ENDBRANCH   4  10
BRANCH   1  16
ATOM     15  C   UNL     1      49.435   9.900  13.832  0.00  0.00    +0.000 C 
ATOM     16  C   UNL     1      49.368   8.907  12.645  0.00  0.00    +0.000 C 
ATOM     17  C   UNL     1      48.933   9.728  11.399  0.00  0.00    +0.000 C 
ATOM     18  C   UNL     1      50.831   8.489  12.371  0.00  0.00    +0.000 C 
ENDBRANCH   1  16
BRANCH   9  19
ATOM     19  C   UNL     1      48.488   6.968  15.502  0.00  0.00    +0.000 C 
BRANCH  19  20
ATOM     20  N   UNL     1      49.761   6.285  15.772  0.00  0.00    +0.000 NA
ATOM     21  C   UNL     1      49.697   5.455  16.995  0.00  0.00    +0.000 C 
ATOM     22  C   UNL     1      50.039   6.187  18.305  0.00  0.00    +0.000 C 
ATOM     23  O   UNL     1      51.333   6.787  18.244  0.00  0.00    +0.000 OA
ATOM     24  C   UNL     1      51.427   7.705  17.154  0.00  0.00    +0.000 C 
ATOM     25  C   UNL     1      51.019   7.065  15.807  0.00  0.00    +0.000 C 
ENDBRANCH  19  20
ENDBRANCH   9  19
TORSDOF 4
ENDMDL
MODEL 8
REMARK VINA RESULT:    -5.397      1.912      2.542
REMARK INTER + INTRA:          -7.169
REMARK INTER:                  -6.467
REMARK INTRA:                  -0.703
REMARK UNBOUND:                -0.510
REMARK  Name = 
REMARK  7 active torsions:
REMARK  status: ('A' for Active; 'I' for Inactive)
REMARK    1  A    between atoms: C_1  and  C_2
REMARK    2  A    between atoms: C_2  and  C_3
REMARK    3  A    between atoms: C_2  and  C_4
REMARK    4  A    between atoms: C_2  and  C_5
REMARK    5  A    between atoms: C_8  and  C_9
REMARK    6  A    between atoms: C_16  and  C_17
REMARK    7  A    between atoms: C_17  and  N_18
REMARK                            x       y       z     vdW  Elec       q    Type
REMARK                         _______ _______ _______ _____ _____    ______ ____
ROOT
ATOM      1  C   UNL     1      46.410   5.620  13.353  0.00  0.00    +0.000 A 
ATOM      2  N   UNL     1      46.651   4.547  14.242  0.00  0.00    +0.000 NA
ATOM      3  C   UNL     1      47.547   4.962  15.139  0.00  0.00    +0.000 A 
ATOM      4  C   UNL     1      48.179   4.408  16.296  0.00  0.00    +0.000 A 
ATOM      5  C   UNL     1      49.117   5.138  16.933  0.00  0.00    +0.000 A 
ATOM      6  N   UNL     1      49.571   6.386  16.541  0.00  0.00    +0.000 NA
ATOM      7  C   UNL     1      48.994   6.886  15.493  0.00  0.00    +0.000 A 
ATOM      8  N   UNL     1      47.953   6.238  14.818  0.00  0.00    +0.000 N 
ATOM      9  C   UNL     1      47.154   6.729  13.798  0.00  0.00    +0.000 A 
ENDROOT
BRANCH   4  10
ATOM     10  C   UNL     1      47.946   3.065  16.897  0.00  0.00    +0.000 C 
ATOM     11  N   UNL     1      46.810   2.918  17.620  0.00  0.00    +0.000 N 
ATOM     12  O   UNL     1      48.711   2.116  16.758  0.00  0.00    +0.000 OA
ATOM     13  H   UNL     1      46.147   3.677  17.738  0.00  0.00    +0.000 HD
ATOM     14  H   UNL     1      46.616   2.003  18.009  0.00  0.00    +0.000 HD
ENDBRANCH   4  10
BRANCH   1  16
ATOM     15  C   UNL     1      44.087   6.107  12.301  0.00  0.00    +0.000 C 
ATOM     16  C   UNL     1      45.450   5.394  12.126  0.00  0.00    +0.000 C 
ATOM     17  C   UNL     1      45.142   3.882  11.930  0.00  0.00    +0.000 C 
ATOM     18  C   UNL     1      46.000   5.880  10.765  0.00  0.00    +0.000 C 
ENDBRANCH   1  16
BRANCH   9  19
ATOM     19  C   UNL     1      47.286   8.171  13.394  0.00  0.00    +0.000 C 
BRANCH  19  20
ATOM     20  N   UNL     1      47.879   8.361  12.064  0.00  0.00    +0.000 NA
ATOM     21  C   UNL     1      49.119   7.572  11.890  0.00  0.00    +0.000 C 
ATOM     22  C   UNL     1      50.412   8.270  12.349  0.00  0.00    +0.000 C 
ATOM     23  O   UNL     1      50.589   9.524  11.689  0.00  0.00    +0.000 OA
ATOM     24  C   UNL     1      49.479  10.392  11.921  0.00  0.00    +0.000 C 
ATOM     25  C   UNL     1      48.129   9.731  11.560  0.00  0.00    +0.000 C 
ENDBRANCH  19  20
ENDBRANCH   9  19
TORSDOF 4
ENDMDL
MODEL 9
REMARK VINA RESULT:    -4.908      3.208      4.795
REMARK INTER + INTRA:          -6.566
REMARK INTER:                  -5.543
REMARK INTRA:                  -1.023
REMARK UNBOUND:                -0.510
REMARK  Name = 
REMARK  7 active torsions:
REMARK  status: ('A' for Active; 'I' for Inactive)
REMARK    1  A    between atoms: C_1  and  C_2
REMARK    2  A    between atoms: C_2  and  C_3
REMARK    3  A    between atoms: C_2  and  C_4
REMARK    4  A    between atoms: C_2  and  C_5
REMARK    5  A    between atoms: C_8  and  C_9
REMARK    6  A    between atoms: C_16  and  C_17
REMARK    7  A    between atoms: C_17  and  N_18
REMARK                            x       y       z     vdW  Elec       q    Type
REMARK                         _______ _______ _______ _____ _____    ______ ____
ROOT
ATOM      1  C   UNL     1      48.376   7.311  13.977  0.00  0.00    +0.000 A 
ATOM      2  N   UNL     1      47.965   6.015  14.364  0.00  0.00    +0.000 NA
ATOM      3  C   UNL     1      48.287   5.858  15.649  0.00  0.00    +0.000 A 
ATOM      4  C   UNL     1      48.127   4.834  16.633  0.00  0.00    +0.000 A 
ATOM      5  C   UNL     1      48.664   5.021  17.856  0.00  0.00    +0.000 A 
ATOM      6  N   UNL     1      49.413   6.117  18.247  0.00  0.00    +0.000 NA
ATOM      7  C   UNL     1      49.556   7.045  17.352  0.00  0.00    +0.000 A 
ATOM      8  N   UNL     1      48.963   6.975  16.087  0.00  0.00    +0.000 N 
ATOM      9  C   UNL     1      48.903   7.957  15.111  0.00  0.00    +0.000 A 
ENDROOT
BRANCH   4  10
ATOM     10  C   UNL     1      47.437   3.523  16.469  0.00  0.00    +0.000 C 
ATOM     11  N   UNL     1      47.617   2.892  15.284  0.00  0.00    +0.000 N 
ATOM     12  O   UNL     1      46.745   3.005  17.339  0.00  0.00    +0.000 OA
ATOM     13  H   UNL     1      48.199   3.285  14.550  0.00  0.00    +0.000 HD
ATOM     14  H   UNL     1      47.185   1.985  15.165  0.00  0.00    +0.000 HD
ENDBRANCH   4  10
BRANCH   1  16
ATOM     15  C   UNL     1      47.212   6.842  11.703  0.00  0.00    +0.000 C 
ATOM     16  C   UNL     1      48.200   7.751  12.475  0.00  0.00    +0.000 C 
ATOM     17  C   UNL     1      49.554   7.689  11.713  0.00  0.00    +0.000 C 
ATOM     18  C   UNL     1      47.681   9.194  12.272  0.00  0.00    +0.000 C 
ENDBRANCH   1  16
BRANCH   9  19
ATOM     19  C   UNL     1      49.415   9.335  15.426  0.00  0.00    +0.000 C 
BRANCH  19  20
ATOM     20  N   UNL     1      50.545   9.753  14.586  0.00  0.00    +0.000 NA
ATOM     21  C   UNL     1      51.687   8.817  14.685  0.00  0.00    +0.000 C 
ATOM     22  C   UNL     1      52.680   9.110  15.823  0.00  0.00    +0.000 C 
ATOM     23  O   UNL     1      53.202  10.436  15.731  0.00  0.00    +0.000 OA
ATOM     24  C   UNL     1      52.155  11.407  15.760  0.00  0.00    +0.000 C 
ATOM     25  C   UNL     1      51.068  11.134  14.694  0.00  0.00    +0.000 C 
ENDBRANCH  19  20
ENDBRANCH   9  19
TORSDOF 4
ENDMDL
