MODEL 1
REMARK VINA RESULT:    -7.970      0.000      0.000
REMARK INTER + INTRA:         -12.887
REMARK INTER:                 -11.698
REMARK INTRA:                  -1.189
REMARK UNBOUND:                -1.189
REMARK  Name = 
REMARK  9 active torsions:
REMARK  status: ('A' for Active; 'I' for Inactive)
REMARK    1  A    between atoms: C_1  and  C_2
REMARK    2  A    between atoms: C_2  and  N_3
REMARK    3  A    between atoms: C_2  and  C_19
REMARK    4  A    between atoms: N_3  and  C_4
REMARK    5  A    between atoms: C_4  and  C_5
REMARK    6  A    between atoms: C_8  and  C_9
REMARK    7  A    between atoms: C_9  and  N_10
REMARK    8  A    between atoms: N_10  and  C_11
REMARK    9  A    between atoms: C_11  and  C_12
REMARK                            x       y       z     vdW  Elec       q    Type
REMARK                         _______ _______ _______ _____ _____    ______ ____
ROOT
ATOM      1  C   UNL     1      46.187   8.055  12.756  0.00  0.00    +0.000 C 
ENDROOT
BRANCH   1   2
ATOM      2  C   UNL     1      45.526   6.829  12.163  0.00  0.00    +0.000 A 
ATOM      3  C   UNL     1      45.938   6.331  10.918  0.00  0.00    +0.000 A 
ATOM      4  C   UNL     1      45.406   5.142  10.414  0.00  0.00    +0.000 A 
ATOM      5  C   UNL     1      44.456   4.415  11.145  0.00  0.00    +0.000 A 
ATOM      6  C   UNL     1      44.026   4.924  12.377  0.00  0.00    +0.000 A 
ATOM      7  C   UNL     1      44.555   6.118  12.880  0.00  0.00    +0.000 A 
BRANCH   5   8
ATOM      8  C   UNL     1      43.922   3.102  10.616  0.00  0.00    +0.000 C 
BRANCH   8   9
ATOM      9  N   UNL     1      45.023   2.250  10.161  0.00  0.00    +0.000 NA
ATOM     10  H   UNL     1      45.089   1.458  10.802  0.00  0.00    +0.000 HD
BRANCH   9  11
ATOM     11  C   UNL     1      44.785   1.738   8.815  0.00  0.00    +0.000 C 
BRANCH  11  12
ATOM     12  C   UNL     1      46.052   1.793   8.045  0.00  0.00    +0.000 A 
ATOM     13  C   UNL     1      46.926   0.820   7.611  0.00  0.00    +0.000 A 
ATOM     14  N   UNL     1      47.975   1.375   6.920  0.00  0.00    +0.000 NA
ATOM     15  C   UNL     1      47.748   2.669   6.923  0.00  0.00    +0.000 A 
ATOM     16  N   UNL     1      46.592   2.969   7.581  0.00  0.00    +0.000 N 
ATOM     17  H   UNL     1      46.202   3.887   7.749  0.00  0.00    +0.000 HD
ENDBRANCH  11  12
ENDBRANCH   9  11
ENDBRANCH   8   9
ENDBRANCH   5   8
ENDBRANCH   1   2
BRANCH   1  18
ATOM     18  N   UNL     1      46.906   7.741  13.990  0.00  0.00    +0.000 NA
ATOM     19  H   UNL     1      46.240   7.324  14.640  0.00  0.00    +0.000 HD
BRANCH  18  21
ATOM     20  C   UNL     1      49.135   7.314  12.894  0.00  0.00    +0.000 C 
ATOM     21  C   UNL     1      48.008   6.786  13.794  0.00  0.00    +0.000 C 
BRANCH  21  22
ATOM     22  C   UNL     1      48.543   6.464  15.176  0.00  0.00    +0.000 A 
ATOM     23  C   UNL     1      49.470   7.245  15.854  0.00  0.00    +0.000 A 
ATOM     24  S   UNL     1      49.888   6.625  17.387  0.00  0.00    +0.000 S 
ATOM     25  C   UNL     1      48.840   5.297  17.200  0.00  0.00    +0.000 A 
ATOM     26  N   UNL     1      48.714   4.360  18.178  0.00  0.00    +0.000 NA
ATOM     27  C   UNL     1      47.878   3.414  17.900  0.00  0.00    +0.000 A 
ATOM     28  N   UNL     1      47.161   3.316  16.734  0.00  0.00    +0.000 N 
ATOM     29  C   UNL     1      47.265   4.231  15.711  0.00  0.00    +0.000 A 
ATOM     30  O   UNL     1      46.622   4.102  14.672  0.00  0.00    +0.000 OA
ATOM     31  C   UNL     1      48.186   5.321  15.982  0.00  0.00    +0.000 A 
ATOM     32  H   UNL     1      46.526   2.548  16.579  0.00  0.00    +0.000 HD
ENDBRANCH  21  22
ENDBRANCH  18  21
ENDBRANCH   1  18
TORSDOF 8
ENDMDL
MODEL 2
REMARK VINA RESULT:    -7.860      2.190      2.993
REMARK INTER + INTRA:         -12.726
REMARK INTER:                 -12.160
REMARK INTRA:                  -0.565
REMARK UNBOUND:                -1.189
REMARK  Name = 
REMARK  9 active torsions:
REMARK  status: ('A' for Active; 'I' for Inactive)
REMARK    1  A    between atoms: C_1  and  C_2
REMARK    2  A    between atoms: C_2  and  N_3
REMARK    3  A    between atoms: C_2  and  C_19
REMARK    4  A    between atoms: N_3  and  C_4
REMARK    5  A    between atoms: C_4  and  C_5
REMARK    6  A    between atoms: C_8  and  C_9
REMARK    7  A    between atoms: C_9  and  N_10
REMARK    8  A    between atoms: N_10  and  C_11
REMARK    9  A    between atoms: C_11  and  C_12
REMARK                            x       y       z     vdW  Elec       q    Type
REMARK                         _______ _______ _______ _____ _____    ______ ____
ROOT
ATOM      1  C   UNL     1      47.552   5.475  14.571  0.00  0.00    +0.000 C 
ENDROOT
BRANCH   1   2
ATOM      2  C   UNL     1      46.711   5.044  13.389  0.00  0.00    +0.000 A 
ATOM      3  C   UNL     1      46.194   3.742  13.321  0.00  0.00    +0.000 A 
ATOM      4  C   UNL     1      45.331   3.370  12.287  0.00  0.00    +0.000 A 
ATOM      5  C   UNL     1      44.955   4.293  11.300  0.00  0.00    +0.000 A 
ATOM      6  C   UNL     1      45.490   5.586  11.354  0.00  0.00    +0.000 A 
ATOM      7  C   UNL     1      46.358   5.957  12.386  0.00  0.00    +0.000 A 
BRANCH   5   8
ATOM      8  C   UNL     1      43.981   3.897  10.213  0.00  0.00    +0.000 C 
BRANCH   8   9
ATOM      9  N   UNL     1      44.603   2.942   9.292  0.00  0.00    +0.000 NA
ATOM     10  H   UNL     1      43.883   2.279   9.000  0.00  0.00    +0.000 HD
BRANCH   9  11
ATOM     11  C   UNL     1      45.130   3.606   8.105  0.00  0.00    +0.000 C 
BRANCH  11  12
ATOM     12  C   UNL     1      46.285   2.830   7.590  0.00  0.00    +0.000 A 
ATOM     13  C   UNL     1      46.641   1.502   7.692  0.00  0.00    +0.000 A 
ATOM     14  N   UNL     1      47.819   1.257   7.032  0.00  0.00    +0.000 NA
ATOM     15  C   UNL     1      48.182   2.414   6.526  0.00  0.00    +0.000 A 
ATOM     16  N   UNL     1      47.281   3.392   6.827  0.00  0.00    +0.000 N 
ATOM     17  H   UNL     1      47.334   4.372   6.582  0.00  0.00    +0.000 HD
ENDBRANCH  11  12
ENDBRANCH   9  11
ENDBRANCH   8   9
ENDBRANCH   5   8
ENDBRANCH   1   2
BRANCH   1  18
ATOM     18  N   UNL     1      48.009   4.332  15.360  0.00  0.00    +0.000 NA
ATOM     19  H   UNL     1      49.012   4.229  15.206  0.00  0.00    +0.000 HD
BRANCH  18  21
ATOM     20  C   UNL     1      46.907   3.399  17.425  0.00  0.00    +0.000 C 
ATOM     21  C   UNL     1      47.784   4.495  16.805  0.00  0.00    +0.000 C 
BRANCH  21  22
ATOM     22  C   UNL     1      49.156   4.503  17.451  0.00  0.00    +0.000 A 
ATOM     23  C   UNL     1      49.670   5.571  18.174  0.00  0.00    +0.000 A 
ATOM     24  S   UNL     1      51.242   5.290  18.775  0.00  0.00    +0.000 S 
ATOM     25  C   UNL     1      51.285   3.731  18.096  0.00  0.00    +0.000 A 
ATOM     26  N   UNL     1      52.375   2.930  18.247  0.00  0.00    +0.000 NA
ATOM     27  C   UNL     1      52.263   1.772  17.684  0.00  0.00    +0.000 A 
ATOM     28  N   UNL     1      51.167   1.343  16.979  0.00  0.00    +0.000 N 
ATOM     29  C   UNL     1      50.047   2.122  16.787  0.00  0.00    +0.000 A 
ATOM     30  O   UNL     1      49.090   1.713  16.134  0.00  0.00    +0.000 OA
ATOM     31  C   UNL     1      50.121   3.430  17.413  0.00  0.00    +0.000 A 
ATOM     32  H   UNL     1      51.146   0.426  16.560  0.00  0.00    +0.000 HD
ENDBRANCH  21  22
ENDBRANCH  18  21
ENDBRANCH   1  18
TORSDOF 8
ENDMDL
MODEL 3
REMARK VINA RESULT:    -7.307      1.716      2.055
REMARK INTER + INTRA:         -11.913
REMARK INTER:                 -11.066
REMARK INTRA:                  -0.847
REMARK UNBOUND:                -1.189
REMARK  Name = 
REMARK  9 active torsions:
REMARK  status: ('A' for Active; 'I' for Inactive)
REMARK    1  A    between atoms: C_1  and  C_2
REMARK    2  A    between atoms: C_2  and  N_3
REMARK    3  A    between atoms: C_2  and  C_19
REMARK    4  A    between atoms: N_3  and  C_4
REMARK    5  A    between atoms: C_4  and  C_5
REMARK    6  A    between atoms: C_8  and  C_9
REMARK    7  A    between atoms: C_9  and  N_10
REMARK    8  A    between atoms: N_10  and  C_11
REMARK    9  A    between atoms: C_11  and  C_12
REMARK                            x       y       z     vdW  Elec       q    Type
REMARK                         _______ _______ _______ _____ _____    ______ ____
ROOT
ATOM      1  C   UNL     1      47.586   6.464  13.689  0.00  0.00    +0.000 C 
ENDROOT
BRANCH   1   2
ATOM      2  C   UNL     1      46.584   5.574  12.984  0.00  0.00    +0.000 A 
ATOM      3  C   UNL     1      45.790   6.080  11.945  0.00  0.00    +0.000 A 
ATOM      4  C   UNL     1      44.941   5.240  11.221  0.00  0.00    +0.000 A 
ATOM      5  C   UNL     1      44.871   3.870  11.512  0.00  0.00    +0.000 A 
ATOM      6  C   UNL     1      45.646   3.368  12.565  0.00  0.00    +0.000 A 
ATOM      7  C   UNL     1      46.493   4.210  13.293  0.00  0.00    +0.000 A 
BRANCH   5   8
ATOM      8  C   UNL     1      43.987   2.957  10.691  0.00  0.00    +0.000 C 
BRANCH   8   9
ATOM      9  N   UNL     1      44.786   2.223   9.706  0.00  0.00    +0.000 NA
ATOM     10  H   UNL     1      44.248   1.405   9.418  0.00  0.00    +0.000 HD
BRANCH   9  11
ATOM     11  C   UNL     1      45.061   3.036   8.526  0.00  0.00    +0.000 C 
BRANCH  11  12
ATOM     12  C   UNL     1      46.259   2.496   7.835  0.00  0.00    +0.000 A 
ATOM     13  C   UNL     1      46.754   1.219   7.682  0.00  0.00    +0.000 A 
ATOM     14  N   UNL     1      47.912   1.227   6.944  0.00  0.00    +0.000 NA
ATOM     15  C   UNL     1      48.124   2.488   6.643  0.00  0.00    +0.000 A 
ATOM     16  N   UNL     1      47.146   3.292   7.150  0.00  0.00    +0.000 N 
ATOM     17  H   UNL     1      47.084   4.299   7.084  0.00  0.00    +0.000 HD
ENDBRANCH  11  12
ENDBRANCH   9  11
ENDBRANCH   8   9
ENDBRANCH   5   8
ENDBRANCH   1   2
BRANCH   1  18
ATOM     18  N   UNL     1      48.016   5.896  14.965  0.00  0.00    +0.000 NA
ATOM     19  H   UNL     1      48.296   4.929  14.796  0.00  0.00    +0.000 HD
BRANCH  18  21
ATOM     20  C   UNL     1      49.503   7.927  14.864  0.00  0.00    +0.000 C 
ATOM     21  C   UNL     1      49.160   6.603  15.560  0.00  0.00    +0.000 C 
BRANCH  21  22
ATOM     22  C   UNL     1      48.800   6.848  17.014  0.00  0.00    +0.000 A 
ATOM     23  C   UNL     1      48.405   8.079  17.520  0.00  0.00    +0.000 A 
ATOM     24  S   UNL     1      48.071   8.049  19.194  0.00  0.00    +0.000 S 
ATOM     25  C   UNL     1      48.435   6.390  19.294  0.00  0.00    +0.000 A 
ATOM     26  N   UNL     1      48.343   5.722  20.477  0.00  0.00    +0.000 NA
ATOM     27  C   UNL     1      48.643   4.467  20.400  0.00  0.00    +0.000 A 
ATOM     28  N   UNL     1      49.031   3.820  19.255  0.00  0.00    +0.000 N 
ATOM     29  C   UNL     1      49.152   4.455  18.039  0.00  0.00    +0.000 A 
ATOM     30  O   UNL     1      49.521   3.848  17.036  0.00  0.00    +0.000 OA
ATOM     31  C   UNL     1      48.814   5.867  18.071  0.00  0.00    +0.000 A 
ATOM     32  H   UNL     1      49.254   2.837  19.265  0.00  0.00    +0.000 HD
ENDBRANCH  21  22
ENDBRANCH  18  21
ENDBRANCH   1  18
TORSDOF 8
ENDMDL
MODEL 4
REMARK VINA RESULT:    -6.811      2.320      3.387
REMARK INTER + INTRA:         -11.185
REMARK INTER:                 -10.345
REMARK INTRA:                  -0.840
REMARK UNBOUND:                -1.189
REMARK  Name = 
REMARK  9 active torsions:
REMARK  status: ('A' for Active; 'I' for Inactive)
REMARK    1  A    between atoms: C_1  and  C_2
REMARK    2  A    between atoms: C_2  and  N_3
REMARK    3  A    between atoms: C_2  and  C_19
REMARK    4  A    between atoms: N_3  and  C_4
REMARK    5  A    between atoms: C_4  and  C_5
REMARK    6  A    between atoms: C_8  and  C_9
REMARK    7  A    between atoms: C_9  and  N_10
REMARK    8  A    between atoms: N_10  and  C_11
REMARK    9  A    between atoms: C_11  and  C_12
REMARK                            x       y       z     vdW  Elec       q    Type
REMARK                         _______ _______ _______ _____ _____    ______ ____
ROOT
ATOM      1  C   UNL     1      47.587   5.834  14.400  0.00  0.00    +0.000 C 
ENDROOT
BRANCH   1   2
ATOM      2  C   UNL     1      46.745   5.419  13.212  0.00  0.00    +0.000 A 
ATOM      3  C   UNL     1      46.022   4.218  13.238  0.00  0.00    +0.000 A 
ATOM      4  C   UNL     1      45.161   3.880  12.191  0.00  0.00    +0.000 A 
ATOM      5  C   UNL     1      44.996   4.739  11.094  0.00  0.00    +0.000 A 
ATOM      6  C   UNL     1      45.736   5.927  11.056  0.00  0.00    +0.000 A 
ATOM      7  C   UNL     1      46.602   6.263  12.103  0.00  0.00    +0.000 A 
BRANCH   5   8
ATOM      8  C   UNL     1      44.024   4.390   9.988  0.00  0.00    +0.000 C 
BRANCH   8   9
ATOM      9  N   UNL     1      44.538   3.274   9.190  0.00  0.00    +0.000 NA
ATOM     10  H   UNL     1      43.736   2.776   8.801  0.00  0.00    +0.000 HD
BRANCH   9  11
ATOM     11  C   UNL     1      45.373   3.742   8.088  0.00  0.00    +0.000 C 
BRANCH  11  12
ATOM     12  C   UNL     1      46.297   2.653   7.686  0.00  0.00    +0.000 A 
ATOM     13  C   UNL     1      47.430   2.629   6.901  0.00  0.00    +0.000 A 
ATOM     14  N   UNL     1      47.948   1.360   6.825  0.00  0.00    +0.000 NA
ATOM     15  C   UNL     1      47.151   0.614   7.556  0.00  0.00    +0.000 A 
ATOM     16  N   UNL     1      46.145   1.353   8.105  0.00  0.00    +0.000 N 
ATOM     17  H   UNL     1      45.386   1.021   8.686  0.00  0.00    +0.000 HD
ENDBRANCH  11  12
ENDBRANCH   9  11
ENDBRANCH   8   9
ENDBRANCH   5   8
ENDBRANCH   1   2
BRANCH   1  18
ATOM     18  N   UNL     1      47.931   4.694  15.248  0.00  0.00    +0.000 NA
ATOM     19  H   UNL     1      48.825   4.325  14.924  0.00  0.00    +0.000 HD
BRANCH  18  21
ATOM     20  C   UNL     1      47.064   4.347  17.589  0.00  0.00    +0.000 C 
ATOM     21  C   UNL     1      48.073   5.048  16.669  0.00  0.00    +0.000 C 
BRANCH  21  22
ATOM     22  C   UNL     1      49.491   4.677  17.061  0.00  0.00    +0.000 A 
ATOM     23  C   UNL     1      49.874   3.413  17.488  0.00  0.00    +0.000 A 
ATOM     24  S   UNL     1      51.534   3.298  17.866  0.00  0.00    +0.000 S 
ATOM     25  C   UNL     1      51.797   4.931  17.463  0.00  0.00    +0.000 A 
ATOM     26  N   UNL     1      53.036   5.486  17.560  0.00  0.00    +0.000 NA
ATOM     27  C   UNL     1      53.085   6.731  17.215  0.00  0.00    +0.000 A 
ATOM     28  N   UNL     1      52.013   7.472  16.789  0.00  0.00    +0.000 N 
ATOM     29  C   UNL     1      50.739   6.959  16.688  0.00  0.00    +0.000 A 
ATOM     30  O   UNL     1      49.797   7.657  16.321  0.00  0.00    +0.000 OA
ATOM     31  C   UNL     1      50.634   5.557  17.054  0.00  0.00    +0.000 A 
ATOM     32  H   UNL     1      52.120   8.443  16.538  0.00  0.00    +0.000 HD
ENDBRANCH  21  22
ENDBRANCH  18  21
ENDBRANCH   1  18
TORSDOF 8
ENDMDL
MODEL 5
REMARK VINA RESULT:    -6.381      2.366      3.771
REMARK INTER + INTRA:         -10.554
REMARK INTER:                  -9.500
REMARK INTRA:                  -1.054
REMARK UNBOUND:                -1.189
REMARK  Name = 
REMARK  9 active torsions:
REMARK  status: ('A' for Active; 'I' for Inactive)
REMARK    1  A    between atoms: C_1  and  C_2
REMARK    2  A    between atoms: C_2  and  N_3
REMARK    3  A    between atoms: C_2  and  C_19
REMARK    4  A    between atoms: N_3  and  C_4
REMARK    5  A    between atoms: C_4  and  C_5
REMARK    6  A    between atoms: C_8  and  C_9
REMARK    7  A    between atoms: C_9  and  N_10
REMARK    8  A    between atoms: N_10  and  C_11
REMARK    9  A    between atoms: C_11  and  C_12
REMARK                            x       y       z     vdW  Elec       q    Type
REMARK                         _______ _______ _______ _____ _____    ______ ____
ROOT
ATOM      1  C   UNL     1      49.095   7.299  15.381  0.00  0.00    +0.000 C 
ENDROOT
BRANCH   1   2
ATOM      2  C   UNL     1      48.104   7.071  14.259  0.00  0.00    +0.000 A 
ATOM      3  C   UNL     1      47.808   5.771  13.825  0.00  0.00    +0.000 A 
ATOM      4  C   UNL     1      46.818   5.547  12.865  0.00  0.00    +0.000 A 
ATOM      5  C   UNL     1      46.092   6.617  12.321  0.00  0.00    +0.000 A 
ATOM      6  C   UNL     1      46.403   7.918  12.737  0.00  0.00    +0.000 A 
ATOM      7  C   UNL     1      47.398   8.143  13.695  0.00  0.00    +0.000 A 
BRANCH   5   8
ATOM      8  C   UNL     1      44.987   6.363  11.319  0.00  0.00    +0.000 C 
BRANCH   8   9
ATOM      9  N   UNL     1      44.249   5.148  11.671  0.00  0.00    +0.000 NA
ATOM     10  H   UNL     1      43.643   5.370  12.462  0.00  0.00    +0.000 HD
BRANCH   9  11
ATOM     11  C   UNL     1      43.416   4.687  10.565  0.00  0.00    +0.000 C 
BRANCH  11  12
ATOM     12  C   UNL     1      44.216   3.784   9.701  0.00  0.00    +0.000 A 
ATOM     13  C   UNL     1      44.825   3.956   8.476  0.00  0.00    +0.000 A 
ATOM     14  N   UNL     1      45.462   2.808   8.078  0.00  0.00    +0.000 NA
ATOM     15  C   UNL     1      45.255   1.942   9.044  0.00  0.00    +0.000 A 
ATOM     16  N   UNL     1      44.516   2.489  10.051  0.00  0.00    +0.000 N 
ATOM     17  H   UNL     1      44.197   2.033  10.896  0.00  0.00    +0.000 HD
ENDBRANCH  11  12
ENDBRANCH   9  11
ENDBRANCH   8   9
ENDBRANCH   5   8
ENDBRANCH   1   2
BRANCH   1  18
ATOM     18  N   UNL     1      48.428   7.456  16.672  0.00  0.00    +0.000 NA
ATOM     19  H   UNL     1      47.481   7.088  16.580  0.00  0.00    +0.000 HD
BRANCH  18  21
ATOM     20  C   UNL     1      48.620   7.139  19.165  0.00  0.00    +0.000 C 
ATOM     21  C   UNL     1      49.094   6.729  17.763  0.00  0.00    +0.000 C 
BRANCH  21  22
ATOM     22  C   UNL     1      48.819   5.256  17.523  0.00  0.00    +0.000 A 
ATOM     23  C   UNL     1      47.554   4.725  17.311  0.00  0.00    +0.000 A 
ATOM     24  S   UNL     1      47.557   3.035  17.077  0.00  0.00    +0.000 S 
ATOM     25  C   UNL     1      49.249   2.958  17.243  0.00  0.00    +0.000 A 
ATOM     26  N   UNL     1      49.911   1.773  17.141  0.00  0.00    +0.000 NA
ATOM     27  C   UNL     1      51.192   1.869  17.282  0.00  0.00    +0.000 A 
ATOM     28  N   UNL     1      51.872   3.036  17.520  0.00  0.00    +0.000 N 
ATOM     29  C   UNL     1      51.246   4.256  17.644  0.00  0.00    +0.000 A 
ATOM     30  O   UNL     1      51.885   5.280  17.876  0.00  0.00    +0.000 OA
ATOM     31  C   UNL     1      49.804   4.202  17.482  0.00  0.00    +0.000 A 
ATOM     32  H   UNL     1      52.875   3.040  17.624  0.00  0.00    +0.000 HD
ENDBRANCH  21  22
ENDBRANCH  18  21
ENDBRANCH   1  18
TORSDOF 8
ENDMDL
MODEL 6
REMARK VINA RESULT:    -6.318      2.772      3.993
REMARK INTER + INTRA:         -10.462
REMARK INTER:                  -9.643
REMARK INTRA:                  -0.819
REMARK UNBOUND:                -1.189
REMARK  Name = 
REMARK  9 active torsions:
REMARK  status: ('A' for Active; 'I' for Inactive)
REMARK    1  A    between atoms: C_1  and  C_2
REMARK    2  A    between atoms: C_2  and  N_3
REMARK    3  A    between atoms: C_2  and  C_19
REMARK    4  A    between atoms: N_3  and  C_4
REMARK    5  A    between atoms: C_4  and  C_5
REMARK    6  A    between atoms: C_8  and  C_9
REMARK    7  A    between atoms: C_9  and  N_10
REMARK    8  A    between atoms: N_10  and  C_11
REMARK    9  A    between atoms: C_11  and  C_12
REMARK                            x       y       z     vdW  Elec       q    Type
REMARK                         _______ _______ _______ _____ _____    ______ ____
ROOT
ATOM      1  C   UNL     1      47.547   6.855  13.746  0.00  0.00    +0.000 C 
ENDROOT
BRANCH   1   2
ATOM      2  C   UNL     1      46.591   5.997  12.945  0.00  0.00    +0.000 A 
ATOM      3  C   UNL     1      46.269   6.336  11.623  0.00  0.00    +0.000 A 
ATOM      4  C   UNL     1      45.473   5.493  10.844  0.00  0.00    +0.000 A 
ATOM      5  C   UNL     1      44.985   4.286  11.364  0.00  0.00    +0.000 A 
ATOM      6  C   UNL     1      45.286   3.958  12.692  0.00  0.00    +0.000 A 
ATOM      7  C   UNL     1      46.080   4.805  13.474  0.00  0.00    +0.000 A 
BRANCH   5   8
ATOM      8  C   UNL     1      44.165   3.354  10.499  0.00  0.00    +0.000 C 
BRANCH   8   9
ATOM      9  N   UNL     1      44.968   2.200  10.087  0.00  0.00    +0.000 NA
ATOM     10  H   UNL     1      44.695   1.408  10.670  0.00  0.00    +0.000 HD
BRANCH   9  11
ATOM     11  C   UNL     1      44.731   1.852   8.690  0.00  0.00    +0.000 C 
BRANCH  11  12
ATOM     12  C   UNL     1      46.025   1.855   7.964  0.00  0.00    +0.000 A 
ATOM     13  C   UNL     1      46.901   0.853   7.608  0.00  0.00    +0.000 A 
ATOM     14  N   UNL     1      47.981   1.361   6.931  0.00  0.00    +0.000 NA
ATOM     15  C   UNL     1      47.772   2.657   6.865  0.00  0.00    +0.000 A 
ATOM     16  N   UNL     1      46.597   3.001   7.466  0.00  0.00    +0.000 N 
ATOM     17  H   UNL     1      46.214   3.931   7.576  0.00  0.00    +0.000 HD
ENDBRANCH  11  12
ENDBRANCH   9  11
ENDBRANCH   8   9
ENDBRANCH   5   8
ENDBRANCH   1   2
BRANCH   1  18
ATOM     18  N   UNL     1      47.135   8.258  13.763  0.00  0.00    +0.000 NA
ATOM     19  H   UNL     1      47.377   8.641  14.677  0.00  0.00    +0.000 HD
BRANCH  18  21
ATOM     20  C   UNL     1      46.946  10.228  12.204  0.00  0.00    +0.000 C 
ATOM     21  C   UNL     1      47.805   9.073  12.738  0.00  0.00    +0.000 C 
BRANCH  21  22
ATOM     22  C   UNL     1      49.071   9.609  13.379  0.00  0.00    +0.000 A 
ATOM     23  C   UNL     1      49.091  10.598  14.353  0.00  0.00    +0.000 A 
ATOM     24  S   UNL     1      50.664  11.000  14.880  0.00  0.00    +0.000 S 
ATOM     25  C   UNL     1      51.368   9.860  13.830  0.00  0.00    +0.000 A 
ATOM     26  N   UNL     1      52.717   9.687  13.786  0.00  0.00    +0.000 NA
ATOM     27  C   UNL     1      53.108   8.784  12.949  0.00  0.00    +0.000 A 
ATOM     28  N   UNL     1      52.277   8.042  12.148  0.00  0.00    +0.000 N 
ATOM     29  C   UNL     1      50.908   8.190  12.147  0.00  0.00    +0.000 A 
ATOM     30  O   UNL     1      50.194   7.522  11.403  0.00  0.00    +0.000 OA
ATOM     31  C   UNL     1      50.419   9.188  13.082  0.00  0.00    +0.000 A 
ATOM     32  H   UNL     1      52.648   7.353  11.512  0.00  0.00    +0.000 HD
ENDBRANCH  21  22
ENDBRANCH  18  21
ENDBRANCH   1  18
TORSDOF 8
ENDMDL
MODEL 7
REMARK VINA RESULT:    -6.292      4.098      6.319
REMARK INTER + INTRA:         -10.423
REMARK INTER:                  -9.877
REMARK INTRA:                  -0.546
REMARK UNBOUND:                -1.189
REMARK  Name = 
REMARK  9 active torsions:
REMARK  status: ('A' for Active; 'I' for Inactive)
REMARK    1  A    between atoms: C_1  and  C_2
REMARK    2  A    between atoms: C_2  and  N_3
REMARK    3  A    between atoms: C_2  and  C_19
REMARK    4  A    between atoms: N_3  and  C_4
REMARK    5  A    between atoms: C_4  and  C_5
REMARK    6  A    between atoms: C_8  and  C_9
REMARK    7  A    between atoms: C_9  and  N_10
REMARK    8  A    between atoms: N_10  and  C_11
REMARK    9  A    between atoms: C_11  and  C_12
REMARK                            x       y       z     vdW  Elec       q    Type
REMARK                         _______ _______ _______ _____ _____    ______ ____
ROOT
ATOM      1  C   UNL     1      46.782   4.132  14.467  0.00  0.00    +0.000 C 
ENDROOT
BRANCH   1   2
ATOM      2  C   UNL     1      46.607   5.453  13.748  0.00  0.00    +0.000 A 
ATOM      3  C   UNL     1      45.383   5.779  13.147  0.00  0.00    +0.000 A 
ATOM      4  C   UNL     1      45.181   7.037  12.575  0.00  0.00    +0.000 A 
ATOM      5  C   UNL     1      46.196   8.005  12.595  0.00  0.00    +0.000 A 
ATOM      6  C   UNL     1      47.428   7.672  13.174  0.00  0.00    +0.000 A 
ATOM      7  C   UNL     1      47.631   6.410  13.743  0.00  0.00    +0.000 A 
BRANCH   5   8
ATOM      8  C   UNL     1      45.954   9.382  12.018  0.00  0.00    +0.000 C 
BRANCH   8   9
ATOM      9  N   UNL     1      44.684   9.924  12.506  0.00  0.00    +0.000 NA
ATOM     10  H   UNL     1      44.831  10.246  13.464  0.00  0.00    +0.000 HD
BRANCH   9  11
ATOM     11  C   UNL     1      44.238  11.056  11.700  0.00  0.00    +0.000 C 
BRANCH  11  12
ATOM     12  C   UNL     1      42.800  10.883  11.377  0.00  0.00    +0.000 A 
ATOM     13  C   UNL     1      42.136  10.532  10.222  0.00  0.00    +0.000 A 
ATOM     14  N   UNL     1      40.779  10.502  10.425  0.00  0.00    +0.000 NA
ATOM     15  C   UNL     1      40.609  10.824  11.687  0.00  0.00    +0.000 A 
ATOM     16  N   UNL     1      41.802  11.052  12.307  0.00  0.00    +0.000 N 
ATOM     17  H   UNL     1      41.951  11.338  13.266  0.00  0.00    +0.000 HD
ENDBRANCH  11  12
ENDBRANCH   9  11
ENDBRANCH   8   9
ENDBRANCH   5   8
ENDBRANCH   1   2
BRANCH   1  18
ATOM     18  N   UNL     1      47.995   4.113  15.283  0.00  0.00    +0.000 NA
ATOM     19  H   UNL     1      48.606   4.859  14.948  0.00  0.00    +0.000 HD
BRANCH  18  21
ATOM     20  C   UNL     1      46.870   3.262  17.370  0.00  0.00    +0.000 C 
ATOM     21  C   UNL     1      47.739   4.343  16.713  0.00  0.00    +0.000 C 
BRANCH  21  22
ATOM     22  C   UNL     1      49.097   4.409  17.384  0.00  0.00    +0.000 A 
ATOM     23  C   UNL     1      49.557   5.503  18.105  0.00  0.00    +0.000 A 
ATOM     24  S   UNL     1      51.127   5.289  18.738  0.00  0.00    +0.000 S 
ATOM     25  C   UNL     1      51.241   3.724  18.077  0.00  0.00    +0.000 A 
ATOM     26  N   UNL     1      52.357   2.966  18.258  0.00  0.00    +0.000 NA
ATOM     27  C   UNL     1      52.298   1.799  17.706  0.00  0.00    +0.000 A 
ATOM     28  N   UNL     1      51.232   1.322  16.986  0.00  0.00    +0.000 N 
ATOM     29  C   UNL     1      50.088   2.056  16.765  0.00  0.00    +0.000 A 
ATOM     30  O   UNL     1      49.160   1.604  16.099  0.00  0.00    +0.000 OA
ATOM     31  C   UNL     1      50.102   3.373  17.377  0.00  0.00    +0.000 A 
ATOM     32  H   UNL     1      51.253   0.400  16.578  0.00  0.00    +0.000 HD
ENDBRANCH  21  22
ENDBRANCH  18  21
ENDBRANCH   1  18
TORSDOF 8
ENDMDL
MODEL 8
REMARK VINA RESULT:    -6.263      2.100      3.401
REMARK INTER + INTRA:         -10.381
REMARK INTER:                  -9.498
REMARK INTRA:                  -0.883
REMARK UNBOUND:                -1.189
REMARK  Name = 
REMARK  9 active torsions:
REMARK  status: ('A' for Active; 'I' for Inactive)
REMARK    1  A    between atoms: C_1  and  C_2
REMARK    2  A    between atoms: C_2  and  N_3
REMARK    3  A    between atoms: C_2  and  C_19
REMARK    4  A    between atoms: N_3  and  C_4
REMARK    5  A    between atoms: C_4  and  C_5
REMARK    6  A    between atoms: C_8  and  C_9
REMARK    7  A    between atoms: C_9  and  N_10
REMARK    8  A    between atoms: N_10  and  C_11
REMARK    9  A    between atoms: C_11  and  C_12
REMARK                            x       y       z     vdW  Elec       q    Type
REMARK                         _______ _______ _______ _____ _____    ______ ____
ROOT
ATOM      1  C   UNL     1      49.779   8.046  13.770  0.00  0.00    +0.000 C 
ENDROOT
BRANCH   1   2
ATOM      2  C   UNL     1      48.426   7.938  13.101  0.00  0.00    +0.000 A 
ATOM      3  C   UNL     1      48.147   6.876  12.228  0.00  0.00    +0.000 A 
ATOM      4  C   UNL     1      46.868   6.711  11.691  0.00  0.00    +0.000 A 
ATOM      5  C   UNL     1      45.833   7.598  12.019  0.00  0.00    +0.000 A 
ATOM      6  C   UNL     1      46.116   8.672  12.872  0.00  0.00    +0.000 A 
ATOM      7  C   UNL     1      47.398   8.840  13.407  0.00  0.00    +0.000 A 
BRANCH   5   8
ATOM      8  C   UNL     1      44.438   7.384  11.474  0.00  0.00    +0.000 C 
BRANCH   8   9
ATOM      9  N   UNL     1      43.761   6.313  12.209  0.00  0.00    +0.000 NA
ATOM     10  H   UNL     1      43.260   6.740  12.989  0.00  0.00    +0.000 HD
BRANCH   9  11
ATOM     11  C   UNL     1      42.797   5.610  11.368  0.00  0.00    +0.000 C 
BRANCH  11  12
ATOM     12  C   UNL     1      43.498   4.534  10.625  0.00  0.00    +0.000 A 
ATOM     13  C   UNL     1      43.870   3.251  10.964  0.00  0.00    +0.000 A 
ATOM     14  N   UNL     1      44.504   2.631   9.917  0.00  0.00    +0.000 NA
ATOM     15  C   UNL     1      44.518   3.514   8.945  0.00  0.00    +0.000 A 
ATOM     16  N   UNL     1      43.911   4.676   9.322  0.00  0.00    +0.000 N 
ATOM     17  H   UNL     1      43.809   5.521   8.774  0.00  0.00    +0.000 HD
ENDBRANCH  11  12
ENDBRANCH   9  11
ENDBRANCH   8   9
ENDBRANCH   5   8
ENDBRANCH   1   2
BRANCH   1  18
ATOM     18  N   UNL     1      50.035   6.919  14.665  0.00  0.00    +0.000 NA
ATOM     19  H   UNL     1      50.884   6.453  14.343  0.00  0.00    +0.000 HD
BRANCH  18  21
ATOM     20  C   UNL     1      49.154   8.260  16.608  0.00  0.00    +0.000 C 
ATOM     21  C   UNL     1      50.242   7.324  16.065  0.00  0.00    +0.000 C 
BRANCH  21  22
ATOM     22  C   UNL     1      50.291   6.043  16.876  0.00  0.00    +0.000 A 
ATOM     23  C   UNL     1      51.345   5.688  17.706  0.00  0.00    +0.000 A 
ATOM     24  S   UNL     1      51.121   4.186  18.484  0.00  0.00    +0.000 S 
ATOM     25  C   UNL     1      49.604   3.965  17.744  0.00  0.00    +0.000 A 
ATOM     26  N   UNL     1      48.857   2.855  17.993  0.00  0.00    +0.000 NA
ATOM     27  C   UNL     1      47.726   2.827  17.367  0.00  0.00    +0.000 A 
ATOM     28  N   UNL     1      47.276   3.801  16.513  0.00  0.00    +0.000 N 
ATOM     29  C   UNL     1      48.001   4.935  16.219  0.00  0.00    +0.000 A 
ATOM     30  O   UNL     1      47.575   5.779  15.435  0.00  0.00    +0.000 OA
ATOM     31  C   UNL     1      49.276   5.018  16.909  0.00  0.00    +0.000 A 
ATOM     32  H   UNL     1      46.383   3.716  16.053  0.00  0.00    +0.000 HD
ENDBRANCH  21  22
ENDBRANCH  18  21
ENDBRANCH   1  18
TORSDOF 8
ENDMDL
MODEL 9
REMARK VINA RESULT:    -6.142      2.004      2.837
REMARK INTER + INTRA:         -10.203
REMARK INTER:                  -8.947
REMARK INTRA:                  -1.256
REMARK UNBOUND:                -1.189
REMARK  Name = 
REMARK  9 active torsions:
REMARK  status: ('A' for Active; 'I' for Inactive)
REMARK    1  A    between atoms: C_1  and  C_2
REMARK    2  A    between atoms: C_2  and  N_3
REMARK    3  A    between atoms: C_2  and  C_19
REMARK    4  A    between atoms: N_3  and  C_4
REMARK    5  A    between atoms: C_4  and  C_5
REMARK    6  A    between atoms: C_8  and  C_9
REMARK    7  A    between atoms: C_9  and  N_10
REMARK    8  A    between atoms: N_10  and  C_11
REMARK    9  A    between atoms: C_11  and  C_12
REMARK                            x       y       z     vdW  Elec       q    Type
REMARK                         _______ _______ _______ _____ _____    ______ ____
ROOT
ATOM      1  C   UNL     1      48.430   7.816  14.045  0.00  0.00    +0.000 C 
ENDROOT
BRANCH   1   2
ATOM      2  C   UNL     1      47.617   6.642  13.542  0.00  0.00    +0.000 A 
ATOM      3  C   UNL     1      47.483   5.484  14.321  0.00  0.00    +0.000 A 
ATOM      4  C   UNL     1      46.649   4.440  13.912  0.00  0.00    +0.000 A 
ATOM      5  C   UNL     1      45.921   4.532  12.717  0.00  0.00    +0.000 A 
ATOM      6  C   UNL     1      46.072   5.679  11.926  0.00  0.00    +0.000 A 
ATOM      7  C   UNL     1      46.911   6.722  12.334  0.00  0.00    +0.000 A 
BRANCH   5   8
ATOM      8  C   UNL     1      44.981   3.421  12.304  0.00  0.00    +0.000 C 
BRANCH   8   9
ATOM      9  N   UNL     1      44.157   3.844  11.169  0.00  0.00    +0.000 NA
ATOM     10  H   UNL     1      44.589   4.676  10.765  0.00  0.00    +0.000 HD
BRANCH   9  11
ATOM     11  C   UNL     1      44.089   2.811  10.141  0.00  0.00    +0.000 C 
BRANCH  11  12
ATOM     12  C   UNL     1      45.064   3.131   9.069  0.00  0.00    +0.000 A 
ATOM     13  C   UNL     1      45.418   4.309   8.447  0.00  0.00    +0.000 A 
ATOM     14  N   UNL     1      46.390   4.092   7.502  0.00  0.00    +0.000 NA
ATOM     15  C   UNL     1      46.635   2.802   7.544  0.00  0.00    +0.000 A 
ATOM     16  N   UNL     1      45.866   2.181   8.483  0.00  0.00    +0.000 N 
ATOM     17  H   UNL     1      45.841   1.193   8.701  0.00  0.00    +0.000 HD
ENDBRANCH  11  12
ENDBRANCH   9  11
ENDBRANCH   8   9
ENDBRANCH   5   8
ENDBRANCH   1   2
BRANCH   1  18
ATOM     18  N   UNL     1      49.523   7.386  14.917  0.00  0.00    +0.000 NA
ATOM     19  H   UNL     1      50.350   7.255  14.335  0.00  0.00    +0.000 HD
BRANCH  18  21
ATOM     20  C   UNL     1      49.539   9.819  15.572  0.00  0.00    +0.000 C 
ATOM     21  C   UNL     1      49.853   8.368  15.961  0.00  0.00    +0.000 C 
BRANCH  21  22
ATOM     22  C   UNL     1      49.058   7.967  17.189  0.00  0.00    +0.000 A 
ATOM     23  C   UNL     1      48.158   8.801  17.841  0.00  0.00    +0.000 A 
ATOM     24  S   UNL     1      47.419   8.075  19.197  0.00  0.00    +0.000 S 
ATOM     25  C   UNL     1      48.270   6.621  18.953  0.00  0.00    +0.000 A 
ATOM     26  N   UNL     1      48.091   5.557  19.783  0.00  0.00    +0.000 NA
ATOM     27  C   UNL     1      48.797   4.520  19.473  0.00  0.00    +0.000 A 
ATOM     28  N   UNL     1      49.669   4.450  18.415  0.00  0.00    +0.000 N 
ATOM     29  C   UNL     1      49.894   5.503  17.558  0.00  0.00    +0.000 A 
ATOM     30  O   UNL     1      50.696   5.412  16.632  0.00  0.00    +0.000 OA
ATOM     31  C   UNL     1      49.112   6.690  17.859  0.00  0.00    +0.000 A 
ATOM     32  H   UNL     1      50.193   3.609  18.231  0.00  0.00    +0.000 HD
ENDBRANCH  21  22
ENDBRANCH  18  21
ENDBRANCH   1  18
TORSDOF 8
ENDMDL
