MODEL 1
REMARK VINA RESULT:    -7.244      0.000      0.000
REMARK INTER + INTRA:         -11.238
REMARK INTER:                 -10.208
REMARK INTRA:                  -1.030
REMARK UNBOUND:                -1.030
REMARK  Name = 
REMARK  9 active torsions:
REMARK  status: ('A' for Active; 'I' for Inactive)
REMARK    1  A    between atoms: C_1  and  O_2
REMARK    2  A    between atoms: O_2  and  C_3
REMARK    3  A    between atoms: C_10  and  C_11
REMARK    4  A    between atoms: N_13  and  C_14
REMARK    5  A    between atoms: C_14  and  C_15
REMARK    6  A    between atoms: C_18  and  N_19
REMARK    7  A    between atoms: N_19  and  C_20
REMARK    8  A    between atoms: C_20  and  C_21
REMARK    9  A    between atoms: N_24  and  C_25
REMARK                            x       y       z     vdW  Elec       q    Type
REMARK                         _______ _______ _______ _____ _____    ______ ____
ROOT
ATOM      1  C   UNL     1      48.039   7.915  13.653  0.00  0.00    +0.000 C 
ENDROOT
BRANCH   1   2
ATOM      2  C   UNL     1      47.089   6.920  13.048  0.00  0.00    +0.000 A 
ATOM      3  C   UNL     1      46.400   7.217  11.869  0.00  0.00    +0.000 A 
ATOM      4  C   UNL     1      45.528   6.284  11.300  0.00  0.00    +0.000 A 
ATOM      5  C   UNL     1      45.293   5.037  11.894  0.00  0.00    +0.000 A 
ATOM      6  C   UNL     1      45.978   4.757  13.085  0.00  0.00    +0.000 A 
ATOM      7  C   UNL     1      46.853   5.686  13.662  0.00  0.00    +0.000 A 
BRANCH   5   8
ATOM      8  N   UNL     1      44.547   4.016  11.302  0.00  0.00    +0.000 N 
ATOM      9  H   UNL     1      43.674   4.350  10.899  0.00  0.00    +0.000 HD
BRANCH   8  10
ATOM     10  C   UNL     1      45.193   2.951  10.552  0.00  0.00    +0.000 C 
BRANCH  10  11
ATOM     11  C   UNL     1      44.469   2.673   9.219  0.00  0.00    +0.000 C 
ATOM     12  C   UNL     1      44.873   1.338   8.573  0.00  0.00    +0.000 C 
ATOM     13  C   UNL     1      46.328   1.342   8.100  0.00  0.00    +0.000 C 
ATOM     14  N   UNL     1      46.589   2.446   7.164  0.00  0.00    +0.000 NA
ATOM     15  C   UNL     1      47.993   2.430   6.750  0.00  0.00    +0.000 C 
ATOM     16  C   UNL     1      46.234   3.755   7.722  0.00  0.00    +0.000 C 
ATOM     17  C   UNL     1      44.779   3.796   8.214  0.00  0.00    +0.000 C 
ENDBRANCH  10  11
ENDBRANCH   8  10
ENDBRANCH   5   8
ENDBRANCH   1   2
BRANCH   1  20
ATOM     18  C   UNL     1      49.130   7.144  15.734  0.00  0.00    +0.000 C 
ATOM     19  O   UNL     1      50.096   6.692  15.120  0.00  0.00    +0.000 OA
ATOM     20  N   UNL     1      48.092   7.751  15.084  0.00  0.00    +0.000 N 
ATOM     21  H   UNL     1      47.303   8.098  15.612  0.00  0.00    +0.000 HD
BRANCH  18  29
ATOM     22  C   UNL     1      48.712   4.512  17.923  0.00  0.00    +0.000 A 
ATOM     23  N   UNL     1      48.608   3.688  18.986  0.00  0.00    +0.000 NA
ATOM     24  C   UNL     1      48.644   4.229  20.207  0.00  0.00    +0.000 A 
ATOM     25  N   UNL     1      48.759   5.520  20.507  0.00  0.00    +0.000 NA
ATOM     26  C   UNL     1      48.871   6.304  19.422  0.00  0.00    +0.000 A 
ATOM     27  S   UNL     1      49.015   7.984  19.618  0.00  0.00    +0.000 S 
ATOM     28  C   UNL     1      49.109   8.221  17.940  0.00  0.00    +0.000 A 
ATOM     29  C   UNL     1      49.043   7.046  17.200  0.00  0.00    +0.000 A 
ATOM     30  C   UNL     1      48.878   5.899  18.091  0.00  0.00    +0.000 A 
BRANCH  22  32
ATOM     31  C   UNL     1      48.729   2.529  16.681  0.00  0.00    +0.000 C 
ATOM     32  O   UNL     1      48.683   3.954  16.662  0.00  0.00    +0.000 OA
ENDBRANCH  22  32
ENDBRANCH  18  29
ENDBRANCH   1  20
TORSDOF 7
ENDMDL
MODEL 2
REMARK VINA RESULT:    -7.035      4.340      9.514
REMARK INTER + INTRA:         -10.944
REMARK INTER:                  -9.900
REMARK INTRA:                  -1.044
REMARK UNBOUND:                -1.030
REMARK  Name = 
REMARK  9 active torsions:
REMARK  status: ('A' for Active; 'I' for Inactive)
REMARK    1  A    between atoms: C_1  and  O_2
REMARK    2  A    between atoms: O_2  and  C_3
REMARK    3  A    between atoms: C_10  and  C_11
REMARK    4  A    between atoms: N_13  and  C_14
REMARK    5  A    between atoms: C_14  and  C_15
REMARK    6  A    between atoms: C_18  and  N_19
REMARK    7  A    between atoms: N_19  and  C_20
REMARK    8  A    between atoms: C_20  and  C_21
REMARK    9  A    between atoms: N_24  and  C_25
REMARK                            x       y       z     vdW  Elec       q    Type
REMARK                         _______ _______ _______ _____ _____    ______ ____
ROOT
ATOM      1  C   UNL     1      47.184   3.415  16.808  0.00  0.00    +0.000 C 
ENDROOT
BRANCH   1   2
ATOM      2  C   UNL     1      48.653   3.514  17.111  0.00  0.00    +0.000 A 
ATOM      3  C   UNL     1      49.244   4.751  17.379  0.00  0.00    +0.000 A 
ATOM      4  C   UNL     1      50.608   4.839  17.675  0.00  0.00    +0.000 A 
ATOM      5  C   UNL     1      51.432   3.707  17.690  0.00  0.00    +0.000 A 
ATOM      6  C   UNL     1      50.831   2.474  17.403  0.00  0.00    +0.000 A 
ATOM      7  C   UNL     1      49.466   2.377  17.105  0.00  0.00    +0.000 A 
BRANCH   5   8
ATOM      8  N   UNL     1      52.763   3.714  18.113  0.00  0.00    +0.000 N 
ATOM      9  H   UNL     1      53.044   4.606  18.514  0.00  0.00    +0.000 HD
BRANCH   8  10
ATOM     10  C   UNL     1      53.355   2.549  18.753  0.00  0.00    +0.000 C 
BRANCH  10  11
ATOM     11  C   UNL     1      54.467   1.927  17.885  0.00  0.00    +0.000 C 
ATOM     12  C   UNL     1      54.065   0.588  17.246  0.00  0.00    +0.000 C 
ATOM     13  C   UNL     1      53.880  -0.516  18.288  0.00  0.00    +0.000 C 
ATOM     14  N   UNL     1      55.091  -0.698  19.104  0.00  0.00    +0.000 NA
ATOM     15  C   UNL     1      54.870  -1.747  20.102  0.00  0.00    +0.000 C 
ATOM     16  C   UNL     1      55.527   0.543  19.752  0.00  0.00    +0.000 C 
ATOM     17  C   UNL     1      55.722   1.683  18.741  0.00  0.00    +0.000 C 
ENDBRANCH  10  11
ENDBRANCH   8  10
ENDBRANCH   5   8
ENDBRANCH   1   2
BRANCH   1  20
ATOM     18  C   UNL     1      46.859   4.200  14.485  0.00  0.00    +0.000 C 
ATOM     19  O   UNL     1      47.246   3.131  14.016  0.00  0.00    +0.000 OA
ATOM     20  N   UNL     1      46.804   4.409  15.835  0.00  0.00    +0.000 N 
ATOM     21  H   UNL     1      46.500   5.304  16.193  0.00  0.00    +0.000 HD
BRANCH  18  29
ATOM     22  C   UNL     1      44.016   4.846  12.642  0.00  0.00    +0.000 A 
ATOM     23  N   UNL     1      43.028   5.366  11.886  0.00  0.00    +0.000 NA
ATOM     24  C   UNL     1      43.228   6.563  11.327  0.00  0.00    +0.000 A 
ATOM     25  N   UNL     1      44.319   7.317  11.420  0.00  0.00    +0.000 NA
ATOM     26  C   UNL     1      45.274   6.768  12.190  0.00  0.00    +0.000 A 
ATOM     27  S   UNL     1      46.744   7.589  12.410  0.00  0.00    +0.000 S 
ATOM     28  C   UNL     1      47.336   6.358  13.417  0.00  0.00    +0.000 A 
ATOM     29  C   UNL     1      46.443   5.312  13.614  0.00  0.00    +0.000 A 
ATOM     30  C   UNL     1      45.215   5.550  12.860  0.00  0.00    +0.000 A 
BRANCH  22  32
ATOM     31  C   UNL     1      43.632   2.567  12.272  0.00  0.00    +0.000 C 
ATOM     32  O   UNL     1      43.808   3.613  13.225  0.00  0.00    +0.000 OA
ENDBRANCH  22  32
ENDBRANCH  18  29
ENDBRANCH   1  20
TORSDOF 7
ENDMDL
MODEL 3
REMARK VINA RESULT:    -6.676      3.883      9.375
REMARK INTER + INTRA:         -10.437
REMARK INTER:                  -9.321
REMARK INTRA:                  -1.117
REMARK UNBOUND:                -1.030
REMARK  Name = 
REMARK  9 active torsions:
REMARK  status: ('A' for Active; 'I' for Inactive)
REMARK    1  A    between atoms: C_1  and  O_2
REMARK    2  A    between atoms: O_2  and  C_3
REMARK    3  A    between atoms: C_10  and  C_11
REMARK    4  A    between atoms: N_13  and  C_14
REMARK    5  A    between atoms: C_14  and  C_15
REMARK    6  A    between atoms: C_18  and  N_19
REMARK    7  A    between atoms: N_19  and  C_20
REMARK    8  A    between atoms: C_20  and  C_21
REMARK    9  A    between atoms: N_24  and  C_25
REMARK                            x       y       z     vdW  Elec       q    Type
REMARK                         _______ _______ _______ _____ _____    ______ ____
ROOT
ATOM      1  C   UNL     1      47.159   3.386  16.925  0.00  0.00    +0.000 C 
ENDROOT
BRANCH   1   2
ATOM      2  C   UNL     1      48.632   3.258  17.197  0.00  0.00    +0.000 A 
ATOM      3  C   UNL     1      49.335   4.296  17.812  0.00  0.00    +0.000 A 
ATOM      4  C   UNL     1      50.702   4.169  18.077  0.00  0.00    +0.000 A 
ATOM      5  C   UNL     1      51.419   3.020  17.719  0.00  0.00    +0.000 A 
ATOM      6  C   UNL     1      50.705   1.992  17.088  0.00  0.00    +0.000 A 
ATOM      7  C   UNL     1      49.336   2.111  16.818  0.00  0.00    +0.000 A 
BRANCH   5   8
ATOM      8  N   UNL     1      52.746   2.781  18.082  0.00  0.00    +0.000 N 
ATOM      9  H   UNL     1      53.320   2.478  17.299  0.00  0.00    +0.000 HD
BRANCH   8  10
ATOM     10  C   UNL     1      53.429   3.637  19.040  0.00  0.00    +0.000 C 
BRANCH  10  11
ATOM     11  C   UNL     1      54.809   4.084  18.520  0.00  0.00    +0.000 C 
ATOM     12  C   UNL     1      55.432   5.222  19.345  0.00  0.00    +0.000 C 
ATOM     13  C   UNL     1      54.650   6.529  19.209  0.00  0.00    +0.000 C 
ATOM     14  N   UNL     1      54.530   6.943  17.803  0.00  0.00    +0.000 NA
ATOM     15  C   UNL     1      53.759   8.185  17.710  0.00  0.00    +0.000 C 
ATOM     16  C   UNL     1      53.933   5.904  16.956  0.00  0.00    +0.000 C 
ATOM     17  C   UNL     1      54.686   4.570  17.065  0.00  0.00    +0.000 C 
ENDBRANCH  10  11
ENDBRANCH   8  10
ENDBRANCH   5   8
ENDBRANCH   1   2
BRANCH   1  20
ATOM     18  C   UNL     1      46.966   4.171  14.587  0.00  0.00    +0.000 C 
ATOM     19  O   UNL     1      47.223   3.056  14.137  0.00  0.00    +0.000 OA
ATOM     20  N   UNL     1      46.918   4.405  15.933  0.00  0.00    +0.000 N 
ATOM     21  H   UNL     1      46.721   5.335  16.275  0.00  0.00    +0.000 HD
BRANCH  18  29
ATOM     22  C   UNL     1      44.239   5.152  12.717  0.00  0.00    +0.000 A 
ATOM     23  N   UNL     1      43.331   5.784  11.946  0.00  0.00    +0.000 NA
ATOM     24  C   UNL     1      43.687   6.935  11.369  0.00  0.00    +0.000 A 
ATOM     25  N   UNL     1      44.868   7.541  11.456  0.00  0.00    +0.000 NA
ATOM     26  C   UNL     1      45.739   6.885  12.241  0.00  0.00    +0.000 A 
ATOM     27  S   UNL     1      47.303   7.510  12.457  0.00  0.00    +0.000 S 
ATOM     28  C   UNL     1      47.725   6.230  13.487  0.00  0.00    +0.000 A 
ATOM     29  C   UNL     1      46.702   5.312  13.696  0.00  0.00    +0.000 A 
ATOM     30  C   UNL     1      45.518   5.697  12.930  0.00  0.00    +0.000 A 
BRANCH  22  32
ATOM     31  C   UNL     1      43.709   2.896  12.391  0.00  0.00    +0.000 C 
ATOM     32  O   UNL     1      43.869   3.966  13.318  0.00  0.00    +0.000 OA
ENDBRANCH  22  32
ENDBRANCH  18  29
ENDBRANCH   1  20
TORSDOF 7
ENDMDL
MODEL 4
REMARK VINA RESULT:    -6.514      5.317      8.134
REMARK INTER + INTRA:         -10.209
REMARK INTER:                  -9.226
REMARK INTRA:                  -0.983
REMARK UNBOUND:                -1.030
REMARK  Name = 
REMARK  9 active torsions:
REMARK  status: ('A' for Active; 'I' for Inactive)
REMARK    1  A    between atoms: C_1  and  O_2
REMARK    2  A    between atoms: O_2  and  C_3
REMARK    3  A    between atoms: C_10  and  C_11
REMARK    4  A    between atoms: N_13  and  C_14
REMARK    5  A    between atoms: C_14  and  C_15
REMARK    6  A    between atoms: C_18  and  N_19
REMARK    7  A    between atoms: N_19  and  C_20
REMARK    8  A    between atoms: C_20  and  C_21
REMARK    9  A    between atoms: N_24  and  C_25
REMARK                            x       y       z     vdW  Elec       q    Type
REMARK                         _______ _______ _______ _____ _____    ______ ____
ROOT
ATOM      1  C   UNL     1      51.303   8.490  11.852  0.00  0.00    +0.000 C 
ENDROOT
BRANCH   1   2
ATOM      2  C   UNL     1      49.989   7.933  12.325  0.00  0.00    +0.000 A 
ATOM      3  C   UNL     1      49.821   7.533  13.652  0.00  0.00    +0.000 A 
ATOM      4  C   UNL     1      48.594   7.029  14.093  0.00  0.00    +0.000 A 
ATOM      5  C   UNL     1      47.503   6.882  13.226  0.00  0.00    +0.000 A 
ATOM      6  C   UNL     1      47.690   7.271  11.893  0.00  0.00    +0.000 A 
ATOM      7  C   UNL     1      48.916   7.777  11.442  0.00  0.00    +0.000 A 
BRANCH   5   8
ATOM      8  N   UNL     1      46.219   6.518  13.638  0.00  0.00    +0.000 N 
ATOM      9  H   UNL     1      45.559   7.290  13.596  0.00  0.00    +0.000 HD
BRANCH   8  10
ATOM     10  C   UNL     1      45.659   5.221  13.292  0.00  0.00    +0.000 C 
BRANCH  10  11
ATOM     11  C   UNL     1      44.198   5.342  12.814  0.00  0.00    +0.000 C 
ATOM     12  C   UNL     1      43.430   4.011  12.859  0.00  0.00    +0.000 C 
ATOM     13  C   UNL     1      43.968   2.999  11.846  0.00  0.00    +0.000 C 
ATOM     14  N   UNL     1      43.946   3.540  10.478  0.00  0.00    +0.000 NA
ATOM     15  C   UNL     1      44.486   2.555   9.540  0.00  0.00    +0.000 C 
ATOM     16  C   UNL     1      44.670   4.811  10.361  0.00  0.00    +0.000 C 
ATOM     17  C   UNL     1      44.164   5.857  11.365  0.00  0.00    +0.000 C 
ENDBRANCH  10  11
ENDBRANCH   8  10
ENDBRANCH   5   8
ENDBRANCH   1   2
BRANCH   1  20
ATOM     18  C   UNL     1      52.944   7.636  10.210  0.00  0.00    +0.000 C 
ATOM     19  O   UNL     1      53.043   8.732   9.662  0.00  0.00    +0.000 OA
ATOM     20  N   UNL     1      52.115   7.445  11.280  0.00  0.00    +0.000 N 
ATOM     21  H   UNL     1      52.039   6.528  11.700  0.00  0.00    +0.000 HD
BRANCH  18  29
ATOM     22  C   UNL     1      53.080   5.941   7.210  0.00  0.00    +0.000 A 
ATOM     23  N   UNL     1      53.364   5.140   6.162  0.00  0.00    +0.000 NA
ATOM     24  C   UNL     1      54.280   4.183   6.333  0.00  0.00    +0.000 A 
ATOM     25  N   UNL     1      54.954   3.910   7.447  0.00  0.00    +0.000 NA
ATOM     26  C   UNL     1      54.650   4.736   8.462  0.00  0.00    +0.000 A 
ATOM     27  S   UNL     1      55.408   4.525   9.966  0.00  0.00    +0.000 S 
ATOM     28  C   UNL     1      54.567   5.842  10.628  0.00  0.00    +0.000 A 
ATOM     29  C   UNL     1      53.708   6.471   9.735  0.00  0.00    +0.000 A 
ATOM     30  C   UNL     1      53.744   5.792   8.441  0.00  0.00    +0.000 A 
BRANCH  22  32
ATOM     31  C   UNL     1      52.648   8.067   6.333  0.00  0.00    +0.000 C 
ATOM     32  O   UNL     1      52.139   6.934   7.032  0.00  0.00    +0.000 OA
ENDBRANCH  22  32
ENDBRANCH  18  29
ENDBRANCH   1  20
TORSDOF 7
ENDMDL
MODEL 5
REMARK VINA RESULT:    -6.478      3.559      5.581
REMARK INTER + INTRA:         -10.159
REMARK INTER:                  -8.886
REMARK INTRA:                  -1.273
REMARK UNBOUND:                -1.030
REMARK  Name = 
REMARK  9 active torsions:
REMARK  status: ('A' for Active; 'I' for Inactive)
REMARK    1  A    between atoms: C_1  and  O_2
REMARK    2  A    between atoms: O_2  and  C_3
REMARK    3  A    between atoms: C_10  and  C_11
REMARK    4  A    between atoms: N_13  and  C_14
REMARK    5  A    between atoms: C_14  and  C_15
REMARK    6  A    between atoms: C_18  and  N_19
REMARK    7  A    between atoms: N_19  and  C_20
REMARK    8  A    between atoms: C_20  and  C_21
REMARK    9  A    between atoms: N_24  and  C_25
REMARK                            x       y       z     vdW  Elec       q    Type
REMARK                         _______ _______ _______ _____ _____    ______ ____
ROOT
ATOM      1  C   UNL     1      48.372   3.214  18.048  0.00  0.00    +0.000 C 
ENDROOT
BRANCH   1   2
ATOM      2  C   UNL     1      48.118   4.118  16.874  0.00  0.00    +0.000 A 
ATOM      3  C   UNL     1      48.618   5.422  16.858  0.00  0.00    +0.000 A 
ATOM      4  C   UNL     1      48.394   6.256  15.758  0.00  0.00    +0.000 A 
ATOM      5  C   UNL     1      47.647   5.831  14.652  0.00  0.00    +0.000 A 
ATOM      6  C   UNL     1      47.137   4.526  14.687  0.00  0.00    +0.000 A 
ATOM      7  C   UNL     1      47.356   3.684  15.784  0.00  0.00    +0.000 A 
BRANCH   5   8
ATOM      8  N   UNL     1      47.509   6.566  13.472  0.00  0.00    +0.000 N 
ATOM      9  H   UNL     1      48.256   7.245  13.341  0.00  0.00    +0.000 HD
BRANCH   8  10
ATOM     10  C   UNL     1      47.039   5.938  12.246  0.00  0.00    +0.000 C 
BRANCH  10  11
ATOM     11  C   UNL     1      45.722   6.570  11.753  0.00  0.00    +0.000 C 
ATOM     12  C   UNL     1      44.558   6.401  12.742  0.00  0.00    +0.000 C 
ATOM     13  C   UNL     1      44.127   4.940  12.884  0.00  0.00    +0.000 C 
ATOM     14  N   UNL     1      43.763   4.356  11.583  0.00  0.00    +0.000 NA
ATOM     15  C   UNL     1      43.376   2.954  11.754  0.00  0.00    +0.000 C 
ATOM     16  C   UNL     1      44.836   4.475  10.590  0.00  0.00    +0.000 C 
ATOM     17  C   UNL     1      45.304   5.928  10.418  0.00  0.00    +0.000 C 
ENDBRANCH  10  11
ENDBRANCH   8  10
ENDBRANCH   5   8
ENDBRANCH   1   2
BRANCH   1  20
ATOM     18  C   UNL     1      50.512   2.180  17.365  0.00  0.00    +0.000 C 
ATOM     19  O   UNL     1      49.989   1.604  16.412  0.00  0.00    +0.000 OA
ATOM     20  N   UNL     1      49.785   2.978  18.204  0.00  0.00    +0.000 N 
ATOM     21  H   UNL     1      50.238   3.425  18.989  0.00  0.00    +0.000 HD
BRANCH  18  29
ATOM     22  C   UNL     1      53.092   4.420  17.831  0.00  0.00    +0.000 A 
ATOM     23  N   UNL     1      54.253   5.054  18.095  0.00  0.00    +0.000 NA
ATOM     24  C   UNL     1      55.330   4.310  18.362  0.00  0.00    +0.000 A 
ATOM     25  N   UNL     1      55.399   2.982  18.385  0.00  0.00    +0.000 NA
ATOM     26  C   UNL     1      54.220   2.390  18.127  0.00  0.00    +0.000 A 
ATOM     27  S   UNL     1      54.125   0.695  18.102  0.00  0.00    +0.000 S 
ATOM     28  C   UNL     1      52.466   0.745  17.751  0.00  0.00    +0.000 A 
ATOM     29  C   UNL     1      51.948   2.031  17.653  0.00  0.00    +0.000 A 
ATOM     30  C   UNL     1      53.007   3.016  17.857  0.00  0.00    +0.000 A 
BRANCH  22  32
ATOM     31  C   UNL     1      52.220   6.203  16.590  0.00  0.00    +0.000 C 
ATOM     32  O   UNL     1      51.978   5.188  17.563  0.00  0.00    +0.000 OA
ENDBRANCH  22  32
ENDBRANCH  18  29
ENDBRANCH   1  20
TORSDOF 7
ENDMDL
MODEL 6
REMARK VINA RESULT:    -6.459      3.272      8.347
REMARK INTER + INTRA:         -10.132
REMARK INTER:                  -8.796
REMARK INTRA:                  -1.337
REMARK UNBOUND:                -1.030
REMARK  Name = 
REMARK  9 active torsions:
REMARK  status: ('A' for Active; 'I' for Inactive)
REMARK    1  A    between atoms: C_1  and  O_2
REMARK    2  A    between atoms: O_2  and  C_3
REMARK    3  A    between atoms: C_10  and  C_11
REMARK    4  A    between atoms: N_13  and  C_14
REMARK    5  A    between atoms: C_14  and  C_15
REMARK    6  A    between atoms: C_18  and  N_19
REMARK    7  A    between atoms: N_19  and  C_20
REMARK    8  A    between atoms: C_20  and  C_21
REMARK    9  A    between atoms: N_24  and  C_25
REMARK                            x       y       z     vdW  Elec       q    Type
REMARK                         _______ _______ _______ _____ _____    ______ ____
ROOT
ATOM      1  C   UNL     1      48.407   8.091  11.776  0.00  0.00    +0.000 C 
ENDROOT
BRANCH   1   2
ATOM      2  C   UNL     1      48.512   8.010  13.273  0.00  0.00    +0.000 A 
ATOM      3  C   UNL     1      49.125   6.914  13.886  0.00  0.00    +0.000 A 
ATOM      4  C   UNL     1      49.235   6.848  15.278  0.00  0.00    +0.000 A 
ATOM      5  C   UNL     1      48.719   7.853  16.107  0.00  0.00    +0.000 A 
ATOM      6  C   UNL     1      48.092   8.938  15.481  0.00  0.00    +0.000 A 
ATOM      7  C   UNL     1      47.977   9.013  14.087  0.00  0.00    +0.000 A 
BRANCH   5   8
ATOM      8  N   UNL     1      48.922   7.909  17.488  0.00  0.00    +0.000 N 
ATOM      9  H   UNL     1      48.094   8.214  17.995  0.00  0.00    +0.000 HD
BRANCH   8  10
ATOM     10  C   UNL     1      49.716   6.900  18.172  0.00  0.00    +0.000 C 
BRANCH  10  11
ATOM     11  C   UNL     1      48.912   6.207  19.291  0.00  0.00    +0.000 C 
ATOM     12  C   UNL     1      49.499   4.850  19.711  0.00  0.00    +0.000 C 
ATOM     13  C   UNL     1      49.386   3.803  18.601  0.00  0.00    +0.000 C 
ATOM     14  N   UNL     1      47.993   3.627  18.164  0.00  0.00    +0.000 NA
ATOM     15  C   UNL     1      47.926   2.635  17.090  0.00  0.00    +0.000 C 
ATOM     16  C   UNL     1      47.371   4.886  17.739  0.00  0.00    +0.000 C 
ATOM     17  C   UNL     1      47.465   5.970  18.824  0.00  0.00    +0.000 C 
ENDBRANCH  10  11
ENDBRANCH   8  10
ENDBRANCH   5   8
ENDBRANCH   1   2
BRANCH   1  20
ATOM     18  C   UNL     1      46.281   6.936  11.266  0.00  0.00    +0.000 C 
ATOM     19  O   UNL     1      45.610   7.865  11.714  0.00  0.00    +0.000 OA
ATOM     20  N   UNL     1      47.647   6.978  11.265  0.00  0.00    +0.000 N 
ATOM     21  H   UNL     1      48.173   6.193  10.907  0.00  0.00    +0.000 HD
BRANCH  18  29
ATOM     22  C   UNL     1      44.522   4.321  12.667  0.00  0.00    +0.000 A 
ATOM     23  N   UNL     1      43.779   3.227  12.931  0.00  0.00    +0.000 NA
ATOM     24  C   UNL     1      43.421   2.447  11.907  0.00  0.00    +0.000 A 
ATOM     25  N   UNL     1      43.730   2.618  10.625  0.00  0.00    +0.000 NA
ATOM     26  C   UNL     1      44.461   3.724  10.403  0.00  0.00    +0.000 A 
ATOM     27  S   UNL     1      44.957   4.094   8.822  0.00  0.00    +0.000 S 
ATOM     28  C   UNL     1      45.743   5.504   9.347  0.00  0.00    +0.000 A 
ATOM     29  C   UNL     1      45.643   5.730  10.715  0.00  0.00    +0.000 A 
ATOM     30  C   UNL     1      44.892   4.649  11.350  0.00  0.00    +0.000 A 
BRANCH  22  32
ATOM     31  C   UNL     1      46.198   4.856  14.210  0.00  0.00    +0.000 C 
ATOM     32  O   UNL     1      44.886   5.131  13.723  0.00  0.00    +0.000 OA
ENDBRANCH  22  32
ENDBRANCH  18  29
ENDBRANCH   1  20
TORSDOF 7
ENDMDL
MODEL 7
REMARK VINA RESULT:    -6.384      3.040      4.333
REMARK INTER + INTRA:         -10.026
REMARK INTER:                  -8.937
REMARK INTRA:                  -1.089
REMARK UNBOUND:                -1.030
REMARK  Name = 
REMARK  9 active torsions:
REMARK  status: ('A' for Active; 'I' for Inactive)
REMARK    1  A    between atoms: C_1  and  O_2
REMARK    2  A    between atoms: O_2  and  C_3
REMARK    3  A    between atoms: C_10  and  C_11
REMARK    4  A    between atoms: N_13  and  C_14
REMARK    5  A    between atoms: C_14  and  C_15
REMARK    6  A    between atoms: C_18  and  N_19
REMARK    7  A    between atoms: N_19  and  C_20
REMARK    8  A    between atoms: C_20  and  C_21
REMARK    9  A    between atoms: N_24  and  C_25
REMARK                            x       y       z     vdW  Elec       q    Type
REMARK                         _______ _______ _______ _____ _____    ______ ____
ROOT
ATOM      1  C   UNL     1      51.330   7.632  16.030  0.00  0.00    +0.000 C 
ENDROOT
BRANCH   1   2
ATOM      2  C   UNL     1      50.140   7.301  15.173  0.00  0.00    +0.000 A 
ATOM      3  C   UNL     1      50.078   7.728  13.844  0.00  0.00    +0.000 A 
ATOM      4  C   UNL     1      48.978   7.406  13.044  0.00  0.00    +0.000 A 
ATOM      5  C   UNL     1      47.894   6.672  13.543  0.00  0.00    +0.000 A 
ATOM      6  C   UNL     1      47.960   6.264  14.882  0.00  0.00    +0.000 A 
ATOM      7  C   UNL     1      49.059   6.582  15.691  0.00  0.00    +0.000 A 
BRANCH   5   8
ATOM      8  N   UNL     1      46.838   6.204  12.758  0.00  0.00    +0.000 N 
ATOM      9  H   UNL     1      47.097   6.085  11.781  0.00  0.00    +0.000 HD
BRANCH   8  10
ATOM     10  C   UNL     1      45.910   5.205  13.265  0.00  0.00    +0.000 C 
BRANCH  10  11
ATOM     11  C   UNL     1      44.465   5.489  12.810  0.00  0.00    +0.000 C 
ATOM     12  C   UNL     1      43.528   4.280  12.966  0.00  0.00    +0.000 C 
ATOM     13  C   UNL     1      43.897   3.138  12.017  0.00  0.00    +0.000 C 
ATOM     14  N   UNL     1      43.905   3.582  10.615  0.00  0.00    +0.000 NA
ATOM     15  C   UNL     1      44.282   2.470   9.739  0.00  0.00    +0.000 C 
ATOM     16  C   UNL     1      44.789   4.732  10.392  0.00  0.00    +0.000 C 
ATOM     17  C   UNL     1      44.457   5.903  11.328  0.00  0.00    +0.000 C 
ENDBRANCH  10  11
ENDBRANCH   8  10
ENDBRANCH   5   8
ENDBRANCH   1   2
BRANCH   1  20
ATOM     18  C   UNL     1      51.826   5.994  17.816  0.00  0.00    +0.000 C 
ATOM     19  O   UNL     1      51.178   6.628  18.647  0.00  0.00    +0.000 OA
ATOM     20  N   UNL     1      51.944   6.425  16.523  0.00  0.00    +0.000 N 
ATOM     21  H   UNL     1      52.498   5.894  15.865  0.00  0.00    +0.000 HD
BRANCH  18  29
ATOM     22  C   UNL     1      51.077   2.656  17.381  0.00  0.00    +0.000 A 
ATOM     23  N   UNL     1      51.062   1.309  17.307  0.00  0.00    +0.000 NA
ATOM     24  C   UNL     1      52.099   0.640  17.818  0.00  0.00    +0.000 A 
ATOM     25  N   UNL     1      53.168   1.157  18.418  0.00  0.00    +0.000 NA
ATOM     26  C   UNL     1      53.149   2.500  18.461  0.00  0.00    +0.000 A 
ATOM     27  S   UNL     1      54.430   3.330  19.203  0.00  0.00    +0.000 S 
ATOM     28  C   UNL     1      53.721   4.833  18.859  0.00  0.00    +0.000 A 
ATOM     29  C   UNL     1      52.514   4.743  18.174  0.00  0.00    +0.000 A 
ATOM     30  C   UNL     1      52.162   3.342  17.956  0.00  0.00    +0.000 A 
BRANCH  22  32
ATOM     31  C   UNL     1      48.796   3.143  17.566  0.00  0.00    +0.000 C 
ATOM     32  O   UNL     1      50.010   3.348  16.847  0.00  0.00    +0.000 OA
ENDBRANCH  22  32
ENDBRANCH  18  29
ENDBRANCH   1  20
TORSDOF 7
ENDMDL
MODEL 8
REMARK VINA RESULT:    -6.125      3.696      5.690
REMARK INTER + INTRA:          -9.661
REMARK INTER:                  -8.429
REMARK INTRA:                  -1.232
REMARK UNBOUND:                -1.030
REMARK  Name = 
REMARK  9 active torsions:
REMARK  status: ('A' for Active; 'I' for Inactive)
REMARK    1  A    between atoms: C_1  and  O_2
REMARK    2  A    between atoms: O_2  and  C_3
REMARK    3  A    between atoms: C_10  and  C_11
REMARK    4  A    between atoms: N_13  and  C_14
REMARK    5  A    between atoms: C_14  and  C_15
REMARK    6  A    between atoms: C_18  and  N_19
REMARK    7  A    between atoms: N_19  and  C_20
REMARK    8  A    between atoms: C_20  and  C_21
REMARK    9  A    between atoms: N_24  and  C_25
REMARK                            x       y       z     vdW  Elec       q    Type
REMARK                         _______ _______ _______ _____ _____    ______ ____
ROOT
ATOM      1  C   UNL     1      48.563   7.710  14.364  0.00  0.00    +0.000 C 
ENDROOT
BRANCH   1   2
ATOM      2  C   UNL     1      47.647   6.831  13.558  0.00  0.00    +0.000 A 
ATOM      3  C   UNL     1      47.199   5.611  14.070  0.00  0.00    +0.000 A 
ATOM      4  C   UNL     1      46.335   4.802  13.325  0.00  0.00    +0.000 A 
ATOM      5  C   UNL     1      45.909   5.165  12.041  0.00  0.00    +0.000 A 
ATOM      6  C   UNL     1      46.379   6.384  11.533  0.00  0.00    +0.000 A 
ATOM      7  C   UNL     1      47.245   7.200  12.271  0.00  0.00    +0.000 A 
BRANCH   5   8
ATOM      8  N   UNL     1      44.943   4.470  11.311  0.00  0.00    +0.000 N 
ATOM      9  H   UNL     1      44.378   5.080  10.725  0.00  0.00    +0.000 HD
BRANCH   8  10
ATOM     10  C   UNL     1      45.232   3.168  10.730  0.00  0.00    +0.000 C 
BRANCH  10  11
ATOM     11  C   UNL     1      44.441   2.938   9.427  0.00  0.00    +0.000 C 
ATOM     12  C   UNL     1      44.707   1.566   8.787  0.00  0.00    +0.000 C 
ATOM     13  C   UNL     1      46.139   1.440   8.266  0.00  0.00    +0.000 C 
ATOM     14  N   UNL     1      46.460   2.507   7.305  0.00  0.00    +0.000 NA
ATOM     15  C   UNL     1      47.843   2.367   6.843  0.00  0.00    +0.000 C 
ATOM     16  C   UNL     1      46.237   3.848   7.855  0.00  0.00    +0.000 C 
ATOM     17  C   UNL     1      44.809   4.019   8.396  0.00  0.00    +0.000 C 
ENDBRANCH  10  11
ENDBRANCH   8  10
ENDBRANCH   5   8
ENDBRANCH   1   2
BRANCH   1  20
ATOM     18  C   UNL     1      50.938   8.399  14.323  0.00  0.00    +0.000 C 
ATOM     19  O   UNL     1      50.843   8.973  15.407  0.00  0.00    +0.000 OA
ATOM     20  N   UNL     1      49.869   7.765  13.755  0.00  0.00    +0.000 N 
ATOM     21  H   UNL     1      49.971   7.316  12.855  0.00  0.00    +0.000 HD
BRANCH  18  29
ATOM     22  C   UNL     1      51.777   8.941  11.022  0.00  0.00    +0.000 A 
ATOM     23  N   UNL     1      52.384   9.142   9.835  0.00  0.00    +0.000 NA
ATOM     24  C   UNL     1      53.712   9.011   9.776  0.00  0.00    +0.000 A 
ATOM     25  N   UNL     1      54.528   8.685  10.775  0.00  0.00    +0.000 NA
ATOM     26  C   UNL     1      53.886   8.503  11.941  0.00  0.00    +0.000 A 
ATOM     27  S   UNL     1      54.771   8.069  13.323  0.00  0.00    +0.000 S 
ATOM     28  C   UNL     1      53.367   8.049  14.276  0.00  0.00    +0.000 A 
ATOM     29  C   UNL     1      52.209   8.375  13.580  0.00  0.00    +0.000 A 
ATOM     30  C   UNL     1      52.520   8.626  12.175  0.00  0.00    +0.000 A 
BRANCH  22  32
ATOM     31  C   UNL     1      49.986  10.445  11.104  0.00  0.00    +0.000 C 
ATOM     32  O   UNL     1      50.406   9.083  11.085  0.00  0.00    +0.000 OA
ENDBRANCH  22  32
ENDBRANCH  18  29
ENDBRANCH   1  20
TORSDOF 7
ENDMDL
MODEL 9
REMARK VINA RESULT:    -5.999      3.876      9.590
REMARK INTER + INTRA:          -9.483
REMARK INTER:                  -8.397
REMARK INTRA:                  -1.087
REMARK UNBOUND:                -1.030
REMARK  Name = 
REMARK  9 active torsions:
REMARK  status: ('A' for Active; 'I' for Inactive)
REMARK    1  A    between atoms: C_1  and  O_2
REMARK    2  A    between atoms: O_2  and  C_3
REMARK    3  A    between atoms: C_10  and  C_11
REMARK    4  A    between atoms: N_13  and  C_14
REMARK    5  A    between atoms: C_14  and  C_15
REMARK    6  A    between atoms: C_18  and  N_19
REMARK    7  A    between atoms: N_19  and  C_20
REMARK    8  A    between atoms: C_20  and  C_21
REMARK    9  A    between atoms: N_24  and  C_25
REMARK                            x       y       z     vdW  Elec       q    Type
REMARK                         _______ _______ _______ _____ _____    ______ ____
ROOT
ATOM      1  C   UNL     1      47.545   3.692  16.627  0.00  0.00    +0.000 C 
ENDROOT
BRANCH   1   2
ATOM      2  C   UNL     1      48.616   4.357  17.446  0.00  0.00    +0.000 A 
ATOM      3  C   UNL     1      48.991   3.838  18.687  0.00  0.00    +0.000 A 
ATOM      4  C   UNL     1      49.998   4.450  19.439  0.00  0.00    +0.000 A 
ATOM      5  C   UNL     1      50.647   5.610  18.997  0.00  0.00    +0.000 A 
ATOM      6  C   UNL     1      50.251   6.130  17.757  0.00  0.00    +0.000 A 
ATOM      7  C   UNL     1      49.243   5.524  16.997  0.00  0.00    +0.000 A 
BRANCH   5   8
ATOM      8  N   UNL     1      51.749   6.181  19.635  0.00  0.00    +0.000 N 
ATOM      9  H   UNL     1      51.486   6.877  20.329  0.00  0.00    +0.000 HD
BRANCH   8  10
ATOM     10  C   UNL     1      52.911   5.380  19.991  0.00  0.00    +0.000 C 
BRANCH  10  11
ATOM     11  C   UNL     1      53.938   5.326  18.843  0.00  0.00    +0.000 C 
ATOM     12  C   UNL     1      53.581   4.301  17.755  0.00  0.00    +0.000 C 
ATOM     13  C   UNL     1      53.665   2.862  18.267  0.00  0.00    +0.000 C 
ATOM     14  N   UNL     1      54.996   2.561  18.816  0.00  0.00    +0.000 NA
ATOM     15  C   UNL     1      55.034   1.185  19.315  0.00  0.00    +0.000 C 
ATOM     16  C   UNL     1      55.398   3.499  19.870  0.00  0.00    +0.000 C 
ATOM     17  C   UNL     1      55.325   4.960  19.400  0.00  0.00    +0.000 C 
ENDBRANCH  10  11
ENDBRANCH   8  10
ENDBRANCH   5   8
ENDBRANCH   1   2
BRANCH   1  20
ATOM     18  C   UNL     1      46.858   4.345  14.343  0.00  0.00    +0.000 C 
ATOM     19  O   UNL     1      47.213   3.266  13.872  0.00  0.00    +0.000 OA
ATOM     20  N   UNL     1      46.991   4.622  15.675  0.00  0.00    +0.000 N 
ATOM     21  H   UNL     1      46.707   5.524  16.032  0.00  0.00    +0.000 HD
BRANCH  18  29
ATOM     22  C   UNL     1      43.990   4.555  12.438  0.00  0.00    +0.000 A 
ATOM     23  N   UNL     1      42.946   4.923  11.668  0.00  0.00    +0.000 NA
ATOM     24  C   UNL     1      42.950   6.154  11.149  0.00  0.00    +0.000 A 
ATOM     25  N   UNL     1      43.894   7.080  11.293  0.00  0.00    +0.000 NA
ATOM     26  C   UNL     1      44.910   6.678  12.075  0.00  0.00    +0.000 A 
ATOM     27  S   UNL     1      46.212   7.730  12.360  0.00  0.00    +0.000 S 
ATOM     28  C   UNL     1      46.983   6.586  13.348  0.00  0.00    +0.000 A 
ATOM     29  C   UNL     1      46.278   5.397  13.492  0.00  0.00    +0.000 A 
ATOM     30  C   UNL     1      45.045   5.446  12.709  0.00  0.00    +0.000 A 
BRANCH  22  32
ATOM     31  C   UNL     1      43.437   2.306  12.101  0.00  0.00    +0.000 C 
ATOM     32  O   UNL     1      43.983   3.287  12.981  0.00  0.00    +0.000 OA
ENDBRANCH  22  32
ENDBRANCH  18  29
ENDBRANCH   1  20
TORSDOF 7
ENDMDL
