MODEL 1
REMARK VINA RESULT:    -7.853      0.000      0.000
REMARK INTER + INTRA:         -10.733
REMARK INTER:                 -10.148
REMARK INTRA:                  -0.585
REMARK UNBOUND:                -0.585
REMARK  Name = 
REMARK  5 active torsions:
REMARK  status: ('A' for Active; 'I' for Inactive)
REMARK    1  A    between atoms: C_2  and  C_3
REMARK    2  A    between atoms: C_6  and  N_7
REMARK    3  A    between atoms: N_7  and  C_8
REMARK    4  A    between atoms: C_8  and  C_9
REMARK    5  A    between atoms: C_13  and  C_14
REMARK                            x       y       z     vdW  Elec       q    Type
REMARK                         _______ _______ _______ _____ _____    ______ ____
ROOT
ATOM      1  C   UNL     1      44.753   5.557  11.918  0.00  0.00    +0.000 A 
ATOM      2  C   UNL     1      45.117   6.754  11.292  0.00  0.00    +0.000 A 
ATOM      3  C   UNL     1      46.156   7.528  11.805  0.00  0.00    +0.000 A 
ATOM      4  C   UNL     1      46.859   7.102  12.935  0.00  0.00    +0.000 A 
ATOM      5  C   UNL     1      46.538   5.898  13.586  0.00  0.00    +0.000 A 
ATOM      6  C   UNL     1      45.457   5.156  13.071  0.00  0.00    +0.000 A 
ENDROOT
BRANCH   5   7
ATOM      7  C   UNL     1      47.345   5.397  14.720  0.00  0.00    +0.000 A 
ATOM      8  C   UNL     1      48.442   6.099  15.234  0.00  0.00    +0.000 A 
ATOM      9  N   UNL     1      49.192   5.715  16.301  0.00  0.00    +0.000 NA
ATOM     10  C   UNL     1      48.838   4.556  16.897  0.00  0.00    +0.000 A 
ATOM     11  C   UNL     1      47.781   3.776  16.470  0.00  0.00    +0.000 A 
ATOM     12  F   UNL     1      47.472   2.636  17.100  0.00  0.00    +0.000 F 
ATOM     13  C   UNL     1      47.029   4.196  15.379  0.00  0.00    +0.000 A 
ENDBRANCH   5   7
BRANCH   1  14
ATOM     14  C   UNL     1      43.728   4.634  11.296  0.00  0.00    +0.000 C 
BRANCH  14  15
ATOM     15  N   UNL     1      43.817   4.649   9.853  0.00  0.00    +0.000 N 
ATOM     16  H   UNL     1      43.479   5.472   9.364  0.00  0.00    +0.000 HD
BRANCH  15  20
ATOM     17  C   UNL     1      46.570   2.671   7.556  0.00  0.00    +0.000 A 
ATOM     18  C   UNL     1      46.400   4.042   7.503  0.00  0.00    +0.000 A 
ATOM     19  N   UNL     1      45.512   4.707   8.290  0.00  0.00    +0.000 NA
ATOM     20  C   UNL     1      44.761   3.962   9.131  0.00  0.00    +0.000 A 
ATOM     21  C   UNL     1      44.935   2.572   9.154  0.00  0.00    +0.000 A 
ATOM     22  N   UNL     1      45.840   1.901   8.391  0.00  0.00    +0.000 NA
BRANCH  17  24
ATOM     23  N   UNL     1      48.356   1.494   6.083  0.00  0.00    +0.000 NA
ATOM     24  C   UNL     1      47.542   2.011   6.739  0.00  0.00    +0.000 C 
ENDBRANCH  17  24
ENDBRANCH  15  20
ENDBRANCH  14  15
ENDBRANCH   1  14
TORSDOF 5
ENDMDL
MODEL 2
REMARK VINA RESULT:    -7.801      2.785      3.906
REMARK INTER + INTRA:         -10.666
REMARK INTER:                 -10.069
REMARK INTRA:                  -0.597
REMARK UNBOUND:                -0.585
REMARK  Name = 
REMARK  5 active torsions:
REMARK  status: ('A' for Active; 'I' for Inactive)
REMARK    1  A    between atoms: C_2  and  C_3
REMARK    2  A    between atoms: C_6  and  N_7
REMARK    3  A    between atoms: N_7  and  C_8
REMARK    4  A    between atoms: C_8  and  C_9
REMARK    5  A    between atoms: C_13  and  C_14
REMARK                            x       y       z     vdW  Elec       q    Type
REMARK                         _______ _______ _______ _____ _____    ______ ____
ROOT
ATOM      1  C   UNL     1      44.974   4.993  11.928  0.00  0.00    +0.000 A 
ATOM      2  C   UNL     1      45.491   4.176  12.940  0.00  0.00    +0.000 A 
ATOM      3  C   UNL     1      46.642   4.553  13.627  0.00  0.00    +0.000 A 
ATOM      4  C   UNL     1      47.277   5.761  13.328  0.00  0.00    +0.000 A 
ATOM      5  C   UNL     1      46.784   6.620  12.330  0.00  0.00    +0.000 A 
ATOM      6  C   UNL     1      45.642   6.195  11.623  0.00  0.00    +0.000 A 
ENDROOT
BRANCH   5   7
ATOM      7  C   UNL     1      47.396   7.943  12.082  0.00  0.00    +0.000 A 
ATOM      8  C   UNL     1      46.699   9.143  12.273  0.00  0.00    +0.000 A 
ATOM      9  N   UNL     1      47.219  10.390  12.107  0.00  0.00    +0.000 NA
ATOM     10  C   UNL     1      48.511  10.454  11.721  0.00  0.00    +0.000 A 
ATOM     11  C   UNL     1      49.291   9.337  11.494  0.00  0.00    +0.000 A 
ATOM     12  F   UNL     1      50.568   9.459  11.114  0.00  0.00    +0.000 F 
ATOM     13  C   UNL     1      48.734   8.076  11.675  0.00  0.00    +0.000 A 
ENDBRANCH   5   7
BRANCH   1  14
ATOM     14  C   UNL     1      43.649   4.674  11.270  0.00  0.00    +0.000 C 
BRANCH  14  15
ATOM     15  N   UNL     1      43.766   4.680   9.829  0.00  0.00    +0.000 N 
ATOM     16  H   UNL     1      43.447   5.505   9.329  0.00  0.00    +0.000 HD
BRANCH  15  20
ATOM     17  C   UNL     1      46.540   2.659   7.595  0.00  0.00    +0.000 A 
ATOM     18  C   UNL     1      46.398   4.033   7.545  0.00  0.00    +0.000 A 
ATOM     19  N   UNL     1      45.502   4.712   8.312  0.00  0.00    +0.000 NA
ATOM     20  C   UNL     1      44.715   3.978   9.128  0.00  0.00    +0.000 A 
ATOM     21  C   UNL     1      44.861   2.585   9.149  0.00  0.00    +0.000 A 
ATOM     22  N   UNL     1      45.773   1.899   8.406  0.00  0.00    +0.000 NA
BRANCH  17  24
ATOM     23  N   UNL     1      48.338   1.460   6.156  0.00  0.00    +0.000 NA
ATOM     24  C   UNL     1      47.520   1.984   6.801  0.00  0.00    +0.000 C 
ENDBRANCH  17  24
ENDBRANCH  15  20
ENDBRANCH  14  15
ENDBRANCH   1  14
TORSDOF 5
ENDMDL
MODEL 3
REMARK VINA RESULT:    -7.732      2.813      3.965
REMARK INTER + INTRA:         -10.577
REMARK INTER:                  -9.954
REMARK INTRA:                  -0.624
REMARK UNBOUND:                -0.585
REMARK  Name = 
REMARK  5 active torsions:
REMARK  status: ('A' for Active; 'I' for Inactive)
REMARK    1  A    between atoms: C_2  and  C_3
REMARK    2  A    between atoms: C_6  and  N_7
REMARK    3  A    between atoms: N_7  and  C_8
REMARK    4  A    between atoms: C_8  and  C_9
REMARK    5  A    between atoms: C_13  and  C_14
REMARK                            x       y       z     vdW  Elec       q    Type
REMARK                         _______ _______ _______ _____ _____    ______ ____
ROOT
ATOM      1  C   UNL     1      45.008   5.014  11.920  0.00  0.00    +0.000 A 
ATOM      2  C   UNL     1      45.532   4.175  12.910  0.00  0.00    +0.000 A 
ATOM      3  C   UNL     1      46.691   4.535  13.594  0.00  0.00    +0.000 A 
ATOM      4  C   UNL     1      47.326   5.748  13.314  0.00  0.00    +0.000 A 
ATOM      5  C   UNL     1      46.826   6.629  12.340  0.00  0.00    +0.000 A 
ATOM      6  C   UNL     1      45.675   6.221  11.634  0.00  0.00    +0.000 A 
ENDROOT
BRANCH   5   7
ATOM      7  C   UNL     1      47.438   7.956  12.113  0.00  0.00    +0.000 A 
ATOM      8  C   UNL     1      48.776   8.114  11.730  0.00  0.00    +0.000 A 
ATOM      9  N   UNL     1      49.382   9.302  11.462  0.00  0.00    +0.000 NA
ATOM     10  C   UNL     1      48.617  10.407  11.586  0.00  0.00    +0.000 A 
ATOM     11  C   UNL     1      47.290  10.372  11.967  0.00  0.00    +0.000 A 
ATOM     12  F   UNL     1      46.577  11.499  12.072  0.00  0.00    +0.000 F 
ATOM     13  C   UNL     1      46.695   9.143  12.230  0.00  0.00    +0.000 A 
ENDBRANCH   5   7
BRANCH   1  14
ATOM     14  C   UNL     1      43.676   4.712  11.268  0.00  0.00    +0.000 C 
BRANCH  14  15
ATOM     15  N   UNL     1      43.788   4.714   9.827  0.00  0.00    +0.000 N 
ATOM     16  H   UNL     1      43.469   5.538   9.325  0.00  0.00    +0.000 HD
BRANCH  15  20
ATOM     17  C   UNL     1      46.548   2.679   7.589  0.00  0.00    +0.000 A 
ATOM     18  C   UNL     1      46.422   4.055   7.549  0.00  0.00    +0.000 A 
ATOM     19  N   UNL     1      45.531   4.738   8.318  0.00  0.00    +0.000 NA
ATOM     20  C   UNL     1      44.731   4.006   9.124  0.00  0.00    +0.000 A 
ATOM     21  C   UNL     1      44.862   2.612   9.135  0.00  0.00    +0.000 A 
ATOM     22  N   UNL     1      45.769   1.922   8.391  0.00  0.00    +0.000 NA
BRANCH  17  24
ATOM     23  N   UNL     1      48.341   1.467   6.154  0.00  0.00    +0.000 NA
ATOM     24  C   UNL     1      47.524   1.999   6.794  0.00  0.00    +0.000 C 
ENDBRANCH  17  24
ENDBRANCH  15  20
ENDBRANCH  14  15
ENDBRANCH   1  14
TORSDOF 5
ENDMDL
MODEL 4
REMARK VINA RESULT:    -7.607      2.635      7.290
REMARK INTER + INTRA:         -10.416
REMARK INTER:                  -9.907
REMARK INTRA:                  -0.508
REMARK UNBOUND:                -0.585
REMARK  Name = 
REMARK  5 active torsions:
REMARK  status: ('A' for Active; 'I' for Inactive)
REMARK    1  A    between atoms: C_2  and  C_3
REMARK    2  A    between atoms: C_6  and  N_7
REMARK    3  A    between atoms: N_7  and  C_8
REMARK    4  A    between atoms: C_8  and  C_9
REMARK    5  A    between atoms: C_13  and  C_14
REMARK                            x       y       z     vdW  Elec       q    Type
REMARK                         _______ _______ _______ _____ _____    ______ ____
ROOT
ATOM      1  C   UNL     1      45.249   6.270  11.200  0.00  0.00    +0.000 A 
ATOM      2  C   UNL     1      43.921   6.053  11.582  0.00  0.00    +0.000 A 
ATOM      3  C   UNL     1      43.167   5.056  10.968  0.00  0.00    +0.000 A 
ATOM      4  C   UNL     1      43.739   4.248   9.981  0.00  0.00    +0.000 A 
ATOM      5  C   UNL     1      45.074   4.419   9.578  0.00  0.00    +0.000 A 
ATOM      6  C   UNL     1      45.802   5.462  10.186  0.00  0.00    +0.000 A 
ENDROOT
BRANCH   5   7
ATOM      7  C   UNL     1      45.710   3.501   8.608  0.00  0.00    +0.000 A 
ATOM      8  C   UNL     1      46.416   3.958   7.488  0.00  0.00    +0.000 A 
ATOM      9  N   UNL     1      47.061   3.168   6.588  0.00  0.00    +0.000 NA
ATOM     10  C   UNL     1      46.999   1.837   6.807  0.00  0.00    +0.000 A 
ATOM     11  C   UNL     1      46.323   1.274   7.871  0.00  0.00    +0.000 A 
ATOM     12  F   UNL     1      46.296  -0.053   8.041  0.00  0.00    +0.000 F 
ATOM     13  C   UNL     1      45.677   2.107   8.777  0.00  0.00    +0.000 A 
ENDBRANCH   5   7
BRANCH   1  14
ATOM     14  C   UNL     1      46.127   7.248  11.951  0.00  0.00    +0.000 C 
BRANCH  14  15
ATOM     15  N   UNL     1      47.301   6.594  12.483  0.00  0.00    +0.000 N 
ATOM     16  H   UNL     1      48.208   7.003  12.280  0.00  0.00    +0.000 HD
BRANCH  15  20
ATOM     17  C   UNL     1      47.505   4.344  15.899  0.00  0.00    +0.000 A 
ATOM     18  C   UNL     1      48.228   5.511  15.728  0.00  0.00    +0.000 A 
ATOM     19  N   UNL     1      48.136   6.279  14.610  0.00  0.00    +0.000 NA
ATOM     20  C   UNL     1      47.313   5.842  13.632  0.00  0.00    +0.000 A 
ATOM     21  C   UNL     1      46.605   4.648  13.817  0.00  0.00    +0.000 A 
ATOM     22  N   UNL     1      46.669   3.886  14.944  0.00  0.00    +0.000 NA
BRANCH  17  24
ATOM     23  N   UNL     1      47.674   2.935  18.074  0.00  0.00    +0.000 NA
ATOM     24  C   UNL     1      47.600   3.583  17.106  0.00  0.00    +0.000 C 
ENDBRANCH  17  24
ENDBRANCH  15  20
ENDBRANCH  14  15
ENDBRANCH   1  14
TORSDOF 5
ENDMDL
MODEL 5
REMARK VINA RESULT:    -7.425      3.010      7.510
REMARK INTER + INTRA:         -10.181
REMARK INTER:                  -9.797
REMARK INTRA:                  -0.385
REMARK UNBOUND:                -0.585
REMARK  Name = 
REMARK  5 active torsions:
REMARK  status: ('A' for Active; 'I' for Inactive)
REMARK    1  A    between atoms: C_2  and  C_3
REMARK    2  A    between atoms: C_6  and  N_7
REMARK    3  A    between atoms: N_7  and  C_8
REMARK    4  A    between atoms: C_8  and  C_9
REMARK    5  A    between atoms: C_13  and  C_14
REMARK                            x       y       z     vdW  Elec       q    Type
REMARK                         _______ _______ _______ _____ _____    ______ ____
ROOT
ATOM      1  C   UNL     1      45.098   5.989  11.082  0.00  0.00    +0.000 A 
ATOM      2  C   UNL     1      43.830   5.651  11.566  0.00  0.00    +0.000 A 
ATOM      3  C   UNL     1      43.150   4.552  11.046  0.00  0.00    +0.000 A 
ATOM      4  C   UNL     1      43.740   3.764  10.054  0.00  0.00    +0.000 A 
ATOM      5  C   UNL     1      45.018   4.057   9.551  0.00  0.00    +0.000 A 
ATOM      6  C   UNL     1      45.667   5.198  10.065  0.00  0.00    +0.000 A 
ENDROOT
BRANCH   5   7
ATOM      7  C   UNL     1      45.685   3.167   8.575  0.00  0.00    +0.000 A 
ATOM      8  C   UNL     1      45.870   1.798   8.807  0.00  0.00    +0.000 A 
ATOM      9  N   UNL     1      46.432   0.921   7.932  0.00  0.00    +0.000 NA
ATOM     10  C   UNL     1      46.843   1.432   6.752  0.00  0.00    +0.000 A 
ATOM     11  C   UNL     1      46.720   2.767   6.419  0.00  0.00    +0.000 A 
ATOM     12  F   UNL     1      47.143   3.220   5.233  0.00  0.00    +0.000 F 
ATOM     13  C   UNL     1      46.138   3.639   7.332  0.00  0.00    +0.000 A 
ENDBRANCH   5   7
BRANCH   1  14
ATOM     14  C   UNL     1      45.911   7.089  11.731  0.00  0.00    +0.000 C 
BRANCH  14  15
ATOM     15  N   UNL     1      47.134   6.567  12.300  0.00  0.00    +0.000 N 
ATOM     16  H   UNL     1      48.001   7.057  12.098  0.00  0.00    +0.000 HD
BRANCH  15  20
ATOM     17  C   UNL     1      47.493   4.427  15.773  0.00  0.00    +0.000 A 
ATOM     18  C   UNL     1      48.212   5.584  15.530  0.00  0.00    +0.000 A 
ATOM     19  N   UNL     1      48.069   6.316  14.393  0.00  0.00    +0.000 NA
ATOM     20  C   UNL     1      47.198   5.852  13.470  0.00  0.00    +0.000 A 
ATOM     21  C   UNL     1      46.495   4.669  13.728  0.00  0.00    +0.000 A 
ATOM     22  N   UNL     1      46.610   3.943  14.874  0.00  0.00    +0.000 NA
BRANCH  17  24
ATOM     23  N   UNL     1      47.747   3.091  17.985  0.00  0.00    +0.000 NA
ATOM     24  C   UNL     1      47.643   3.704  16.998  0.00  0.00    +0.000 C 
ENDBRANCH  17  24
ENDBRANCH  15  20
ENDBRANCH  14  15
ENDBRANCH   1  14
TORSDOF 5
ENDMDL
MODEL 6
REMARK VINA RESULT:    -7.391      3.280      7.519
REMARK INTER + INTRA:         -10.137
REMARK INTER:                  -9.547
REMARK INTRA:                  -0.589
REMARK UNBOUND:                -0.585
REMARK  Name = 
REMARK  5 active torsions:
REMARK  status: ('A' for Active; 'I' for Inactive)
REMARK    1  A    between atoms: C_2  and  C_3
REMARK    2  A    between atoms: C_6  and  N_7
REMARK    3  A    between atoms: N_7  and  C_8
REMARK    4  A    between atoms: C_8  and  C_9
REMARK    5  A    between atoms: C_13  and  C_14
REMARK                            x       y       z     vdW  Elec       q    Type
REMARK                         _______ _______ _______ _____ _____    ______ ____
ROOT
ATOM      1  C   UNL     1      44.221   5.167  10.918  0.00  0.00    +0.000 A 
ATOM      2  C   UNL     1      43.490   4.291  11.727  0.00  0.00    +0.000 A 
ATOM      3  C   UNL     1      43.430   2.934  11.418  0.00  0.00    +0.000 A 
ATOM      4  C   UNL     1      44.120   2.433  10.311  0.00  0.00    +0.000 A 
ATOM      5  C   UNL     1      44.879   3.274   9.479  0.00  0.00    +0.000 A 
ATOM      6  C   UNL     1      44.889   4.648   9.791  0.00  0.00    +0.000 A 
ENDROOT
BRANCH   5   7
ATOM      7  C   UNL     1      45.690   2.731   8.368  0.00  0.00    +0.000 A 
ATOM      8  C   UNL     1      46.193   1.424   8.370  0.00  0.00    +0.000 A 
ATOM      9  N   UNL     1      46.902   0.852   7.360  0.00  0.00    +0.000 NA
ATOM     10  C   UNL     1      47.136   1.627   6.279  0.00  0.00    +0.000 A 
ATOM     11  C   UNL     1      46.698   2.933   6.172  0.00  0.00    +0.000 A 
ATOM     12  F   UNL     1      46.957   3.655   5.076  0.00  0.00    +0.000 F 
ATOM     13  C   UNL     1      45.971   3.488   7.218  0.00  0.00    +0.000 A 
ENDBRANCH   5   7
BRANCH   1  14
ATOM     14  C   UNL     1      44.416   6.615  11.315  0.00  0.00    +0.000 C 
BRANCH  14  15
ATOM     15  N   UNL     1      44.796   6.728  12.705  0.00  0.00    +0.000 N 
ATOM     16  H   UNL     1      44.216   6.262  13.397  0.00  0.00    +0.000 HD
BRANCH  15  20
ATOM     17  C   UNL     1      48.667   7.376  13.872  0.00  0.00    +0.000 A 
ATOM     18  C   UNL     1      47.788   8.407  13.596  0.00  0.00    +0.000 A 
ATOM     19  N   UNL     1      46.491   8.196  13.242  0.00  0.00    +0.000 NA
ATOM     20  C   UNL     1      46.085   6.911  13.142  0.00  0.00    +0.000 A 
ATOM     21  C   UNL     1      46.997   5.883  13.407  0.00  0.00    +0.000 A 
ATOM     22  N   UNL     1      48.289   6.083  13.788  0.00  0.00    +0.000 NA
BRANCH  17  24
ATOM     23  N   UNL     1      51.108   7.883  14.599  0.00  0.00    +0.000 NA
ATOM     24  C   UNL     1      50.014   7.639  14.278  0.00  0.00    +0.000 C 
ENDBRANCH  17  24
ENDBRANCH  15  20
ENDBRANCH  14  15
ENDBRANCH   1  14
TORSDOF 5
ENDMDL
MODEL 7
REMARK VINA RESULT:    -7.352      2.580      3.239
REMARK INTER + INTRA:         -10.086
REMARK INTER:                  -9.422
REMARK INTRA:                  -0.664
REMARK UNBOUND:                -0.585
REMARK  Name = 
REMARK  5 active torsions:
REMARK  status: ('A' for Active; 'I' for Inactive)
REMARK    1  A    between atoms: C_2  and  C_3
REMARK    2  A    between atoms: C_6  and  N_7
REMARK    3  A    between atoms: N_7  and  C_8
REMARK    4  A    between atoms: C_8  and  C_9
REMARK    5  A    between atoms: C_13  and  C_14
REMARK                            x       y       z     vdW  Elec       q    Type
REMARK                         _______ _______ _______ _____ _____    ______ ____
ROOT
ATOM      1  C   UNL     1      44.585   4.879  11.757  0.00  0.00    +0.000 A 
ATOM      2  C   UNL     1      43.664   5.854  11.358  0.00  0.00    +0.000 A 
ATOM      3  C   UNL     1      44.006   7.203  11.401  0.00  0.00    +0.000 A 
ATOM      4  C   UNL     1      45.281   7.593  11.821  0.00  0.00    +0.000 A 
ATOM      5  C   UNL     1      46.243   6.648  12.215  0.00  0.00    +0.000 A 
ATOM      6  C   UNL     1      45.857   5.292  12.201  0.00  0.00    +0.000 A 
ENDROOT
BRANCH   5   7
ATOM      7  C   UNL     1      47.622   7.051  12.563  0.00  0.00    +0.000 A 
ATOM      8  C   UNL     1      48.223   6.710  13.782  0.00  0.00    +0.000 A 
ATOM      9  N   UNL     1      49.501   7.010  14.140  0.00  0.00    +0.000 NA
ATOM     10  C   UNL     1      50.231   7.698  13.236  0.00  0.00    +0.000 A 
ATOM     11  C   UNL     1      49.739   8.096  12.009  0.00  0.00    +0.000 A 
ATOM     12  F   UNL     1      50.508   8.775  11.150  0.00  0.00    +0.000 F 
ATOM     13  C   UNL     1      48.431   7.771  11.668  0.00  0.00    +0.000 A 
ENDBRANCH   5   7
BRANCH   1  14
ATOM     14  C   UNL     1      44.285   3.406  11.582  0.00  0.00    +0.000 C 
BRANCH  14  15
ATOM     15  N   UNL     1      43.894   3.111  10.221  0.00  0.00    +0.000 N 
ATOM     16  H   UNL     1      42.998   3.460   9.897  0.00  0.00    +0.000 HD
BRANCH  15  20
ATOM     17  C   UNL     1      46.643   2.426   7.264  0.00  0.00    +0.000 A 
ATOM     18  C   UNL     1      46.252   1.450   8.161  0.00  0.00    +0.000 A 
ATOM     19  N   UNL     1      45.313   1.663   9.122  0.00  0.00    +0.000 NA
ATOM     20  C   UNL     1      44.778   2.902   9.192  0.00  0.00    +0.000 A 
ATOM     21  C   UNL     1      45.203   3.882   8.286  0.00  0.00    +0.000 A 
ATOM     22  N   UNL     1      46.121   3.671   7.304  0.00  0.00    +0.000 NA
BRANCH  17  24
ATOM     23  N   UNL     1      48.414   1.928   5.431  0.00  0.00    +0.000 NA
ATOM     24  C   UNL     1      47.606   2.153   6.242  0.00  0.00    +0.000 C 
ENDBRANCH  17  24
ENDBRANCH  15  20
ENDBRANCH  14  15
ENDBRANCH   1  14
TORSDOF 5
ENDMDL
MODEL 8
REMARK VINA RESULT:    -6.454      3.651      7.513
REMARK INTER + INTRA:          -8.926
REMARK INTER:                  -8.322
REMARK INTRA:                  -0.604
REMARK UNBOUND:                -0.585
REMARK  Name = 
REMARK  5 active torsions:
REMARK  status: ('A' for Active; 'I' for Inactive)
REMARK    1  A    between atoms: C_2  and  C_3
REMARK    2  A    between atoms: C_6  and  N_7
REMARK    3  A    between atoms: N_7  and  C_8
REMARK    4  A    between atoms: C_8  and  C_9
REMARK    5  A    between atoms: C_13  and  C_14
REMARK                            x       y       z     vdW  Elec       q    Type
REMARK                         _______ _______ _______ _____ _____    ______ ____
ROOT
ATOM      1  C   UNL     1      48.406   7.055  14.152  0.00  0.00    +0.000 A 
ATOM      2  C   UNL     1      49.071   7.816  13.184  0.00  0.00    +0.000 A 
ATOM      3  C   UNL     1      48.651   7.785  11.856  0.00  0.00    +0.000 A 
ATOM      4  C   UNL     1      47.548   7.012  11.484  0.00  0.00    +0.000 A 
ATOM      5  C   UNL     1      46.841   6.245  12.426  0.00  0.00    +0.000 A 
ATOM      6  C   UNL     1      47.312   6.263  13.754  0.00  0.00    +0.000 A 
ENDROOT
BRANCH   5   7
ATOM      7  C   UNL     1      45.614   5.507  12.054  0.00  0.00    +0.000 A 
ATOM      8  C   UNL     1      44.696   5.043  13.005  0.00  0.00    +0.000 A 
ATOM      9  N   UNL     1      43.530   4.401  12.724  0.00  0.00    +0.000 NA
ATOM     10  C   UNL     1      43.256   4.199  11.417  0.00  0.00    +0.000 A 
ATOM     11  C   UNL     1      44.093   4.604  10.396  0.00  0.00    +0.000 A 
ATOM     12  F   UNL     1      43.771   4.380   9.117  0.00  0.00    +0.000 F 
ATOM     13  C   UNL     1      45.276   5.261  10.713  0.00  0.00    +0.000 A 
ENDBRANCH   5   7
BRANCH   1  14
ATOM     14  C   UNL     1      48.754   7.186  15.619  0.00  0.00    +0.000 C 
BRANCH  14  15
ATOM     15  N   UNL     1      48.203   6.091  16.386  0.00  0.00    +0.000 N 
ATOM     16  H   UNL     1      47.200   5.940  16.347  0.00  0.00    +0.000 HD
BRANCH  15  20
ATOM     17  C   UNL     1      50.386   2.731  17.233  0.00  0.00    +0.000 A 
ATOM     18  C   UNL     1      50.891   4.009  17.388  0.00  0.00    +0.000 A 
ATOM     19  N   UNL     1      50.158   5.128  17.141  0.00  0.00    +0.000 NA
ATOM     20  C   UNL     1      48.893   4.947  16.703  0.00  0.00    +0.000 A 
ATOM     21  C   UNL     1      48.407   3.644  16.535  0.00  0.00    +0.000 A 
ATOM     22  N   UNL     1      49.124   2.518  16.805  0.00  0.00    +0.000 NA
BRANCH  17  24
ATOM     23  N   UNL     1      51.805   0.636  17.816  0.00  0.00    +0.000 NA
ATOM     24  C   UNL     1      51.177   1.579  17.539  0.00  0.00    +0.000 C 
ENDBRANCH  17  24
ENDBRANCH  15  20
ENDBRANCH  14  15
ENDBRANCH   1  14
TORSDOF 5
ENDMDL
MODEL 9
REMARK VINA RESULT:    -6.411      3.270      7.044
REMARK INTER + INTRA:          -8.870
REMARK INTER:                  -8.277
REMARK INTRA:                  -0.592
REMARK UNBOUND:                -0.585
REMARK  Name = 
REMARK  5 active torsions:
REMARK  status: ('A' for Active; 'I' for Inactive)
REMARK    1  A    between atoms: C_2  and  C_3
REMARK    2  A    between atoms: C_6  and  N_7
REMARK    3  A    between atoms: N_7  and  C_8
REMARK    4  A    between atoms: C_8  and  C_9
REMARK    5  A    between atoms: C_13  and  C_14
REMARK                            x       y       z     vdW  Elec       q    Type
REMARK                         _______ _______ _______ _____ _____    ______ ____
ROOT
ATOM      1  C   UNL     1      45.067   5.093  12.463  0.00  0.00    +0.000 A 
ATOM      2  C   UNL     1      43.677   5.233  12.532  0.00  0.00    +0.000 A 
ATOM      3  C   UNL     1      42.880   4.871  11.448  0.00  0.00    +0.000 A 
ATOM      4  C   UNL     1      43.461   4.343  10.292  0.00  0.00    +0.000 A 
ATOM      5  C   UNL     1      44.851   4.170  10.185  0.00  0.00    +0.000 A 
ATOM      6  C   UNL     1      45.637   4.582  11.280  0.00  0.00    +0.000 A 
ENDROOT
BRANCH   5   7
ATOM      7  C   UNL     1      45.458   3.519   9.004  0.00  0.00    +0.000 A 
ATOM      8  C   UNL     1      45.899   4.242   7.888  0.00  0.00    +0.000 A 
ATOM      9  N   UNL     1      46.507   3.708   6.794  0.00  0.00    +0.000 NA
ATOM     10  C   UNL     1      46.685   2.369   6.802  0.00  0.00    +0.000 A 
ATOM     11  C   UNL     1      46.281   1.556   7.843  0.00  0.00    +0.000 A 
ATOM     12  F   UNL     1      46.485   0.234   7.798  0.00  0.00    +0.000 F 
ATOM     13  C   UNL     1      45.667   2.131   8.949  0.00  0.00    +0.000 A 
ENDBRANCH   5   7
BRANCH   1  14
ATOM     14  C   UNL     1      45.936   5.344  13.676  0.00  0.00    +0.000 C 
BRANCH  14  15
ATOM     15  N   UNL     1      46.433   6.702  13.691  0.00  0.00    +0.000 N 
ATOM     16  H   UNL     1      46.079   7.331  14.406  0.00  0.00    +0.000 HD
BRANCH  15  20
ATOM     17  C   UNL     1      50.126   7.946  12.433  0.00  0.00    +0.000 A 
ATOM     18  C   UNL     1      49.843   7.663  13.757  0.00  0.00    +0.000 A 
ATOM     19  N   UNL     1      48.628   7.216  14.173  0.00  0.00    +0.000 NA
ATOM     20  C   UNL     1      47.671   7.077  13.231  0.00  0.00    +0.000 A 
ATOM     21  C   UNL     1      47.972   7.388  11.899  0.00  0.00    +0.000 A 
ATOM     22  N   UNL     1      49.192   7.810  11.468  0.00  0.00    +0.000 NA
BRANCH  17  24
ATOM     23  N   UNL     1      52.477   8.744  11.671  0.00  0.00    +0.000 NA
ATOM     24  C   UNL     1      51.428   8.378  12.028  0.00  0.00    +0.000 C 
ENDBRANCH  17  24
ENDBRANCH  15  20
ENDBRANCH  14  15
ENDBRANCH   1  14
TORSDOF 5
ENDMDL
