MODEL 1
REMARK VINA RESULT:    -6.507      0.000      0.000
REMARK INTER + INTRA:         -10.009
REMARK INTER:                  -8.789
REMARK INTRA:                  -1.220
REMARK UNBOUND:                -1.220
REMARK  Name = 
REMARK  9 active torsions:
REMARK  status: ('A' for Active; 'I' for Inactive)
REMARK    1  A    between atoms: C_1  and  O_2
REMARK    2  A    between atoms: O_2  and  C_3
REMARK    3  A    between atoms: C_6  and  N_7
REMARK    4  A    between atoms: C_11  and  C_12
REMARK    5  A    between atoms: C_11  and  C_13
REMARK    6  A    between atoms: C_14  and  C_15
REMARK    7  A    between atoms: C_15  and  N_16
REMARK    8  A    between atoms: N_16  and  C_17
REMARK    9  A    between atoms: C_20  and  C_21
REMARK                            x       y       z     vdW  Elec       q    Type
REMARK                         _______ _______ _______ _____ _____    ______ ____
ROOT
ATOM      1  N   UNL     1      48.723   6.568  17.345  0.00  0.00    +0.000 N 
ATOM      2  C   UNL     1      47.803   6.974  18.406  0.00  0.00    +0.000 C 
ATOM      3  C   UNL     1      48.242   8.343  18.911  0.00  0.00    +0.000 C 
ATOM      4  C   UNL     1      48.285   9.354  17.773  0.00  0.00    +0.000 C 
ATOM      5  C   UNL     1      49.147   8.896  16.561  0.00  0.00    +0.000 C 
ATOM      6  C   UNL     1      50.645   8.908  16.936  0.00  0.00    +0.000 C 
ATOM      7  C   UNL     1      48.932   9.957  15.457  0.00  0.00    +0.000 C 
ATOM      8  C   UNL     1      48.705   7.445  16.111  0.00  0.00    +0.000 C 
ENDROOT
BRANCH   1  12
ATOM      9  C   UNL     1      50.065   2.641  17.123  0.00  0.00    +0.000 A 
ATOM     10  C   UNL     1      48.698   2.853  16.994  0.00  0.00    +0.000 A 
ATOM     11  C   UNL     1      48.216   4.173  17.071  0.00  0.00    +0.000 A 
ATOM     12  C   UNL     1      49.093   5.236  17.289  0.00  0.00    +0.000 A 
ATOM     13  C   UNL     1      50.422   4.860  17.485  0.00  0.00    +0.000 A 
ATOM     14  N   UNL     1      50.940   3.628  17.355  0.00  0.00    +0.000 NA
BRANCH   9  16
ATOM     15  C   UNL     1      51.920   1.285  17.435  0.00  0.00    +0.000 C 
ATOM     16  O   UNL     1      50.555   1.359  17.023  0.00  0.00    +0.000 OA
ENDBRANCH   9  16
ENDBRANCH   1  12
BRANCH   8  17
ATOM     17  C   UNL     1      49.524   6.932  14.873  0.00  0.00    +0.000 C 
BRANCH  17  18
ATOM     18  N   UNL     1      48.788   7.023  13.608  0.00  0.00    +0.000 N 
ATOM     19  H   UNL     1      48.925   7.892  13.091  0.00  0.00    +0.000 HD
BRANCH  18  20
ATOM     20  C   UNL     1      47.526   6.495  13.464  0.00  0.00    +0.000 A 
ATOM     21  C   UNL     1      47.278   5.136  13.688  0.00  0.00    +0.000 A 
ATOM     22  C   UNL     1      46.004   4.607  13.561  0.00  0.00    +0.000 A 
ATOM     23  C   UNL     1      44.955   5.414  13.143  0.00  0.00    +0.000 A 
ATOM     24  C   UNL     1      45.183   6.766  12.852  0.00  0.00    +0.000 A 
ATOM     25  C   UNL     1      46.473   7.291  12.997  0.00  0.00    +0.000 A 
BRANCH  23  26
ATOM     26  C   UNL     1      43.641   4.760  13.025  0.00  0.00    +0.000 C 
ATOM     27  N   UNL     1      42.551   5.555  12.811  0.00  0.00    +0.000 N 
ATOM     28  O   UNL     1      43.509   3.546  13.143  0.00  0.00    +0.000 OA
ATOM     29  H   UNL     1      42.577   6.566  12.833  0.00  0.00    +0.000 HD
ATOM     30  H   UNL     1      41.645   5.094  12.799  0.00  0.00    +0.000 HD
ENDBRANCH  23  26
ENDBRANCH  18  20
ENDBRANCH  17  18
ENDBRANCH   8  17
TORSDOF 6
ENDMDL
MODEL 2
REMARK VINA RESULT:    -5.890      2.833      6.850
REMARK INTER + INTRA:          -9.176
REMARK INTER:                  -8.022
REMARK INTRA:                  -1.155
REMARK UNBOUND:                -1.220
REMARK  Name = 
REMARK  9 active torsions:
REMARK  status: ('A' for Active; 'I' for Inactive)
REMARK    1  A    between atoms: C_1  and  O_2
REMARK    2  A    between atoms: O_2  and  C_3
REMARK    3  A    between atoms: C_6  and  N_7
REMARK    4  A    between atoms: C_11  and  C_12
REMARK    5  A    between atoms: C_11  and  C_13
REMARK    6  A    between atoms: C_14  and  C_15
REMARK    7  A    between atoms: C_15  and  N_16
REMARK    8  A    between atoms: N_16  and  C_17
REMARK    9  A    between atoms: C_20  and  C_21
REMARK                            x       y       z     vdW  Elec       q    Type
REMARK                         _______ _______ _______ _____ _____    ______ ____
ROOT
ATOM      1  N   UNL     1      46.075   6.988  12.644  0.00  0.00    +0.000 N 
ATOM      2  C   UNL     1      45.113   8.047  12.346  0.00  0.00    +0.000 C 
ATOM      3  C   UNL     1      44.183   7.543  11.249  0.00  0.00    +0.000 C 
ATOM      4  C   UNL     1      43.497   6.250  11.670  0.00  0.00    +0.000 C 
ATOM      5  C   UNL     1      44.485   5.139  12.128  0.00  0.00    +0.000 C 
ATOM      6  C   UNL     1      45.276   4.596  10.919  0.00  0.00    +0.000 C 
ATOM      7  C   UNL     1      43.609   3.985  12.672  0.00  0.00    +0.000 C 
ATOM      8  C   UNL     1      45.475   5.721  13.216  0.00  0.00    +0.000 C 
ENDROOT
BRANCH   1  12
ATOM      9  C   UNL     1      49.912   8.297  13.557  0.00  0.00    +0.000 A 
ATOM     10  C   UNL     1      49.773   7.456  12.459  0.00  0.00    +0.000 A 
ATOM     11  C   UNL     1      48.484   6.994  12.131  0.00  0.00    +0.000 A 
ATOM     12  C   UNL     1      47.382   7.360  12.904  0.00  0.00    +0.000 A 
ATOM     13  C   UNL     1      47.690   8.135  14.022  0.00  0.00    +0.000 A 
ATOM     14  N   UNL     1      48.886   8.656  14.339  0.00  0.00    +0.000 NA
BRANCH   9  16
ATOM     15  C   UNL     1      51.753   8.041  14.944  0.00  0.00    +0.000 C 
ATOM     16  O   UNL     1      51.161   8.779  13.874  0.00  0.00    +0.000 OA
ENDBRANCH   9  16
ENDBRANCH   1  12
BRANCH   8  17
ATOM     17  C   UNL     1      46.487   4.639  13.738  0.00  0.00    +0.000 C 
BRANCH  17  18
ATOM     18  N   UNL     1      46.420   4.429  15.188  0.00  0.00    +0.000 N 
ATOM     19  H   UNL     1      45.648   4.901  15.658  0.00  0.00    +0.000 HD
BRANCH  18  20
ATOM     20  C   UNL     1      47.556   4.341  15.960  0.00  0.00    +0.000 A 
ATOM     21  C   UNL     1      47.925   3.138  16.575  0.00  0.00    +0.000 A 
ATOM     22  C   UNL     1      49.077   3.044  17.337  0.00  0.00    +0.000 A 
ATOM     23  C   UNL     1      49.859   4.170  17.557  0.00  0.00    +0.000 A 
ATOM     24  C   UNL     1      49.485   5.402  17.004  0.00  0.00    +0.000 A 
ATOM     25  C   UNL     1      48.325   5.481  16.225  0.00  0.00    +0.000 A 
BRANCH  23  26
ATOM     26  C   UNL     1      51.058   3.975  18.390  0.00  0.00    +0.000 C 
ATOM     27  N   UNL     1      50.975   4.308  19.712  0.00  0.00    +0.000 N 
ATOM     28  O   UNL     1      52.111   3.557  17.920  0.00  0.00    +0.000 OA
ATOM     29  H   UNL     1      50.179   4.775  20.128  0.00  0.00    +0.000 HD
ATOM     30  H   UNL     1      51.830   4.230  20.257  0.00  0.00    +0.000 HD
ENDBRANCH  23  26
ENDBRANCH  18  20
ENDBRANCH  17  18
ENDBRANCH   8  17
TORSDOF 6
ENDMDL
MODEL 3
REMARK VINA RESULT:    -5.854      2.082      2.862
REMARK INTER + INTRA:          -9.128
REMARK INTER:                  -8.214
REMARK INTRA:                  -0.914
REMARK UNBOUND:                -1.220
REMARK  Name = 
REMARK  9 active torsions:
REMARK  status: ('A' for Active; 'I' for Inactive)
REMARK    1  A    between atoms: C_1  and  O_2
REMARK    2  A    between atoms: O_2  and  C_3
REMARK    3  A    between atoms: C_6  and  N_7
REMARK    4  A    between atoms: C_11  and  C_12
REMARK    5  A    between atoms: C_11  and  C_13
REMARK    6  A    between atoms: C_14  and  C_15
REMARK    7  A    between atoms: C_15  and  N_16
REMARK    8  A    between atoms: N_16  and  C_17
REMARK    9  A    between atoms: C_20  and  C_21
REMARK                            x       y       z     vdW  Elec       q    Type
REMARK                         _______ _______ _______ _____ _____    ______ ____
ROOT
ATOM      1  N   UNL     1      49.248   8.436  15.793  0.00  0.00    +0.000 N 
ATOM      2  C   UNL     1      49.185   9.639  16.621  0.00  0.00    +0.000 C 
ATOM      3  C   UNL     1      49.780  10.791  15.821  0.00  0.00    +0.000 C 
ATOM      4  C   UNL     1      49.049  10.969  14.497  0.00  0.00    +0.000 C 
ATOM      5  C   UNL     1      48.974   9.670  13.645  0.00  0.00    +0.000 C 
ATOM      6  C   UNL     1      50.370   9.313  13.090  0.00  0.00    +0.000 C 
ATOM      7  C   UNL     1      48.061  10.000  12.440  0.00  0.00    +0.000 C 
ATOM      8  C   UNL     1      48.415   8.483  14.530  0.00  0.00    +0.000 C 
ENDROOT
BRANCH   1  12
ATOM      9  C   UNL     1      50.365   4.813  17.495  0.00  0.00    +0.000 A 
ATOM     10  C   UNL     1      49.100   5.296  17.806  0.00  0.00    +0.000 A 
ATOM     11  C   UNL     1      48.699   6.524  17.246  0.00  0.00    +0.000 A 
ATOM     12  C   UNL     1      49.561   7.241  16.417  0.00  0.00    +0.000 A 
ATOM     13  C   UNL     1      50.826   6.673  16.267  0.00  0.00    +0.000 A 
ATOM     14  N   UNL     1      51.233   5.476  16.721  0.00  0.00    +0.000 NA
BRANCH   9  16
ATOM     15  C   UNL     1      50.075   2.514  17.389  0.00  0.00    +0.000 C 
ATOM     16  O   UNL     1      50.762   3.600  18.011  0.00  0.00    +0.000 OA
ENDBRANCH   9  16
ENDBRANCH   1  12
BRANCH   8  17
ATOM     17  C   UNL     1      48.293   7.144  13.719  0.00  0.00    +0.000 C 
BRANCH  17  18
ATOM     18  N   UNL     1      47.060   6.401  14.001  0.00  0.00    +0.000 N 
ATOM     19  H   UNL     1      47.033   5.938  14.909  0.00  0.00    +0.000 HD
BRANCH  18  20
ATOM     20  C   UNL     1      46.389   5.712  13.017  0.00  0.00    +0.000 A 
ATOM     21  C   UNL     1      46.061   6.319  11.800  0.00  0.00    +0.000 A 
ATOM     22  C   UNL     1      45.401   5.621  10.803  0.00  0.00    +0.000 A 
ATOM     23  C   UNL     1      44.995   4.312  11.022  0.00  0.00    +0.000 A 
ATOM     24  C   UNL     1      45.256   3.694  12.253  0.00  0.00    +0.000 A 
ATOM     25  C   UNL     1      45.935   4.407  13.249  0.00  0.00    +0.000 A 
BRANCH  23  26
ATOM     26  C   UNL     1      44.290   3.655   9.908  0.00  0.00    +0.000 C 
ATOM     27  N   UNL     1      44.146   4.356   8.745  0.00  0.00    +0.000 N 
ATOM     28  O   UNL     1      43.814   2.530  10.018  0.00  0.00    +0.000 OA
ATOM     29  H   UNL     1      44.401   5.329   8.636  0.00  0.00    +0.000 HD
ATOM     30  H   UNL     1      43.599   3.914   8.011  0.00  0.00    +0.000 HD
ENDBRANCH  23  26
ENDBRANCH  18  20
ENDBRANCH  17  18
ENDBRANCH   8  17
TORSDOF 6
ENDMDL
MODEL 4
REMARK VINA RESULT:    -5.142      4.535      8.178
REMARK INTER + INTRA:          -8.165
REMARK INTER:                  -8.601
REMARK INTRA:                   0.436
REMARK UNBOUND:                -1.220
REMARK  Name = 
REMARK  9 active torsions:
REMARK  status: ('A' for Active; 'I' for Inactive)
REMARK    1  A    between atoms: C_1  and  O_2
REMARK    2  A    between atoms: O_2  and  C_3
REMARK    3  A    between atoms: C_6  and  N_7
REMARK    4  A    between atoms: C_11  and  C_12
REMARK    5  A    between atoms: C_11  and  C_13
REMARK    6  A    between atoms: C_14  and  C_15
REMARK    7  A    between atoms: C_15  and  N_16
REMARK    8  A    between atoms: N_16  and  C_17
REMARK    9  A    between atoms: C_20  and  C_21
REMARK                            x       y       z     vdW  Elec       q    Type
REMARK                         _______ _______ _______ _____ _____    ______ ____
ROOT
ATOM      1  N   UNL     1      44.678   3.553  10.445  0.00  0.00    +0.000 N 
ATOM      2  C   UNL     1      43.434   2.856  10.766  0.00  0.00    +0.000 C 
ATOM      3  C   UNL     1      43.367   2.687  12.279  0.00  0.00    +0.000 C 
ATOM      4  C   UNL     1      43.466   4.034  12.982  0.00  0.00    +0.000 C 
ATOM      5  C   UNL     1      44.709   4.869  12.562  0.00  0.00    +0.000 C 
ATOM      6  C   UNL     1      45.998   4.225  13.118  0.00  0.00    +0.000 C 
ATOM      7  C   UNL     1      44.546   6.251  13.238  0.00  0.00    +0.000 C 
ATOM      8  C   UNL     1      44.779   4.964  10.984  0.00  0.00    +0.000 C 
ENDROOT
BRANCH   1  12
ATOM      9  C   UNL     1      46.815   2.142   7.172  0.00  0.00    +0.000 A 
ATOM     10  C   UNL     1      46.548   3.506   7.215  0.00  0.00    +0.000 A 
ATOM     11  C   UNL     1      45.821   4.009   8.311  0.00  0.00    +0.000 A 
ATOM     12  C   UNL     1      45.367   3.152   9.315  0.00  0.00    +0.000 A 
ATOM     13  C   UNL     1      45.637   1.802   9.089  0.00  0.00    +0.000 A 
ATOM     14  N   UNL     1      46.382   1.281   8.101  0.00  0.00    +0.000 NA
BRANCH   9  16
ATOM     15  C   UNL     1      47.624   2.570   5.041  0.00  0.00    +0.000 C 
ATOM     16  O   UNL     1      47.548   1.639   6.121  0.00  0.00    +0.000 OA
ENDBRANCH   9  16
ENDBRANCH   1  12
BRANCH   8  17
ATOM     17  C   UNL     1      46.004   5.817  10.494  0.00  0.00    +0.000 C 
BRANCH  17  18
ATOM     18  N   UNL     1      46.051   7.161  11.079  0.00  0.00    +0.000 N 
ATOM     19  H   UNL     1      45.597   7.888  10.527  0.00  0.00    +0.000 HD
BRANCH  18  20
ATOM     20  C   UNL     1      47.150   7.610  11.775  0.00  0.00    +0.000 A 
ATOM     21  C   UNL     1      48.277   6.800  11.954  0.00  0.00    +0.000 A 
ATOM     22  C   UNL     1      49.390   7.257  12.638  0.00  0.00    +0.000 A 
ATOM     23  C   UNL     1      49.381   8.519  13.217  0.00  0.00    +0.000 A 
ATOM     24  C   UNL     1      48.245   9.333  13.106  0.00  0.00    +0.000 A 
ATOM     25  C   UNL     1      47.130   8.863  12.401  0.00  0.00    +0.000 A 
BRANCH  23  26
ATOM     26  C   UNL     1      50.605   8.913  13.934  0.00  0.00    +0.000 C 
ATOM     27  N   UNL     1      51.619   8.002  14.012  0.00  0.00    +0.000 N 
ATOM     28  O   UNL     1      50.713  10.009  14.477  0.00  0.00    +0.000 OA
ATOM     29  H   UNL     1      51.542   7.043  13.698  0.00  0.00    +0.000 HD
ATOM     30  H   UNL     1      52.429   8.266  14.567  0.00  0.00    +0.000 HD
ENDBRANCH  23  26
ENDBRANCH  18  20
ENDBRANCH  17  18
ENDBRANCH   8  17
TORSDOF 6
ENDMDL
MODEL 5
REMARK VINA RESULT:    -4.740      2.519      4.054
REMARK INTER + INTRA:          -7.622
REMARK INTER:                  -7.442
REMARK INTRA:                  -0.180
REMARK UNBOUND:                -1.220
REMARK  Name = 
REMARK  9 active torsions:
REMARK  status: ('A' for Active; 'I' for Inactive)
REMARK    1  A    between atoms: C_1  and  O_2
REMARK    2  A    between atoms: O_2  and  C_3
REMARK    3  A    between atoms: C_6  and  N_7
REMARK    4  A    between atoms: C_11  and  C_12
REMARK    5  A    between atoms: C_11  and  C_13
REMARK    6  A    between atoms: C_14  and  C_15
REMARK    7  A    between atoms: C_15  and  N_16
REMARK    8  A    between atoms: N_16  and  C_17
REMARK    9  A    between atoms: C_20  and  C_21
REMARK                            x       y       z     vdW  Elec       q    Type
REMARK                         _______ _______ _______ _____ _____    ______ ____
ROOT
ATOM      1  N   UNL     1      49.529   9.357  14.629  0.00  0.00    +0.000 N 
ATOM      2  C   UNL     1      50.491  10.396  14.992  0.00  0.00    +0.000 C 
ATOM      3  C   UNL     1      51.347  10.695  13.767  0.00  0.00    +0.000 C 
ATOM      4  C   UNL     1      50.479  11.105  12.585  0.00  0.00    +0.000 C 
ATOM      5  C   UNL     1      49.352  10.085  12.252  0.00  0.00    +0.000 C 
ATOM      6  C   UNL     1      49.957   8.796  11.656  0.00  0.00    +0.000 C 
ATOM      7  C   UNL     1      48.487  10.748  11.154  0.00  0.00    +0.000 C 
ATOM      8  C   UNL     1      48.531   9.753  13.562  0.00  0.00    +0.000 C 
ENDROOT
BRANCH   1  12
ATOM      9  C   UNL     1      48.654   6.621  17.632  0.00  0.00    +0.000 A 
ATOM     10  C   UNL     1      49.293   6.135  16.498  0.00  0.00    +0.000 A 
ATOM     11  C   UNL     1      49.596   7.040  15.463  0.00  0.00    +0.000 A 
ATOM     12  C   UNL     1      49.245   8.386  15.572  0.00  0.00    +0.000 A 
ATOM     13  C   UNL     1      48.532   8.707  16.728  0.00  0.00    +0.000 A 
ATOM     14  N   UNL     1      48.279   7.899  17.771  0.00  0.00    +0.000 NA
BRANCH   9  16
ATOM     15  C   UNL     1      48.063   6.456  19.869  0.00  0.00    +0.000 C 
ATOM     16  O   UNL     1      48.375   5.755  18.664  0.00  0.00    +0.000 OA
ENDBRANCH   9  16
ENDBRANCH   1  12
BRANCH   8  17
ATOM     17  C   UNL     1      47.359   8.743  13.288  0.00  0.00    +0.000 C 
BRANCH  17  18
ATOM     18  N   UNL     1      47.791   7.519  12.606  0.00  0.00    +0.000 N 
ATOM     19  H   UNL     1      48.475   7.658  11.862  0.00  0.00    +0.000 HD
BRANCH  18  20
ATOM     20  C   UNL     1      46.922   6.481  12.360  0.00  0.00    +0.000 A 
ATOM     21  C   UNL     1      46.116   6.464  11.216  0.00  0.00    +0.000 A 
ATOM     22  C   UNL     1      45.254   5.411  10.959  0.00  0.00    +0.000 A 
ATOM     23  C   UNL     1      45.129   4.375  11.875  0.00  0.00    +0.000 A 
ATOM     24  C   UNL     1      45.878   4.393  13.060  0.00  0.00    +0.000 A 
ATOM     25  C   UNL     1      46.755   5.457  13.301  0.00  0.00    +0.000 A 
BRANCH  23  26
ATOM     26  C   UNL     1      44.179   3.307  11.521  0.00  0.00    +0.000 C 
ATOM     27  N   UNL     1      43.775   2.460  12.513  0.00  0.00    +0.000 N 
ATOM     28  O   UNL     1      43.779   3.152  10.372  0.00  0.00    +0.000 OA
ATOM     29  H   UNL     1      44.165   2.457  13.447  0.00  0.00    +0.000 HD
ATOM     30  H   UNL     1      43.172   1.690  12.238  0.00  0.00    +0.000 HD
ENDBRANCH  23  26
ENDBRANCH  18  20
ENDBRANCH  17  18
ENDBRANCH   8  17
TORSDOF 6
ENDMDL
MODEL 6
REMARK VINA RESULT:    -4.227     10.517     12.878
REMARK INTER + INTRA:          -6.929
REMARK INTER:                  -5.966
REMARK INTRA:                  -0.963
REMARK UNBOUND:                -1.220
REMARK  Name = 
REMARK  9 active torsions:
REMARK  status: ('A' for Active; 'I' for Inactive)
REMARK    1  A    between atoms: C_1  and  O_2
REMARK    2  A    between atoms: O_2  and  C_3
REMARK    3  A    between atoms: C_6  and  N_7
REMARK    4  A    between atoms: C_11  and  C_12
REMARK    5  A    between atoms: C_11  and  C_13
REMARK    6  A    between atoms: C_14  and  C_15
REMARK    7  A    between atoms: C_15  and  N_16
REMARK    8  A    between atoms: N_16  and  C_17
REMARK    9  A    between atoms: C_20  and  C_21
REMARK                            x       y       z     vdW  Elec       q    Type
REMARK                         _______ _______ _______ _____ _____    ______ ____
ROOT
ATOM      1  N   UNL     1      39.419  -2.749  13.619  0.00  0.00    +0.000 N 
ATOM      2  C   UNL     1      40.426  -2.888  12.569  0.00  0.00    +0.000 C 
ATOM      3  C   UNL     1      39.810  -3.691  11.429  0.00  0.00    +0.000 C 
ATOM      4  C   UNL     1      38.540  -3.023  10.918  0.00  0.00    +0.000 C 
ATOM      5  C   UNL     1      37.495  -2.731  12.034  0.00  0.00    +0.000 C 
ATOM      6  C   UNL     1      36.872  -4.050  12.541  0.00  0.00    +0.000 C 
ATOM      7  C   UNL     1      36.370  -1.909  11.362  0.00  0.00    +0.000 C 
ATOM      8  C   UNL     1      38.190  -1.957  13.226  0.00  0.00    +0.000 C 
ENDROOT
BRANCH   1  12
ATOM      9  C   UNL     1      40.527  -3.194  17.599  0.00  0.00    +0.000 A 
ATOM     10  C   UNL     1      40.841  -1.988  16.984  0.00  0.00    +0.000 A 
ATOM     11  C   UNL     1      40.481  -1.813  15.634  0.00  0.00    +0.000 A 
ATOM     12  C   UNL     1      39.843  -2.836  14.932  0.00  0.00    +0.000 A 
ATOM     13  C   UNL     1      39.673  -4.016  15.656  0.00  0.00    +0.000 A 
ATOM     14  N   UNL     1      39.935  -4.210  16.959  0.00  0.00    +0.000 NA
BRANCH   9  16
ATOM     15  C   UNL     1      41.611  -4.560  19.128  0.00  0.00    +0.000 C 
ATOM     16  O   UNL     1      40.848  -3.370  18.926  0.00  0.00    +0.000 OA
ENDBRANCH   9  16
ENDBRANCH   1  12
BRANCH   8  17
ATOM     17  C   UNL     1      37.180  -1.611  14.378  0.00  0.00    +0.000 C 
BRANCH  17  18
ATOM     18  N   UNL     1      36.585  -0.277  14.253  0.00  0.00    +0.000 N 
ATOM     19  H   UNL     1      36.408   0.029  13.296  0.00  0.00    +0.000 HD
BRANCH  18  20
ATOM     20  C   UNL     1      36.930   0.753  15.098  0.00  0.00    +0.000 A 
ATOM     21  C   UNL     1      37.875   0.571  16.115  0.00  0.00    +0.000 A 
ATOM     22  C   UNL     1      38.235   1.611  16.955  0.00  0.00    +0.000 A 
ATOM     23  C   UNL     1      37.612   2.846  16.840  0.00  0.00    +0.000 A 
ATOM     24  C   UNL     1      36.619   3.043  15.870  0.00  0.00    +0.000 A 
ATOM     25  C   UNL     1      36.273   1.987  15.019  0.00  0.00    +0.000 A 
BRANCH  23  26
ATOM     26  C   UNL     1      38.053   3.886  17.785  0.00  0.00    +0.000 C 
ATOM     27  N   UNL     1      39.302   4.411  17.617  0.00  0.00    +0.000 N 
ATOM     28  O   UNL     1      37.345   4.256  18.717  0.00  0.00    +0.000 OA
ATOM     29  H   UNL     1      39.978   4.059  16.951  0.00  0.00    +0.000 HD
ATOM     30  H   UNL     1      39.615   5.079  18.317  0.00  0.00    +0.000 HD
ENDBRANCH  23  26
ENDBRANCH  18  20
ENDBRANCH  17  18
ENDBRANCH   8  17
TORSDOF 6
ENDMDL
MODEL 7
REMARK VINA RESULT:    -4.031     10.667     13.126
REMARK INTER + INTRA:          -6.665
REMARK INTER:                  -5.549
REMARK INTRA:                  -1.116
REMARK UNBOUND:                -1.220
REMARK  Name = 
REMARK  9 active torsions:
REMARK  status: ('A' for Active; 'I' for Inactive)
REMARK    1  A    between atoms: C_1  and  O_2
REMARK    2  A    between atoms: O_2  and  C_3
REMARK    3  A    between atoms: C_6  and  N_7
REMARK    4  A    between atoms: C_11  and  C_12
REMARK    5  A    between atoms: C_11  and  C_13
REMARK    6  A    between atoms: C_14  and  C_15
REMARK    7  A    between atoms: C_15  and  N_16
REMARK    8  A    between atoms: N_16  and  C_17
REMARK    9  A    between atoms: C_20  and  C_21
REMARK                            x       y       z     vdW  Elec       q    Type
REMARK                         _______ _______ _______ _____ _____    ______ ____
ROOT
ATOM      1  N   UNL     1      39.967  -4.610  16.393  0.00  0.00    +0.000 N 
ATOM      2  C   UNL     1      39.685  -6.041  16.294  0.00  0.00    +0.000 C 
ATOM      3  C   UNL     1      40.949  -6.797  16.685  0.00  0.00    +0.000 C 
ATOM      4  C   UNL     1      41.412  -6.400  18.081  0.00  0.00    +0.000 C 
ATOM      5  C   UNL     1      41.591  -4.865  18.267  0.00  0.00    +0.000 C 
ATOM      6  C   UNL     1      42.817  -4.370  17.469  0.00  0.00    +0.000 C 
ATOM      7  C   UNL     1      41.890  -4.649  19.769  0.00  0.00    +0.000 C 
ATOM      8  C   UNL     1      40.283  -4.114  17.788  0.00  0.00    +0.000 C 
ENDROOT
BRANCH   1  12
ATOM      9  C   UNL     1      38.567  -2.021  13.459  0.00  0.00    +0.000 A 
ATOM     10  C   UNL     1      37.632  -2.541  14.345  0.00  0.00    +0.000 A 
ATOM     11  C   UNL     1      38.079  -3.424  15.346  0.00  0.00    +0.000 A 
ATOM     12  C   UNL     1      39.425  -3.780  15.428  0.00  0.00    +0.000 A 
ATOM     13  C   UNL     1      40.227  -3.248  14.418  0.00  0.00    +0.000 A 
ATOM     14  N   UNL     1      39.865  -2.351  13.487  0.00  0.00    +0.000 NA
BRANCH   9  16
ATOM     15  C   UNL     1      38.498  -1.585  11.182  0.00  0.00    +0.000 C 
ATOM     16  O   UNL     1      38.151  -1.135  12.492  0.00  0.00    +0.000 OA
ENDBRANCH   9  16
ENDBRANCH   1  12
BRANCH   8  17
ATOM     17  C   UNL     1      40.391  -2.558  17.972  0.00  0.00    +0.000 C 
BRANCH  17  18
ATOM     18  N   UNL     1      39.168  -1.947  18.503  0.00  0.00    +0.000 N 
ATOM     19  H   UNL     1      38.330  -2.522  18.426  0.00  0.00    +0.000 HD
BRANCH  18  20
ATOM     20  C   UNL     1      38.919  -0.599  18.378  0.00  0.00    +0.000 A 
ATOM     21  C   UNL     1      38.821   0.228  19.503  0.00  0.00    +0.000 A 
ATOM     22  C   UNL     1      38.588   1.588  19.377  0.00  0.00    +0.000 A 
ATOM     23  C   UNL     1      38.384   2.145  18.122  0.00  0.00    +0.000 A 
ATOM     24  C   UNL     1      38.417   1.333  16.980  0.00  0.00    +0.000 A 
ATOM     25  C   UNL     1      38.666  -0.038  17.120  0.00  0.00    +0.000 A 
BRANCH  23  26
ATOM     26  C   UNL     1      38.131   3.596  18.090  0.00  0.00    +0.000 C 
ATOM     27  N   UNL     1      39.084   4.396  17.527  0.00  0.00    +0.000 N 
ATOM     28  O   UNL     1      37.118   4.087  18.577  0.00  0.00    +0.000 OA
ATOM     29  H   UNL     1      39.993   4.066  17.227  0.00  0.00    +0.000 HD
ATOM     30  H   UNL     1      38.924   5.398  17.573  0.00  0.00    +0.000 HD
ENDBRANCH  23  26
ENDBRANCH  18  20
ENDBRANCH  17  18
ENDBRANCH   8  17
TORSDOF 6
ENDMDL
MODEL 8
REMARK VINA RESULT:    -3.706     11.309     13.955
REMARK INTER + INTRA:          -6.225
REMARK INTER:                  -5.306
REMARK INTRA:                  -0.919
REMARK UNBOUND:                -1.220
REMARK  Name = 
REMARK  9 active torsions:
REMARK  status: ('A' for Active; 'I' for Inactive)
REMARK    1  A    between atoms: C_1  and  O_2
REMARK    2  A    between atoms: O_2  and  C_3
REMARK    3  A    between atoms: C_6  and  N_7
REMARK    4  A    between atoms: C_11  and  C_12
REMARK    5  A    between atoms: C_11  and  C_13
REMARK    6  A    between atoms: C_14  and  C_15
REMARK    7  A    between atoms: C_15  and  N_16
REMARK    8  A    between atoms: N_16  and  C_17
REMARK    9  A    between atoms: C_20  and  C_21
REMARK                            x       y       z     vdW  Elec       q    Type
REMARK                         _______ _______ _______ _____ _____    ______ ____
ROOT
ATOM      1  N   UNL     1      38.901  -3.066  14.595  0.00  0.00    +0.000 N 
ATOM      2  C   UNL     1      37.815  -3.408  13.678  0.00  0.00    +0.000 C 
ATOM      3  C   UNL     1      38.375  -3.393  12.261  0.00  0.00    +0.000 C 
ATOM      4  C   UNL     1      39.555  -4.348  12.131  0.00  0.00    +0.000 C 
ATOM      5  C   UNL     1      40.675  -4.103  13.183  0.00  0.00    +0.000 C 
ATOM      6  C   UNL     1      41.414  -2.781  12.880  0.00  0.00    +0.000 C 
ATOM      7  C   UNL     1      41.688  -5.258  13.006  0.00  0.00    +0.000 C 
ATOM      8  C   UNL     1      40.043  -4.059  14.633  0.00  0.00    +0.000 C 
ENDROOT
BRANCH   1  12
ATOM      9  C   UNL     1      37.792  -0.775  17.880  0.00  0.00    +0.000 A 
ATOM     10  C   UNL     1      38.672  -0.198  16.972  0.00  0.00    +0.000 A 
ATOM     11  C   UNL     1      39.068  -0.955  15.853  0.00  0.00    +0.000 A 
ATOM     12  C   UNL     1      38.599  -2.257  15.676  0.00  0.00    +0.000 A 
ATOM     13  C   UNL     1      37.794  -2.729  16.713  0.00  0.00    +0.000 A 
ATOM     14  N   UNL     1      37.334  -2.028  17.761  0.00  0.00    +0.000 NA
BRANCH   9  16
ATOM     15  C   UNL     1      38.430   0.764  19.493  0.00  0.00    +0.000 C 
ATOM     16  O   UNL     1      37.374  -0.039  18.965  0.00  0.00    +0.000 OA
ENDBRANCH   9  16
ENDBRANCH   1  12
BRANCH   8  17
ATOM     17  C   UNL     1      41.129  -3.837  15.747  0.00  0.00    +0.000 C 
BRANCH  17  18
ATOM     18  N   UNL     1      41.328  -5.006  16.610  0.00  0.00    +0.000 N 
ATOM     19  H   UNL     1      40.591  -5.168  17.295  0.00  0.00    +0.000 HD
BRANCH  18  20
ATOM     20  C   UNL     1      42.577  -5.373  17.056  0.00  0.00    +0.000 A 
ATOM     21  C   UNL     1      43.328  -4.531  17.885  0.00  0.00    +0.000 A 
ATOM     22  C   UNL     1      44.577  -4.907  18.349  0.00  0.00    +0.000 A 
ATOM     23  C   UNL     1      45.136  -6.110  17.944  0.00  0.00    +0.000 A 
ATOM     24  C   UNL     1      44.435  -6.949  17.066  0.00  0.00    +0.000 A 
ATOM     25  C   UNL     1      43.168  -6.563  16.614  0.00  0.00    +0.000 A 
BRANCH  23  26
ATOM     26  C   UNL     1      46.473  -6.418  18.479  0.00  0.00    +0.000 C 
ATOM     27  N   UNL     1      46.546  -7.168  19.618  0.00  0.00    +0.000 N 
ATOM     28  O   UNL     1      47.496  -5.995  17.949  0.00  0.00    +0.000 OA
ATOM     29  H   UNL     1      45.741  -7.436  20.170  0.00  0.00    +0.000 HD
ATOM     30  H   UNL     1      47.472  -7.314  20.011  0.00  0.00    +0.000 HD
ENDBRANCH  23  26
ENDBRANCH  18  20
ENDBRANCH  17  18
ENDBRANCH   8  17
TORSDOF 6
ENDMDL
