MODEL 1
REMARK VINA RESULT:    -7.694      0.000      0.000
REMARK INTER + INTRA:         -11.125
REMARK INTER:                 -10.167
REMARK INTRA:                  -0.958
REMARK UNBOUND:                -0.958
REMARK  Name = 
REMARK  9 active torsions:
REMARK  status: ('A' for Active; 'I' for Inactive)
REMARK    1  A    between atoms: C_1  and  O_2
REMARK    2  A    between atoms: O_2  and  C_3
REMARK    3  A    between atoms: C_6  and  C_7
REMARK    4  A    between atoms: N_13  and  C_14
REMARK    5  A    between atoms: C_14  and  C_15
REMARK    6  A    between atoms: C_18  and  C_19
REMARK    7  A    between atoms: C_19  and  C_20
REMARK    8  A    between atoms: C_19  and  C_21
REMARK    9  A    between atoms: C_19  and  O_22
REMARK                            x       y       z     vdW  Elec       q    Type
REMARK                         _______ _______ _______ _____ _____    ______ ____
ROOT
ATOM      1  C   UNL     1      45.477   7.258  12.155  0.00  0.00    +0.000 A 
ATOM      2  N   UNL     1      46.182   8.265  12.730  0.00  0.00    +0.000 NA
ATOM      3  C   UNL     1      47.162   7.999  13.613  0.00  0.00    +0.000 A 
ATOM      4  C   UNL     1      47.504   6.730  14.029  0.00  0.00    +0.000 A 
ATOM      5  C   UNL     1      46.732   5.659  13.507  0.00  0.00    +0.000 A 
ATOM      6  C   UNL     1      46.764   4.242  13.667  0.00  0.00    +0.000 A 
ATOM      7  C   UNL     1      45.772   3.696  12.896  0.00  0.00    +0.000 A 
ATOM      8  N   UNL     1      45.126   4.709  12.215  0.00  0.00    +0.000 N 
ATOM      9  C   UNL     1      45.699   5.933  12.569  0.00  0.00    +0.000 A 
ENDROOT
BRANCH   4  10
ATOM     10  C   UNL     1      48.667   6.635  14.921  0.00  0.00    +0.000 C 
ATOM     11  N   UNL     1      48.472   6.310  16.230  0.00  0.00    +0.000 N 
ATOM     12  O   UNL     1      49.791   6.903  14.526  0.00  0.00    +0.000 OA
ATOM     13  H   UNL     1      47.558   6.336  16.665  0.00  0.00    +0.000 HD
ATOM     14  H   UNL     1      49.280   6.422  16.833  0.00  0.00    +0.000 HD
ENDBRANCH   4  10
BRANCH   1  16
ATOM     15  C   UNL     1      44.374   9.037  11.189  0.00  0.00    +0.000 C 
ATOM     16  O   UNL     1      44.589   7.611  11.159  0.00  0.00    +0.000 OA
ENDBRANCH   1  16
BRANCH   8  17
ATOM     17  C   UNL     1      44.099   4.412  11.205  0.00  0.00    +0.000 C 
BRANCH  17  18
ATOM     18  C   UNL     1      44.671   3.915   9.897  0.00  0.00    +0.000 A 
ATOM     19  C   UNL     1      44.602   2.570   9.542  0.00  0.00    +0.000 A 
ATOM     20  C   UNL     1      45.312   2.112   8.431  0.00  0.00    +0.000 A 
ATOM     21  C   UNL     1      46.077   3.007   7.683  0.00  0.00    +0.000 A 
ATOM     22  N   UNL     1      46.015   4.343   7.924  0.00  0.00    +0.000 NA
ATOM     23  C   UNL     1      45.324   4.760   9.011  0.00  0.00    +0.000 A 
BRANCH  21  24
ATOM     24  C   UNL     1      47.154   2.509   6.717  0.00  0.00    +0.000 C 
ATOM     25  C   UNL     1      47.445   1.016   6.890  0.00  0.00    +0.000 C 
ATOM     26  C   UNL     1      46.674   2.780   5.284  0.00  0.00    +0.000 C 
BRANCH  24  27
ATOM     27  O   UNL     1      48.392   3.215   6.884  0.00  0.00    +0.000 OA
ATOM     28  H   UNL     1      48.171   4.099   7.224  0.00  0.00    +0.000 HD
ENDBRANCH  24  27
ENDBRANCH  21  24
ENDBRANCH  17  18
ENDBRANCH   8  17
TORSDOF 6
ENDMDL
MODEL 2
REMARK VINA RESULT:    -7.244      1.636      2.690
REMARK INTER + INTRA:         -10.531
REMARK INTER:                  -9.808
REMARK INTRA:                  -0.722
REMARK UNBOUND:                -0.958
REMARK  Name = 
REMARK  9 active torsions:
REMARK  status: ('A' for Active; 'I' for Inactive)
REMARK    1  A    between atoms: C_1  and  O_2
REMARK    2  A    between atoms: O_2  and  C_3
REMARK    3  A    between atoms: C_6  and  C_7
REMARK    4  A    between atoms: N_13  and  C_14
REMARK    5  A    between atoms: C_14  and  C_15
REMARK    6  A    between atoms: C_18  and  C_19
REMARK    7  A    between atoms: C_19  and  C_20
REMARK    8  A    between atoms: C_19  and  C_21
REMARK    9  A    between atoms: C_19  and  O_22
REMARK                            x       y       z     vdW  Elec       q    Type
REMARK                         _______ _______ _______ _____ _____    ______ ____
ROOT
ATOM      1  C   UNL     1      46.876   5.278  13.308  0.00  0.00    +0.000 A 
ATOM      2  N   UNL     1      47.927   5.641  14.086  0.00  0.00    +0.000 NA
ATOM      3  C   UNL     1      48.228   6.939  14.270  0.00  0.00    +0.000 A 
ATOM      4  C   UNL     1      47.546   7.982  13.681  0.00  0.00    +0.000 A 
ATOM      5  C   UNL     1      46.490   7.634  12.798  0.00  0.00    +0.000 A 
ATOM      6  C   UNL     1      45.559   8.384  12.019  0.00  0.00    +0.000 A 
ATOM      7  C   UNL     1      44.741   7.506  11.358  0.00  0.00    +0.000 A 
ATOM      8  N   UNL     1      45.089   6.217  11.712  0.00  0.00    +0.000 N 
ATOM      9  C   UNL     1      46.164   6.264  12.603  0.00  0.00    +0.000 A 
ENDROOT
BRANCH   4  10
ATOM     10  C   UNL     1      47.957   9.333  14.083  0.00  0.00    +0.000 C 
ATOM     11  N   UNL     1      47.911   9.674  15.403  0.00  0.00    +0.000 N 
ATOM     12  O   UNL     1      48.277  10.171  13.255  0.00  0.00    +0.000 OA
ATOM     13  H   UNL     1      47.414   9.118  16.089  0.00  0.00    +0.000 HD
ATOM     14  H   UNL     1      48.042  10.659  15.605  0.00  0.00    +0.000 HD
ENDBRANCH   4  10
BRANCH   1  16
ATOM     15  C   UNL     1      47.216   3.264  14.377  0.00  0.00    +0.000 C 
ATOM     16  O   UNL     1      46.553   3.937  13.287  0.00  0.00    +0.000 OA
ENDBRANCH   1  16
BRANCH   8  17
ATOM     17  C   UNL     1      44.296   5.063  11.259  0.00  0.00    +0.000 C 
BRANCH  17  18
ATOM     18  C   UNL     1      44.805   4.454   9.973  0.00  0.00    +0.000 A 
ATOM     19  C   UNL     1      44.481   3.147   9.614  0.00  0.00    +0.000 A 
ATOM     20  C   UNL     1      45.126   2.549   8.530  0.00  0.00    +0.000 A 
ATOM     21  C   UNL     1      46.082   3.267   7.813  0.00  0.00    +0.000 A 
ATOM     22  N   UNL     1      46.280   4.591   8.052  0.00  0.00    +0.000 NA
ATOM     23  C   UNL     1      45.647   5.144   9.113  0.00  0.00    +0.000 A 
BRANCH  21  24
ATOM     24  C   UNL     1      47.072   2.557   6.888  0.00  0.00    +0.000 C 
ATOM     25  C   UNL     1      47.268   1.086   7.265  0.00  0.00    +0.000 C 
ATOM     26  C   UNL     1      46.541   2.657   5.451  0.00  0.00    +0.000 C 
BRANCH  24  27
ATOM     27  O   UNL     1      48.363   3.185   6.902  0.00  0.00    +0.000 OA
ATOM     28  H   UNL     1      48.533   3.504   5.999  0.00  0.00    +0.000 HD
ENDBRANCH  24  27
ENDBRANCH  21  24
ENDBRANCH  17  18
ENDBRANCH   8  17
TORSDOF 6
ENDMDL
MODEL 3
REMARK VINA RESULT:    -6.323      3.208      6.771
REMARK INTER + INTRA:          -9.314
REMARK INTER:                  -8.519
REMARK INTRA:                  -0.795
REMARK UNBOUND:                -0.958
REMARK  Name = 
REMARK  9 active torsions:
REMARK  status: ('A' for Active; 'I' for Inactive)
REMARK    1  A    between atoms: C_1  and  O_2
REMARK    2  A    between atoms: O_2  and  C_3
REMARK    3  A    between atoms: C_6  and  C_7
REMARK    4  A    between atoms: N_13  and  C_14
REMARK    5  A    between atoms: C_14  and  C_15
REMARK    6  A    between atoms: C_18  and  C_19
REMARK    7  A    between atoms: C_19  and  C_20
REMARK    8  A    between atoms: C_19  and  C_21
REMARK    9  A    between atoms: C_19  and  O_22
REMARK                            x       y       z     vdW  Elec       q    Type
REMARK                         _______ _______ _______ _____ _____    ______ ____
ROOT
ATOM      1  C   UNL     1      46.932   4.990  13.846  0.00  0.00    +0.000 A 
ATOM      2  N   UNL     1      46.705   3.653  13.797  0.00  0.00    +0.000 NA
ATOM      3  C   UNL     1      45.838   3.136  12.908  0.00  0.00    +0.000 A 
ATOM      4  C   UNL     1      45.099   3.890  12.022  0.00  0.00    +0.000 A 
ATOM      5  C   UNL     1      45.253   5.298  12.100  0.00  0.00    +0.000 A 
ATOM      6  C   UNL     1      44.701   6.400  11.381  0.00  0.00    +0.000 A 
ATOM      7  C   UNL     1      45.231   7.558  11.887  0.00  0.00    +0.000 A 
ATOM      8  N   UNL     1      46.135   7.239  12.882  0.00  0.00    +0.000 N 
ATOM      9  C   UNL     1      46.173   5.850  13.034  0.00  0.00    +0.000 A 
ENDROOT
BRANCH   4  10
ATOM     10  C   UNL     1      44.281   3.139  11.060  0.00  0.00    +0.000 C 
ATOM     11  N   UNL     1      44.901   2.455  10.057  0.00  0.00    +0.000 N 
ATOM     12  O   UNL     1      43.061   3.169  11.106  0.00  0.00    +0.000 OA
ATOM     13  H   UNL     1      45.873   2.606   9.817  0.00  0.00    +0.000 HD
ATOM     14  H   UNL     1      44.291   2.097   9.330  0.00  0.00    +0.000 HD
ENDBRANCH   4  10
BRANCH   1  16
ATOM     15  C   UNL     1      47.763   4.824  15.990  0.00  0.00    +0.000 C 
ATOM     16  O   UNL     1      47.938   5.419  14.688  0.00  0.00    +0.000 OA
ENDBRANCH   1  16
BRANCH   8  17
ATOM     17  C   UNL     1      46.962   8.276  13.519  0.00  0.00    +0.000 C 
BRANCH  17  18
ATOM     18  C   UNL     1      48.304   8.465  12.850  0.00  0.00    +0.000 A 
ATOM     19  C   UNL     1      48.709   7.647  11.797  0.00  0.00    +0.000 A 
ATOM     20  C   UNL     1      50.026   7.715  11.338  0.00  0.00    +0.000 A 
ATOM     21  C   UNL     1      50.920   8.606  11.931  0.00  0.00    +0.000 A 
ATOM     22  N   UNL     1      50.489   9.520  12.841  0.00  0.00    +0.000 NA
ATOM     23  C   UNL     1      49.209   9.428  13.273  0.00  0.00    +0.000 A 
BRANCH  21  24
ATOM     24  C   UNL     1      52.430   8.455  11.739  0.00  0.00    +0.000 C 
ATOM     25  C   UNL     1      52.778   7.646  10.485  0.00  0.00    +0.000 C 
ATOM     26  C   UNL     1      53.043   9.858  11.637  0.00  0.00    +0.000 C 
BRANCH  24  27
ATOM     27  O   UNL     1      53.050   7.807  12.859  0.00  0.00    +0.000 OA
ATOM     28  H   UNL     1      52.362   7.688  13.535  0.00  0.00    +0.000 HD
ENDBRANCH  24  27
ENDBRANCH  21  24
ENDBRANCH  17  18
ENDBRANCH   8  17
TORSDOF 6
ENDMDL
MODEL 4
REMARK VINA RESULT:    -6.075      4.046      7.057
REMARK INTER + INTRA:          -8.986
REMARK INTER:                  -8.276
REMARK INTRA:                  -0.711
REMARK UNBOUND:                -0.958
REMARK  Name = 
REMARK  9 active torsions:
REMARK  status: ('A' for Active; 'I' for Inactive)
REMARK    1  A    between atoms: C_1  and  O_2
REMARK    2  A    between atoms: O_2  and  C_3
REMARK    3  A    between atoms: C_6  and  C_7
REMARK    4  A    between atoms: N_13  and  C_14
REMARK    5  A    between atoms: C_14  and  C_15
REMARK    6  A    between atoms: C_18  and  C_19
REMARK    7  A    between atoms: C_19  and  C_20
REMARK    8  A    between atoms: C_19  and  C_21
REMARK    9  A    between atoms: C_19  and  O_22
REMARK                            x       y       z     vdW  Elec       q    Type
REMARK                         _______ _______ _______ _____ _____    ______ ____
ROOT
ATOM      1  C   UNL     1      47.092   9.562  12.224  0.00  0.00    +0.000 A 
ATOM      2  N   UNL     1      46.610  10.819  12.056  0.00  0.00    +0.000 NA
ATOM      3  C   UNL     1      45.325  11.021  11.715  0.00  0.00    +0.000 A 
ATOM      4  C   UNL     1      44.420  10.009  11.478  0.00  0.00    +0.000 A 
ATOM      5  C   UNL     1      44.913   8.681  11.568  0.00  0.00    +0.000 A 
ATOM      6  C   UNL     1      44.324   7.390  11.413  0.00  0.00    +0.000 A 
ATOM      7  C   UNL     1      45.290   6.443  11.635  0.00  0.00    +0.000 A 
ATOM      8  N   UNL     1      46.472   7.079  11.962  0.00  0.00    +0.000 N 
ATOM      9  C   UNL     1      46.270   8.461  11.933  0.00  0.00    +0.000 A 
ENDROOT
BRANCH   4  10
ATOM     10  C   UNL     1      43.036  10.426  11.217  0.00  0.00    +0.000 C 
ATOM     11  N   UNL     1      42.348  11.082  12.194  0.00  0.00    +0.000 N 
ATOM     12  O   UNL     1      42.476  10.141  10.171  0.00  0.00    +0.000 OA
ATOM     13  H   UNL     1      42.666  11.112  13.155  0.00  0.00    +0.000 HD
ATOM     14  H   UNL     1      41.354  11.197  12.026  0.00  0.00    +0.000 HD
ENDBRANCH   4  10
BRANCH   1  16
ATOM     15  C   UNL     1      49.319   9.622  11.630  0.00  0.00    +0.000 C 
ATOM     16  O   UNL     1      48.380   9.451  12.710  0.00  0.00    +0.000 OA
ENDBRANCH   1  16
BRANCH   8  17
ATOM     17  C   UNL     1      47.655   6.312  12.384  0.00  0.00    +0.000 C 
BRANCH  17  18
ATOM     18  C   UNL     1      47.531   5.737  13.776  0.00  0.00    +0.000 A 
ATOM     19  C   UNL     1      48.254   6.267  14.844  0.00  0.00    +0.000 A 
ATOM     20  C   UNL     1      48.273   5.592  16.066  0.00  0.00    +0.000 A 
ATOM     21  C   UNL     1      47.563   4.400  16.208  0.00  0.00    +0.000 A 
ATOM     22  N   UNL     1      46.727   3.968  15.228  0.00  0.00    +0.000 NA
ATOM     23  C   UNL     1      46.732   4.637  14.051  0.00  0.00    +0.000 A 
BRANCH  21  24
ATOM     24  C   UNL     1      47.853   3.443  17.366  0.00  0.00    +0.000 C 
ATOM     25  C   UNL     1      48.927   2.411  17.013  0.00  0.00    +0.000 C 
ATOM     26  C   UNL     1      48.311   4.276  18.572  0.00  0.00    +0.000 C 
BRANCH  24  27
ATOM     27  O   UNL     1      46.679   2.725  17.775  0.00  0.00    +0.000 OA
ATOM     28  H   UNL     1      46.154   2.560  16.973  0.00  0.00    +0.000 HD
ENDBRANCH  24  27
ENDBRANCH  21  24
ENDBRANCH  17  18
ENDBRANCH   8  17
TORSDOF 6
ENDMDL
MODEL 5
REMARK VINA RESULT:    -6.030      3.841      8.561
REMARK INTER + INTRA:          -8.926
REMARK INTER:                  -7.970
REMARK INTRA:                  -0.956
REMARK UNBOUND:                -0.958
REMARK  Name = 
REMARK  9 active torsions:
REMARK  status: ('A' for Active; 'I' for Inactive)
REMARK    1  A    between atoms: C_1  and  O_2
REMARK    2  A    between atoms: O_2  and  C_3
REMARK    3  A    between atoms: C_6  and  C_7
REMARK    4  A    between atoms: N_13  and  C_14
REMARK    5  A    between atoms: C_14  and  C_15
REMARK    6  A    between atoms: C_18  and  C_19
REMARK    7  A    between atoms: C_19  and  C_20
REMARK    8  A    between atoms: C_19  and  C_21
REMARK    9  A    between atoms: C_19  and  O_22
REMARK                            x       y       z     vdW  Elec       q    Type
REMARK                         _______ _______ _______ _____ _____    ______ ____
ROOT
ATOM      1  C   UNL     1      46.646   4.807  13.813  0.00  0.00    +0.000 A 
ATOM      2  N   UNL     1      45.505   4.081  13.704  0.00  0.00    +0.000 NA
ATOM      3  C   UNL     1      44.512   4.482  12.890  0.00  0.00    +0.000 A 
ATOM      4  C   UNL     1      44.543   5.641  12.146  0.00  0.00    +0.000 A 
ATOM      5  C   UNL     1      45.689   6.465  12.297  0.00  0.00    +0.000 A 
ATOM      6  C   UNL     1      46.108   7.700  11.720  0.00  0.00    +0.000 A 
ATOM      7  C   UNL     1      47.336   8.026  12.235  0.00  0.00    +0.000 A 
ATOM      8  N   UNL     1      47.739   7.024  13.097  0.00  0.00    +0.000 N 
ATOM      9  C   UNL     1      46.745   6.044  13.153  0.00  0.00    +0.000 A 
ENDROOT
BRANCH   4  10
ATOM     10  C   UNL     1      43.409   5.857  11.238  0.00  0.00    +0.000 C 
ATOM     11  N   UNL     1      42.686   7.008  11.344  0.00  0.00    +0.000 N 
ATOM     12  O   UNL     1      43.065   5.000  10.439  0.00  0.00    +0.000 OA
ATOM     13  H   UNL     1      42.760   7.623  12.146  0.00  0.00    +0.000 HD
ATOM     14  H   UNL     1      41.821   7.032  10.815  0.00  0.00    +0.000 HD
ENDBRANCH   4  10
BRANCH   1  16
ATOM     15  C   UNL     1      47.226   4.079  15.922  0.00  0.00    +0.000 C 
ATOM     16  O   UNL     1      47.665   4.253  14.560  0.00  0.00    +0.000 OA
ENDBRANCH   1  16
BRANCH   8  17
ATOM     17  C   UNL     1      49.081   7.034  13.700  0.00  0.00    +0.000 C 
BRANCH  17  18
ATOM     18  C   UNL     1      49.081   7.448  15.154  0.00  0.00    +0.000 A 
ATOM     19  C   UNL     1      49.683   6.657  16.130  0.00  0.00    +0.000 A 
ATOM     20  C   UNL     1      49.493   6.961  17.479  0.00  0.00    +0.000 A 
ATOM     21  C   UNL     1      48.708   8.058  17.836  0.00  0.00    +0.000 A 
ATOM     22  N   UNL     1      48.258   8.927  16.891  0.00  0.00    +0.000 NA
ATOM     23  C   UNL     1      48.452   8.604  15.591  0.00  0.00    +0.000 A 
BRANCH  21  24
ATOM     24  C   UNL     1      48.160   8.208  19.256  0.00  0.00    +0.000 C 
ATOM     25  C   UNL     1      47.125   9.331  19.365  0.00  0.00    +0.000 C 
ATOM     26  C   UNL     1      47.521   6.873  19.665  0.00  0.00    +0.000 C 
BRANCH  24  27
ATOM     27  O   UNL     1      49.201   8.483  20.206  0.00  0.00    +0.000 OA
ATOM     28  H   UNL     1      49.979   7.969  19.931  0.00  0.00    +0.000 HD
ENDBRANCH  24  27
ENDBRANCH  21  24
ENDBRANCH  17  18
ENDBRANCH   8  17
TORSDOF 6
ENDMDL
MODEL 6
REMARK VINA RESULT:    -5.938      3.321      8.233
REMARK INTER + INTRA:          -8.805
REMARK INTER:                  -8.637
REMARK INTRA:                  -0.167
REMARK UNBOUND:                -0.958
REMARK  Name = 
REMARK  9 active torsions:
REMARK  status: ('A' for Active; 'I' for Inactive)
REMARK    1  A    between atoms: C_1  and  O_2
REMARK    2  A    between atoms: O_2  and  C_3
REMARK    3  A    between atoms: C_6  and  C_7
REMARK    4  A    between atoms: N_13  and  C_14
REMARK    5  A    between atoms: C_14  and  C_15
REMARK    6  A    between atoms: C_18  and  C_19
REMARK    7  A    between atoms: C_19  and  C_20
REMARK    8  A    between atoms: C_19  and  C_21
REMARK    9  A    between atoms: C_19  and  O_22
REMARK                            x       y       z     vdW  Elec       q    Type
REMARK                         _______ _______ _______ _____ _____    ______ ____
ROOT
ATOM      1  C   UNL     1      45.392   6.699  12.584  0.00  0.00    +0.000 A 
ATOM      2  N   UNL     1      44.396   6.634  11.665  0.00  0.00    +0.000 NA
ATOM      3  C   UNL     1      43.968   5.446  11.199  0.00  0.00    +0.000 A 
ATOM      4  C   UNL     1      44.506   4.232  11.569  0.00  0.00    +0.000 A 
ATOM      5  C   UNL     1      45.603   4.269  12.469  0.00  0.00    +0.000 A 
ATOM      6  C   UNL     1      46.412   3.272  13.090  0.00  0.00    +0.000 A 
ATOM      7  C   UNL     1      47.332   3.896  13.891  0.00  0.00    +0.000 A 
ATOM      8  N   UNL     1      47.120   5.260  13.836  0.00  0.00    +0.000 N 
ATOM      9  C   UNL     1      46.056   5.521  12.969  0.00  0.00    +0.000 A 
ENDROOT
BRANCH   4  10
ATOM     10  C   UNL     1      43.839   3.039  11.031  0.00  0.00    +0.000 C 
ATOM     11  N   UNL     1      44.142   2.624   9.769  0.00  0.00    +0.000 N 
ATOM     12  O   UNL     1      42.976   2.456  11.668  0.00  0.00    +0.000 OA
ATOM     13  H   UNL     1      44.643   3.210   9.111  0.00  0.00    +0.000 HD
ATOM     14  H   UNL     1      43.537   1.905   9.388  0.00  0.00    +0.000 HD
ENDBRANCH   4  10
BRANCH   1  16
ATOM     15  C   UNL     1      45.352   8.960  12.139  0.00  0.00    +0.000 C 
ATOM     16  O   UNL     1      45.671   7.944  13.110  0.00  0.00    +0.000 OA
ENDBRANCH   1  16
BRANCH   8  17
ATOM     17  C   UNL     1      47.873   6.182  14.700  0.00  0.00    +0.000 C 
BRANCH  17  18
ATOM     18  C   UNL     1      48.219   5.592  16.049  0.00  0.00    +0.000 A 
ATOM     19  C   UNL     1      47.379   4.672  16.672  0.00  0.00    +0.000 A 
ATOM     20  C   UNL     1      47.622   4.301  17.995  0.00  0.00    +0.000 A 
ATOM     21  C   UNL     1      48.708   4.850  18.678  0.00  0.00    +0.000 A 
ATOM     22  N   UNL     1      49.623   5.616  18.026  0.00  0.00    +0.000 NA
ATOM     23  C   UNL     1      49.359   5.965  16.745  0.00  0.00    +0.000 A 
BRANCH  21  24
ATOM     24  C   UNL     1      48.796   4.783  20.203  0.00  0.00    +0.000 C 
ATOM     25  C   UNL     1      50.222   5.010  20.714  0.00  0.00    +0.000 C 
ATOM     26  C   UNL     1      47.861   5.852  20.785  0.00  0.00    +0.000 C 
BRANCH  24  27
ATOM     27  O   UNL     1      48.350   3.516  20.711  0.00  0.00    +0.000 OA
ATOM     28  H   UNL     1      48.854   2.829  20.241  0.00  0.00    +0.000 HD
ENDBRANCH  24  27
ENDBRANCH  21  24
ENDBRANCH  17  18
ENDBRANCH   8  17
TORSDOF 6
ENDMDL
MODEL 7
REMARK VINA RESULT:    -5.807      3.582      6.256
REMARK INTER + INTRA:          -8.631
REMARK INTER:                  -7.725
REMARK INTRA:                  -0.906
REMARK UNBOUND:                -0.958
REMARK  Name = 
REMARK  9 active torsions:
REMARK  status: ('A' for Active; 'I' for Inactive)
REMARK    1  A    between atoms: C_1  and  O_2
REMARK    2  A    between atoms: O_2  and  C_3
REMARK    3  A    between atoms: C_6  and  C_7
REMARK    4  A    between atoms: N_13  and  C_14
REMARK    5  A    between atoms: C_14  and  C_15
REMARK    6  A    between atoms: C_18  and  C_19
REMARK    7  A    between atoms: C_19  and  C_20
REMARK    8  A    between atoms: C_19  and  C_21
REMARK    9  A    between atoms: C_19  and  O_22
REMARK                            x       y       z     vdW  Elec       q    Type
REMARK                         _______ _______ _______ _____ _____    ______ ____
ROOT
ATOM      1  C   UNL     1      45.149   7.181  12.110  0.00  0.00    +0.000 A 
ATOM      2  N   UNL     1      44.121   6.728  11.351  0.00  0.00    +0.000 NA
ATOM      3  C   UNL     1      43.804   5.421  11.336  0.00  0.00    +0.000 A 
ATOM      4  C   UNL     1      44.490   4.451  12.034  0.00  0.00    +0.000 A 
ATOM      5  C   UNL     1      45.621   4.881  12.776  0.00  0.00    +0.000 A 
ATOM      6  C   UNL     1      46.566   4.222  13.618  0.00  0.00    +0.000 A 
ATOM      7  C   UNL     1      47.451   5.155  14.090  0.00  0.00    +0.000 A 
ATOM      8  N   UNL     1      47.087   6.399  13.612  0.00  0.00    +0.000 N 
ATOM      9  C   UNL     1      45.958   6.262  12.800  0.00  0.00    +0.000 A 
ENDROOT
BRANCH   4  10
ATOM     10  C   UNL     1      43.932   3.093  11.973  0.00  0.00    +0.000 C 
ATOM     11  N   UNL     1      43.964   2.417  10.790  0.00  0.00    +0.000 N 
ATOM     12  O   UNL     1      43.386   2.590  12.942  0.00  0.00    +0.000 OA
ATOM     13  H   UNL     1      44.160   2.876   9.908  0.00  0.00    +0.000 HD
ATOM     14  H   UNL     1      43.420   1.562  10.761  0.00  0.00    +0.000 HD
ENDBRANCH   4  10
BRANCH   1  16
ATOM     15  C   UNL     1      44.393   9.192  11.274  0.00  0.00    +0.000 C 
ATOM     16  O   UNL     1      45.316   8.550  12.176  0.00  0.00    +0.000 OA
ENDBRANCH   1  16
BRANCH   8  17
ATOM     17  C   UNL     1      47.778   7.618  14.061  0.00  0.00    +0.000 C 
BRANCH  17  18
ATOM     18  C   UNL     1      48.994   7.958  13.230  0.00  0.00    +0.000 A 
ATOM     19  C   UNL     1      48.960   7.893  11.839  0.00  0.00    +0.000 A 
ATOM     20  C   UNL     1      50.147   8.015  11.114  0.00  0.00    +0.000 A 
ATOM     21  C   UNL     1      51.352   8.209  11.788  0.00  0.00    +0.000 A 
ATOM     22  N   UNL     1      51.369   8.439  13.128  0.00  0.00    +0.000 NA
ATOM     23  C   UNL     1      50.206   8.308  13.808  0.00  0.00    +0.000 A 
BRANCH  21  24
ATOM     24  C   UNL     1      52.693   7.968  11.093  0.00  0.00    +0.000 C 
ATOM     25  C   UNL     1      52.553   7.080   9.853  0.00  0.00    +0.000 C 
ATOM     26  C   UNL     1      53.276   9.330  10.690  0.00  0.00    +0.000 C 
BRANCH  24  27
ATOM     27  O   UNL     1      53.646   7.346  11.967  0.00  0.00    +0.000 OA
ATOM     28  H   UNL     1      54.179   6.742  11.422  0.00  0.00    +0.000 HD
ENDBRANCH  24  27
ENDBRANCH  21  24
ENDBRANCH  17  18
ENDBRANCH   8  17
TORSDOF 6
ENDMDL
MODEL 8
REMARK VINA RESULT:    -5.806      2.693      3.638
REMARK INTER + INTRA:          -8.631
REMARK INTER:                  -7.846
REMARK INTRA:                  -0.784
REMARK UNBOUND:                -0.958
REMARK  Name = 
REMARK  9 active torsions:
REMARK  status: ('A' for Active; 'I' for Inactive)
REMARK    1  A    between atoms: C_1  and  O_2
REMARK    2  A    between atoms: O_2  and  C_3
REMARK    3  A    between atoms: C_6  and  C_7
REMARK    4  A    between atoms: N_13  and  C_14
REMARK    5  A    between atoms: C_14  and  C_15
REMARK    6  A    between atoms: C_18  and  C_19
REMARK    7  A    between atoms: C_19  and  C_20
REMARK    8  A    between atoms: C_19  and  C_21
REMARK    9  A    between atoms: C_19  and  O_22
REMARK                            x       y       z     vdW  Elec       q    Type
REMARK                         _______ _______ _______ _____ _____    ______ ____
ROOT
ATOM      1  C   UNL     1      46.108   9.535  12.069  0.00  0.00    +0.000 A 
ATOM      2  N   UNL     1      46.424  10.816  11.750  0.00  0.00    +0.000 NA
ATOM      3  C   UNL     1      47.704  11.178  11.556  0.00  0.00    +0.000 A 
ATOM      4  C   UNL     1      48.778  10.326  11.694  0.00  0.00    +0.000 A 
ATOM      5  C   UNL     1      48.489   8.998  12.105  0.00  0.00    +0.000 A 
ATOM      6  C   UNL     1      49.283   7.837  12.346  0.00  0.00    +0.000 A 
ATOM      7  C   UNL     1      48.451   6.812  12.714  0.00  0.00    +0.000 A 
ATOM      8  N   UNL     1      47.145   7.262  12.682  0.00  0.00    +0.000 N 
ATOM      9  C   UNL     1      47.136   8.607  12.306  0.00  0.00    +0.000 A 
ENDROOT
BRANCH   4  10
ATOM     10  C   UNL     1      50.092  10.879  11.342  0.00  0.00    +0.000 C 
ATOM     11  N   UNL     1      51.003  11.102  12.331  0.00  0.00    +0.000 N 
ATOM     12  O   UNL     1      50.357  11.201  10.194  0.00  0.00    +0.000 OA
ATOM     13  H   UNL     1      50.750  11.103  13.312  0.00  0.00    +0.000 HD
ATOM     14  H   UNL     1      51.822  11.637  12.060  0.00  0.00    +0.000 HD
ENDBRANCH   4  10
BRANCH   1  16
ATOM     15  C   UNL     1      44.031  10.117  11.254  0.00  0.00    +0.000 C 
ATOM     16  O   UNL     1      44.765   9.219  12.111  0.00  0.00    +0.000 OA
ENDBRANCH   1  16
BRANCH   8  17
ATOM     17  C   UNL     1      46.019   6.341  12.902  0.00  0.00    +0.000 C 
BRANCH  17  18
ATOM     18  C   UNL     1      45.599   5.599  11.654  0.00  0.00    +0.000 A 
ATOM     19  C   UNL     1      44.892   4.401  11.729  0.00  0.00    +0.000 A 
ATOM     20  C   UNL     1      44.697   3.642  10.573  0.00  0.00    +0.000 A 
ATOM     21  C   UNL     1      45.204   4.095   9.355  0.00  0.00    +0.000 A 
ATOM     22  N   UNL     1      45.746   5.336   9.247  0.00  0.00    +0.000 NA
ATOM     23  C   UNL     1      45.930   6.049  10.384  0.00  0.00    +0.000 A 
BRANCH  21  24
ATOM     24  C   UNL     1      45.356   3.148   8.164  0.00  0.00    +0.000 C 
ATOM     25  C   UNL     1      46.536   3.528   7.265  0.00  0.00    +0.000 C 
ATOM     26  C   UNL     1      45.554   1.725   8.705  0.00  0.00    +0.000 C 
BRANCH  24  27
ATOM     27  O   UNL     1      44.177   3.124   7.345  0.00  0.00    +0.000 OA
ATOM     28  H   UNL     1      44.120   3.989   6.904  0.00  0.00    +0.000 HD
ENDBRANCH  24  27
ENDBRANCH  21  24
ENDBRANCH  17  18
ENDBRANCH   8  17
TORSDOF 6
ENDMDL
MODEL 9
REMARK VINA RESULT:    -5.368      3.391      5.795
REMARK INTER + INTRA:          -8.051
REMARK INTER:                  -6.938
REMARK INTRA:                  -1.114
REMARK UNBOUND:                -0.958
REMARK  Name = 
REMARK  9 active torsions:
REMARK  status: ('A' for Active; 'I' for Inactive)
REMARK    1  A    between atoms: C_1  and  O_2
REMARK    2  A    between atoms: O_2  and  C_3
REMARK    3  A    between atoms: C_6  and  C_7
REMARK    4  A    between atoms: N_13  and  C_14
REMARK    5  A    between atoms: C_14  and  C_15
REMARK    6  A    between atoms: C_18  and  C_19
REMARK    7  A    between atoms: C_19  and  C_20
REMARK    8  A    between atoms: C_19  and  C_21
REMARK    9  A    between atoms: C_19  and  O_22
REMARK                            x       y       z     vdW  Elec       q    Type
REMARK                         _______ _______ _______ _____ _____    ______ ____
ROOT
ATOM      1  C   UNL     1      48.417   6.188  15.552  0.00  0.00    +0.000 A 
ATOM      2  N   UNL     1      48.357   5.684  16.810  0.00  0.00    +0.000 NA
ATOM      3  C   UNL     1      48.382   6.500  17.879  0.00  0.00    +0.000 A 
ATOM      4  C   UNL     1      48.504   7.871  17.801  0.00  0.00    +0.000 A 
ATOM      5  C   UNL     1      48.649   8.425  16.502  0.00  0.00    +0.000 A 
ATOM      6  C   UNL     1      48.787   9.752  15.998  0.00  0.00    +0.000 A 
ATOM      7  C   UNL     1      48.875   9.691  14.632  0.00  0.00    +0.000 A 
ATOM      8  N   UNL     1      48.763   8.372  14.235  0.00  0.00    +0.000 N 
ATOM      9  C   UNL     1      48.618   7.567  15.368  0.00  0.00    +0.000 A 
ENDROOT
BRANCH   4  10
ATOM     10  C   UNL     1      48.409   8.601  19.072  0.00  0.00    +0.000 C 
ATOM     11  N   UNL     1      47.189   9.032  19.499  0.00  0.00    +0.000 N 
ATOM     12  O   UNL     1      49.408   8.884  19.715  0.00  0.00    +0.000 OA
ATOM     13  H   UNL     1      46.379   9.057  18.890  0.00  0.00    +0.000 HD
ATOM     14  H   UNL     1      47.201   9.670  20.287  0.00  0.00    +0.000 HD
ENDBRANCH   4  10
BRANCH   1  16
ATOM     15  C   UNL     1      46.913   4.742  14.572  0.00  0.00    +0.000 C 
ATOM     16  O   UNL     1      48.244   5.293  14.516  0.00  0.00    +0.000 OA
ENDBRANCH   1  16
BRANCH   8  17
ATOM     17  C   UNL     1      48.689   8.010  12.811  0.00  0.00    +0.000 C 
BRANCH  17  18
ATOM     18  C   UNL     1      47.294   7.641  12.359  0.00  0.00    +0.000 A 
ATOM     19  C   UNL     1      46.168   8.216  12.944  0.00  0.00    +0.000 A 
ATOM     20  C   UNL     1      44.902   7.710  12.647  0.00  0.00    +0.000 A 
ATOM     21  C   UNL     1      44.775   6.639  11.762  0.00  0.00    +0.000 A 
ATOM     22  N   UNL     1      45.850   6.185  11.064  0.00  0.00    +0.000 NA
ATOM     23  C   UNL     1      47.067   6.689  11.375  0.00  0.00    +0.000 A 
BRANCH  21  24
ATOM     24  C   UNL     1      43.488   5.815  11.700  0.00  0.00    +0.000 C 
ATOM     25  C   UNL     1      43.513   4.782  10.570  0.00  0.00    +0.000 C 
ATOM     26  C   UNL     1      43.311   5.103  13.049  0.00  0.00    +0.000 C 
BRANCH  24  27
ATOM     27  O   UNL     1      42.331   6.642  11.507  0.00  0.00    +0.000 OA
ATOM     28  H   UNL     1      41.552   6.069  11.613  0.00  0.00    +0.000 HD
ENDBRANCH  24  27
ENDBRANCH  21  24
ENDBRANCH  17  18
ENDBRANCH   8  17
TORSDOF 6
ENDMDL
