MODEL 1
REMARK VINA RESULT:    -7.986      0.000      0.000
REMARK INTER + INTRA:          -9.464
REMARK INTER:                  -9.853
REMARK INTRA:                   0.390
REMARK UNBOUND:                 0.390
REMARK  Name = 
REMARK  4 active torsions:
REMARK  status: ('A' for Active; 'I' for Inactive)
REMARK    1  A    between atoms: C_2  and  C_3
REMARK    2  A    between atoms: C_6  and  C_7
REMARK    3  A    between atoms: C_7  and  N_8
REMARK    4  A    between atoms: C_12  and  C_13
REMARK                            x       y       z     vdW  Elec       q    Type
REMARK                         _______ _______ _______ _____ _____    ______ ____
ROOT
ATOM      1  N   UNL     1      43.903   3.468  10.786  0.00  0.00    +0.000 N 
ATOM      2  C   UNL     1      44.767   3.292   9.712  0.00  0.00    +0.000 A 
ATOM      3  N   UNL     1      45.028   2.014   9.411  0.00  0.00    +0.000 NA
ATOM      4  C   UNL     1      45.853   1.777   8.369  0.00  0.00    +0.000 A 
ATOM      5  C   UNL     1      46.409   2.768   7.596  0.00  0.00    +0.000 A 
ATOM      6  C   UNL     1      46.105   4.049   7.992  0.00  0.00    +0.000 A 
ATOM      7  N   UNL     1      45.295   4.337   9.042  0.00  0.00    +0.000 NA
ATOM      8  H   UNL     1      43.690   2.579  11.212  0.00  0.00    +0.000 HD
ENDROOT
BRANCH   5   9
ATOM      9  C   UNL     1      47.264   2.405   6.458  0.00  0.00    +0.000 C 
ATOM     10  N   UNL     1      47.212   3.178   5.333  0.00  0.00    +0.000 N 
ATOM     11  O   UNL     1      47.969   1.405   6.500  0.00  0.00    +0.000 OA
ATOM     12  H   UNL     1      46.509   3.882   5.158  0.00  0.00    +0.000 HD
ATOM     13  H   UNL     1      47.717   2.821   4.529  0.00  0.00    +0.000 HD
ENDBRANCH   5   9
BRANCH   1  14
ATOM     14  C   UNL     1      43.816   4.713  11.545  0.00  0.00    +0.000 C 
ATOM     15  C   UNL     1      43.111   5.912  10.916  0.00  0.00    +0.000 C 
ATOM     16  C   UNL     1      42.451   5.162  12.025  0.00  0.00    +0.000 C 
BRANCH  14  20
ATOM     17  C   UNL     1      47.283   5.736  13.863  0.00  0.00    +0.000 A 
ATOM     18  C   UNL     1      47.025   6.448  12.696  0.00  0.00    +0.000 A 
ATOM     19  C   UNL     1      45.925   6.096  11.912  0.00  0.00    +0.000 A 
ATOM     20  C   UNL     1      45.101   5.039  12.304  0.00  0.00    +0.000 A 
ATOM     21  N   UNL     1      45.379   4.319  13.431  0.00  0.00    +0.000 NA
ATOM     22  C   UNL     1      46.442   4.684  14.183  0.00  0.00    +0.000 A 
BRANCH  17  24
ATOM     23  N   UNL     1      49.245   6.365  15.422  0.00  0.00    +0.000 NA
ATOM     24  C   UNL     1      48.367   6.085  14.721  0.00  0.00    +0.000 C 
ENDBRANCH  17  24
ENDBRANCH  14  20
ENDBRANCH   1  14
TORSDOF 4
ENDMDL
MODEL 2
REMARK VINA RESULT:    -7.737      2.562      6.643
REMARK INTER + INTRA:          -9.156
REMARK INTER:                  -8.957
REMARK INTRA:                  -0.199
REMARK UNBOUND:                 0.390
REMARK  Name = 
REMARK  4 active torsions:
REMARK  status: ('A' for Active; 'I' for Inactive)
REMARK    1  A    between atoms: C_2  and  C_3
REMARK    2  A    between atoms: C_6  and  C_7
REMARK    3  A    between atoms: C_7  and  N_8
REMARK    4  A    between atoms: C_12  and  C_13
REMARK                            x       y       z     vdW  Elec       q    Type
REMARK                         _______ _______ _______ _____ _____    ______ ____
ROOT
ATOM      1  N   UNL     1      45.270   3.531  12.179  0.00  0.00    +0.000 N 
ATOM      2  C   UNL     1      46.100   4.381  12.898  0.00  0.00    +0.000 A 
ATOM      3  N   UNL     1      46.357   3.981  14.150  0.00  0.00    +0.000 NA
ATOM      4  C   UNL     1      47.167   4.761  14.897  0.00  0.00    +0.000 A 
ATOM      5  C   UNL     1      47.756   5.913  14.434  0.00  0.00    +0.000 A 
ATOM      6  C   UNL     1      47.417   6.259  13.147  0.00  0.00    +0.000 A 
ATOM      7  N   UNL     1      46.595   5.517  12.364  0.00  0.00    +0.000 NA
ATOM      8  H   UNL     1      44.930   2.789  12.773  0.00  0.00    +0.000 HD
ENDROOT
BRANCH   5   9
ATOM      9  C   UNL     1      48.655   6.672  15.314  0.00  0.00    +0.000 C 
ATOM     10  N   UNL     1      48.236   7.885  15.782  0.00  0.00    +0.000 N 
ATOM     11  O   UNL     1      49.772   6.248  15.582  0.00  0.00    +0.000 OA
ATOM     12  H   UNL     1      47.426   8.379  15.436  0.00  0.00    +0.000 HD
ATOM     13  H   UNL     1      48.933   8.431  16.276  0.00  0.00    +0.000 HD
ENDBRANCH   5   9
BRANCH   1  14
ATOM     14  C   UNL     1      44.528   3.953  10.994  0.00  0.00    +0.000 C 
ATOM     15  C   UNL     1      43.004   3.864  11.009  0.00  0.00    +0.000 C 
ATOM     16  C   UNL     1      43.669   5.197  11.096  0.00  0.00    +0.000 C 
BRANCH  14  20
ATOM     17  C   UNL     1      46.603   2.672   7.460  0.00  0.00    +0.000 A 
ATOM     18  C   UNL     1      46.401   4.034   7.660  0.00  0.00    +0.000 A 
ATOM     19  C   UNL     1      45.691   4.459   8.783  0.00  0.00    +0.000 A 
ATOM     20  C   UNL     1      45.192   3.520   9.688  0.00  0.00    +0.000 A 
ATOM     21  N   UNL     1      45.360   2.182   9.468  0.00  0.00    +0.000 NA
ATOM     22  C   UNL     1      46.061   1.791   8.380  0.00  0.00    +0.000 A 
BRANCH  17  24
ATOM     23  N   UNL     1      47.975   1.801   5.451  0.00  0.00    +0.000 NA
ATOM     24  C   UNL     1      47.360   2.188   6.352  0.00  0.00    +0.000 C 
ENDBRANCH  17  24
ENDBRANCH  14  20
ENDBRANCH   1  14
TORSDOF 4
ENDMDL
MODEL 3
REMARK VINA RESULT:    -6.188      4.004      6.707
REMARK INTER + INTRA:          -7.245
REMARK INTER:                  -7.177
REMARK INTRA:                  -0.068
REMARK UNBOUND:                 0.390
REMARK  Name = 
REMARK  4 active torsions:
REMARK  status: ('A' for Active; 'I' for Inactive)
REMARK    1  A    between atoms: C_2  and  C_3
REMARK    2  A    between atoms: C_6  and  C_7
REMARK    3  A    between atoms: C_7  and  N_8
REMARK    4  A    between atoms: C_12  and  C_13
REMARK                            x       y       z     vdW  Elec       q    Type
REMARK                         _______ _______ _______ _____ _____    ______ ____
ROOT
ATOM      1  N   UNL     1      48.297   5.721  15.872  0.00  0.00    +0.000 N 
ATOM      2  C   UNL     1      47.525   5.270  14.809  0.00  0.00    +0.000 A 
ATOM      3  N   UNL     1      47.204   6.212  13.914  0.00  0.00    +0.000 NA
ATOM      4  C   UNL     1      46.463   5.832  12.851  0.00  0.00    +0.000 A 
ATOM      5  C   UNL     1      46.052   4.540  12.630  0.00  0.00    +0.000 A 
ATOM      6  C   UNL     1      46.407   3.645  13.612  0.00  0.00    +0.000 A 
ATOM      7  N   UNL     1      47.135   3.982  14.706  0.00  0.00    +0.000 NA
ATOM      8  H   UNL     1      48.406   6.723  15.823  0.00  0.00    +0.000 HD
ENDROOT
BRANCH   5   9
ATOM      9  C   UNL     1      45.282   4.221  11.421  0.00  0.00    +0.000 C 
ATOM     10  N   UNL     1      44.925   2.921  11.201  0.00  0.00    +0.000 N 
ATOM     11  O   UNL     1      45.009   5.092  10.606  0.00  0.00    +0.000 OA
ATOM     12  H   UNL     1      45.293   2.135  11.718  0.00  0.00    +0.000 HD
ATOM     13  H   UNL     1      44.511   2.724  10.297  0.00  0.00    +0.000 HD
ENDBRANCH   5   9
BRANCH   1  14
ATOM     14  C   UNL     1      48.401   5.009  17.143  0.00  0.00    +0.000 C 
ATOM     15  C   UNL     1      48.086   5.757  18.435  0.00  0.00    +0.000 C 
ATOM     16  C   UNL     1      47.126   4.739  17.916  0.00  0.00    +0.000 C 
BRANCH  14  20
ATOM     17  C   UNL     1      51.707   2.299  17.542  0.00  0.00    +0.000 A 
ATOM     18  C   UNL     1      51.919   3.651  17.786  0.00  0.00    +0.000 A 
ATOM     19  C   UNL     1      50.862   4.547  17.618  0.00  0.00    +0.000 A 
ATOM     20  C   UNL     1      49.612   4.080  17.208  0.00  0.00    +0.000 A 
ATOM     21  N   UNL     1      49.419   2.755  16.934  0.00  0.00    +0.000 NA
ATOM     22  C   UNL     1      50.452   1.902  17.115  0.00  0.00    +0.000 A 
BRANCH  17  24
ATOM     23  N   UNL     1      53.585   0.561  17.904  0.00  0.00    +0.000 NA
ATOM     24  C   UNL     1      52.742   1.337  17.742  0.00  0.00    +0.000 C 
ENDBRANCH  17  24
ENDBRANCH  14  20
ENDBRANCH   1  14
TORSDOF 4
ENDMDL
MODEL 4
REMARK VINA RESULT:    -6.152      4.479      7.003
REMARK INTER + INTRA:          -7.201
REMARK INTER:                  -7.047
REMARK INTRA:                  -0.154
REMARK UNBOUND:                 0.390
REMARK  Name = 
REMARK  4 active torsions:
REMARK  status: ('A' for Active; 'I' for Inactive)
REMARK    1  A    between atoms: C_2  and  C_3
REMARK    2  A    between atoms: C_6  and  C_7
REMARK    3  A    between atoms: C_7  and  N_8
REMARK    4  A    between atoms: C_12  and  C_13
REMARK                            x       y       z     vdW  Elec       q    Type
REMARK                         _______ _______ _______ _____ _____    ______ ____
ROOT
ATOM      1  N   UNL     1      46.782   3.541  13.502  0.00  0.00    +0.000 N 
ATOM      2  C   UNL     1      47.232   3.686  14.807  0.00  0.00    +0.000 A 
ATOM      3  N   UNL     1      47.906   2.632  15.285  0.00  0.00    +0.000 NA
ATOM      4  C   UNL     1      48.379   2.717  16.547  0.00  0.00    +0.000 A 
ATOM      5  C   UNL     1      48.230   3.826  17.344  0.00  0.00    +0.000 A 
ATOM      6  C   UNL     1      47.505   4.850  16.781  0.00  0.00    +0.000 A 
ATOM      7  N   UNL     1      46.996   4.805  15.524  0.00  0.00    +0.000 NA
ATOM      8  H   UNL     1      46.973   2.608  13.168  0.00  0.00    +0.000 HD
ENDROOT
BRANCH   5   9
ATOM      9  C   UNL     1      48.817   3.834  18.691  0.00  0.00    +0.000 C 
ATOM     10  N   UNL     1      48.265   3.028  19.645  0.00  0.00    +0.000 N 
ATOM     11  O   UNL     1      49.746   4.583  18.963  0.00  0.00    +0.000 OA
ATOM     12  H   UNL     1      47.381   2.550  19.545  0.00  0.00    +0.000 HD
ATOM     13  H   UNL     1      48.614   3.159  20.588  0.00  0.00    +0.000 HD
ENDBRANCH   5   9
BRANCH   1  14
ATOM     14  C   UNL     1      45.698   4.341  12.937  0.00  0.00    +0.000 C 
ATOM     15  C   UNL     1      44.791   3.712  11.883  0.00  0.00    +0.000 C 
ATOM     16  C   UNL     1      44.273   3.943  13.264  0.00  0.00    +0.000 C 
BRANCH  14  20
ATOM     17  C   UNL     1      46.968   8.407  12.397  0.00  0.00    +0.000 A 
ATOM     18  C   UNL     1      45.638   8.159  12.718  0.00  0.00    +0.000 A 
ATOM     19  C   UNL     1      45.204   6.840  12.854  0.00  0.00    +0.000 A 
ATOM     20  C   UNL     1      46.104   5.789  12.666  0.00  0.00    +0.000 A 
ATOM     21  N   UNL     1      47.400   6.035  12.314  0.00  0.00    +0.000 NA
ATOM     22  C   UNL     1      47.804   7.321  12.199  0.00  0.00    +0.000 A 
BRANCH  17  24
ATOM     23  N   UNL     1      47.880  10.817  12.198  0.00  0.00    +0.000 NA
ATOM     24  C   UNL     1      47.471   9.737  12.290  0.00  0.00    +0.000 C 
ENDBRANCH  17  24
ENDBRANCH  14  20
ENDBRANCH   1  14
TORSDOF 4
ENDMDL
MODEL 5
REMARK VINA RESULT:    -5.856      3.564      6.325
REMARK INTER + INTRA:          -6.836
REMARK INTER:                  -7.065
REMARK INTRA:                   0.229
REMARK UNBOUND:                 0.390
REMARK  Name = 
REMARK  4 active torsions:
REMARK  status: ('A' for Active; 'I' for Inactive)
REMARK    1  A    between atoms: C_2  and  C_3
REMARK    2  A    between atoms: C_6  and  C_7
REMARK    3  A    between atoms: C_7  and  N_8
REMARK    4  A    between atoms: C_12  and  C_13
REMARK                            x       y       z     vdW  Elec       q    Type
REMARK                         _______ _______ _______ _____ _____    ______ ____
ROOT
ATOM      1  N   UNL     1      47.753   5.488  15.639  0.00  0.00    +0.000 N 
ATOM      2  C   UNL     1      47.066   4.996  14.537  0.00  0.00    +0.000 A 
ATOM      3  N   UNL     1      46.516   5.935  13.758  0.00  0.00    +0.000 NA
ATOM      4  C   UNL     1      45.844   5.519  12.663  0.00  0.00    +0.000 A 
ATOM      5  C   UNL     1      45.721   4.200  12.299  0.00  0.00    +0.000 A 
ATOM      6  C   UNL     1      46.296   3.304  13.170  0.00  0.00    +0.000 A 
ATOM      7  N   UNL     1      46.967   3.673  14.290  0.00  0.00    +0.000 NA
ATOM      8  H   UNL     1      47.637   6.489  15.704  0.00  0.00    +0.000 HD
ENDROOT
BRANCH   5   9
ATOM      9  C   UNL     1      45.002   3.852  11.067  0.00  0.00    +0.000 C 
ATOM     10  N   UNL     1      44.742   2.535  10.815  0.00  0.00    +0.000 N 
ATOM     11  O   UNL     1      44.687   4.718  10.261  0.00  0.00    +0.000 OA
ATOM     12  H   UNL     1      45.152   1.766  11.327  0.00  0.00    +0.000 HD
ATOM     13  H   UNL     1      44.362   2.328   9.898  0.00  0.00    +0.000 HD
ENDBRANCH   5   9
BRANCH   1  14
ATOM     14  C   UNL     1      48.052   4.682  16.820  0.00  0.00    +0.000 C 
ATOM     15  C   UNL     1      47.142   4.794  18.040  0.00  0.00    +0.000 C 
ATOM     16  C   UNL     1      47.091   3.571  17.187  0.00  0.00    +0.000 C 
BRANCH  14  20
ATOM     17  C   UNL     1      52.297   4.460  17.434  0.00  0.00    +0.000 A 
ATOM     18  C   UNL     1      51.515   3.360  17.769  0.00  0.00    +0.000 A 
ATOM     19  C   UNL     1      50.130   3.436  17.613  0.00  0.00    +0.000 A 
ATOM     20  C   UNL     1      49.547   4.608  17.128  0.00  0.00    +0.000 A 
ATOM     21  N   UNL     1      50.316   5.699  16.836  0.00  0.00    +0.000 NA
ATOM     22  C   UNL     1      51.656   5.601  16.981  0.00  0.00    +0.000 A 
BRANCH  17  24
ATOM     23  N   UNL     1      54.873   4.379  17.614  0.00  0.00    +0.000 NA
ATOM     24  C   UNL     1      53.719   4.418  17.532  0.00  0.00    +0.000 C 
ENDBRANCH  17  24
ENDBRANCH  14  20
ENDBRANCH   1  14
TORSDOF 4
ENDMDL
MODEL 6
REMARK VINA RESULT:    -5.851      4.208      7.520
REMARK INTER + INTRA:          -6.830
REMARK INTER:                  -7.105
REMARK INTRA:                   0.275
REMARK UNBOUND:                 0.390
REMARK  Name = 
REMARK  4 active torsions:
REMARK  status: ('A' for Active; 'I' for Inactive)
REMARK    1  A    between atoms: C_2  and  C_3
REMARK    2  A    between atoms: C_6  and  C_7
REMARK    3  A    between atoms: C_7  and  N_8
REMARK    4  A    between atoms: C_12  and  C_13
REMARK                            x       y       z     vdW  Elec       q    Type
REMARK                         _______ _______ _______ _____ _____    ______ ____
ROOT
ATOM      1  N   UNL     1      48.720   7.664  14.220  0.00  0.00    +0.000 N 
ATOM      2  C   UNL     1      48.462   6.537  14.990  0.00  0.00    +0.000 A 
ATOM      3  N   UNL     1      49.062   6.531  16.187  0.00  0.00    +0.000 NA
ATOM      4  C   UNL     1      48.841   5.466  16.987  0.00  0.00    +0.000 A 
ATOM      5  C   UNL     1      48.021   4.416  16.650  0.00  0.00    +0.000 A 
ATOM      6  C   UNL     1      47.467   4.495  15.394  0.00  0.00    +0.000 A 
ATOM      7  N   UNL     1      47.673   5.536  14.548  0.00  0.00    +0.000 NA
ATOM      8  H   UNL     1      49.401   8.251  14.678  0.00  0.00    +0.000 HD
ENDROOT
BRANCH   5   9
ATOM      9  C   UNL     1      47.815   3.321  17.608  0.00  0.00    +0.000 C 
ATOM     10  N   UNL     1      48.841   2.989  18.446  0.00  0.00    +0.000 N 
ATOM     11  O   UNL     1      46.766   2.690  17.619  0.00  0.00    +0.000 OA
ATOM     12  H   UNL     1      49.789   3.325  18.347  0.00  0.00    +0.000 HD
ATOM     13  H   UNL     1      48.705   2.150  18.998  0.00  0.00    +0.000 HD
ENDBRANCH   5   9
BRANCH   1  14
ATOM     14  C   UNL     1      48.540   7.700  12.771  0.00  0.00    +0.000 C 
ATOM     15  C   UNL     1      49.158   8.849  11.980  0.00  0.00    +0.000 C 
ATOM     16  C   UNL     1      49.758   7.485  11.896  0.00  0.00    +0.000 C 
BRANCH  14  20
ATOM     17  C   UNL     1      44.567   6.420  11.762  0.00  0.00    +0.000 A 
ATOM     18  C   UNL     1      45.642   5.873  11.070  0.00  0.00    +0.000 A 
ATOM     19  C   UNL     1      46.934   6.312  11.360  0.00  0.00    +0.000 A 
ATOM     20  C   UNL     1      47.134   7.292  12.334  0.00  0.00    +0.000 A 
ATOM     21  N   UNL     1      46.073   7.854  12.985  0.00  0.00    +0.000 NA
ATOM     22  C   UNL     1      44.830   7.406  12.699  0.00  0.00    +0.000 A 
BRANCH  17  24
ATOM     23  N   UNL     1      42.149   5.608  11.354  0.00  0.00    +0.000 NA
ATOM     24  C   UNL     1      43.232   5.974  11.535  0.00  0.00    +0.000 C 
ENDBRANCH  17  24
ENDBRANCH  14  20
ENDBRANCH   1  14
TORSDOF 4
ENDMDL
MODEL 7
REMARK VINA RESULT:    -5.834      4.540      8.335
REMARK INTER + INTRA:          -6.809
REMARK INTER:                  -6.936
REMARK INTRA:                   0.127
REMARK UNBOUND:                 0.390
REMARK  Name = 
REMARK  4 active torsions:
REMARK  status: ('A' for Active; 'I' for Inactive)
REMARK    1  A    between atoms: C_2  and  C_3
REMARK    2  A    between atoms: C_6  and  C_7
REMARK    3  A    between atoms: C_7  and  N_8
REMARK    4  A    between atoms: C_12  and  C_13
REMARK                            x       y       z     vdW  Elec       q    Type
REMARK                         _______ _______ _______ _____ _____    ______ ____
ROOT
ATOM      1  N   UNL     1      47.911   7.457  14.918  0.00  0.00    +0.000 N 
ATOM      2  C   UNL     1      48.327   6.687  15.996  0.00  0.00    +0.000 A 
ATOM      3  N   UNL     1      48.666   7.388  17.085  0.00  0.00    +0.000 NA
ATOM      4  C   UNL     1      49.069   6.694  18.171  0.00  0.00    +0.000 A 
ATOM      5  C   UNL     1      49.121   5.322  18.223  0.00  0.00    +0.000 A 
ATOM      6  C   UNL     1      48.778   4.686  17.054  0.00  0.00    +0.000 A 
ATOM      7  N   UNL     1      48.384   5.340  15.932  0.00  0.00    +0.000 NA
ATOM      8  H   UNL     1      48.025   8.438  15.126  0.00  0.00    +0.000 HD
ENDROOT
BRANCH   5   9
ATOM      9  C   UNL     1      49.536   4.660  19.467  0.00  0.00    +0.000 C 
ATOM     10  N   UNL     1      48.673   3.781  20.055  0.00  0.00    +0.000 N 
ATOM     11  O   UNL     1      50.611   4.927  19.989  0.00  0.00    +0.000 OA
ATOM     12  H   UNL     1      47.702   3.675  19.794  0.00  0.00    +0.000 HD
ATOM     13  H   UNL     1      48.941   3.446  20.974  0.00  0.00    +0.000 HD
ENDBRANCH   5   9
BRANCH   1  14
ATOM     14  C   UNL     1      47.907   6.968  13.542  0.00  0.00    +0.000 C 
ATOM     15  C   UNL     1      48.236   7.942  12.413  0.00  0.00    +0.000 C 
ATOM     16  C   UNL     1      49.230   6.900  12.806  0.00  0.00    +0.000 C 
BRANCH  14  20
ATOM     17  C   UNL     1      44.782   4.213  12.504  0.00  0.00    +0.000 A 
ATOM     18  C   UNL     1      44.489   5.572  12.543  0.00  0.00    +0.000 A 
ATOM     19  C   UNL     1      45.486   6.473  12.921  0.00  0.00    +0.000 A 
ATOM     20  C   UNL     1      46.758   6.004  13.254  0.00  0.00    +0.000 A 
ATOM     21  N   UNL     1      47.030   4.666  13.250  0.00  0.00    +0.000 NA
ATOM     22  C   UNL     1      46.055   3.810  12.870  0.00  0.00    +0.000 A 
BRANCH  17  24
ATOM     23  N   UNL     1      43.028   2.477  11.737  0.00  0.00    +0.000 NA
ATOM     24  C   UNL     1      43.812   3.256  12.082  0.00  0.00    +0.000 C 
ENDBRANCH  17  24
ENDBRANCH  14  20
ENDBRANCH   1  14
TORSDOF 4
ENDMDL
MODEL 8
REMARK VINA RESULT:    -5.692      5.589      9.036
REMARK INTER + INTRA:          -6.634
REMARK INTER:                  -6.804
REMARK INTRA:                   0.170
REMARK UNBOUND:                 0.390
REMARK  Name = 
REMARK  4 active torsions:
REMARK  status: ('A' for Active; 'I' for Inactive)
REMARK    1  A    between atoms: C_2  and  C_3
REMARK    2  A    between atoms: C_6  and  C_7
REMARK    3  A    between atoms: C_7  and  N_8
REMARK    4  A    between atoms: C_12  and  C_13
REMARK                            x       y       z     vdW  Elec       q    Type
REMARK                         _______ _______ _______ _____ _____    ______ ____
ROOT
ATOM      1  N   UNL     1      49.217   2.181  16.559  0.00  0.00    +0.000 N 
ATOM      2  C   UNL     1      50.479   2.210  17.139  0.00  0.00    +0.000 A 
ATOM      3  N   UNL     1      51.151   1.054  17.069  0.00  0.00    +0.000 NA
ATOM      4  C   UNL     1      52.390   1.023  17.606  0.00  0.00    +0.000 A 
ATOM      5  C   UNL     1      52.997   2.109  18.187  0.00  0.00    +0.000 A 
ATOM      6  C   UNL     1      52.224   3.246  18.236  0.00  0.00    +0.000 A 
ATOM      7  N   UNL     1      50.969   3.321  17.726  0.00  0.00    +0.000 NA
ATOM      8  H   UNL     1      48.993   1.244  16.258  0.00  0.00    +0.000 HD
ENDROOT
BRANCH   5   9
ATOM      9  C   UNL     1      54.364   1.982  18.708  0.00  0.00    +0.000 C 
ATOM     10  N   UNL     1      55.408   2.240  17.866  0.00  0.00    +0.000 N 
ATOM     11  O   UNL     1      54.564   1.607  19.856  0.00  0.00    +0.000 OA
ATOM     12  H   UNL     1      55.318   2.349  16.865  0.00  0.00    +0.000 HD
ATOM     13  H   UNL     1      56.330   2.016  18.224  0.00  0.00    +0.000 HD
ENDBRANCH   5   9
BRANCH   1  14
ATOM     14  C   UNL     1      48.168   3.145  16.880  0.00  0.00    +0.000 C 
ATOM     15  C   UNL     1      47.069   2.741  17.858  0.00  0.00    +0.000 C 
ATOM     16  C   UNL     1      48.122   3.708  18.285  0.00  0.00    +0.000 C 
BRANCH  14  20
ATOM     17  C   UNL     1      47.048   5.291  13.333  0.00  0.00    +0.000 A 
ATOM     18  C   UNL     1      47.518   6.009  14.428  0.00  0.00    +0.000 A 
ATOM     19  C   UNL     1      47.845   5.326  15.600  0.00  0.00    +0.000 A 
ATOM     20  C   UNL     1      47.696   3.939  15.662  0.00  0.00    +0.000 A 
ATOM     21  N   UNL     1      47.198   3.243  14.597  0.00  0.00    +0.000 NA
ATOM     22  C   UNL     1      46.899   3.922  13.467  0.00  0.00    +0.000 A 
BRANCH  17  24
ATOM     23  N   UNL     1      46.495   6.455  11.093  0.00  0.00    +0.000 NA
ATOM     24  C   UNL     1      46.742   5.936  12.098  0.00  0.00    +0.000 C 
ENDBRANCH  17  24
ENDBRANCH  14  20
ENDBRANCH   1  14
TORSDOF 4
ENDMDL
MODEL 9
REMARK VINA RESULT:    -5.544      5.039      7.587
REMARK INTER + INTRA:          -6.450
REMARK INTER:                  -6.402
REMARK INTRA:                  -0.049
REMARK UNBOUND:                 0.390
REMARK  Name = 
REMARK  4 active torsions:
REMARK  status: ('A' for Active; 'I' for Inactive)
REMARK    1  A    between atoms: C_2  and  C_3
REMARK    2  A    between atoms: C_6  and  C_7
REMARK    3  A    between atoms: C_7  and  N_8
REMARK    4  A    between atoms: C_12  and  C_13
REMARK                            x       y       z     vdW  Elec       q    Type
REMARK                         _______ _______ _______ _____ _____    ______ ____
ROOT
ATOM      1  N   UNL     1      48.536   7.891  14.080  0.00  0.00    +0.000 N 
ATOM      2  C   UNL     1      48.275   6.705  14.754  0.00  0.00    +0.000 A 
ATOM      3  N   UNL     1      48.869   6.600  15.949  0.00  0.00    +0.000 NA
ATOM      4  C   UNL     1      48.645   5.473  16.658  0.00  0.00    +0.000 A 
ATOM      5  C   UNL     1      47.826   4.455  16.233  0.00  0.00    +0.000 A 
ATOM      6  C   UNL     1      47.278   4.636  14.985  0.00  0.00    +0.000 A 
ATOM      7  N   UNL     1      47.487   5.743  14.228  0.00  0.00    +0.000 NA
ATOM      8  H   UNL     1      49.214   8.438  14.588  0.00  0.00    +0.000 HD
ENDROOT
BRANCH   5   9
ATOM      9  C   UNL     1      47.616   3.285  17.097  0.00  0.00    +0.000 C 
ATOM     10  N   UNL     1      48.705   2.557  17.482  0.00  0.00    +0.000 N 
ATOM     11  O   UNL     1      46.486   2.944  17.423  0.00  0.00    +0.000 OA
ATOM     12  H   UNL     1      49.628   2.659  17.083  0.00  0.00    +0.000 HD
ATOM     13  H   UNL     1      48.506   1.689  17.967  0.00  0.00    +0.000 HD
ENDBRANCH   5   9
BRANCH   1  14
ATOM     14  C   UNL     1      48.363   8.045  12.638  0.00  0.00    +0.000 C 
ATOM     15  C   UNL     1      49.503   8.644  11.819  0.00  0.00    +0.000 C 
ATOM     16  C   UNL     1      49.209   7.184  11.722  0.00  0.00    +0.000 C 
BRANCH  14  20
ATOM     17  C   UNL     1      44.489   9.337  11.310  0.00  0.00    +0.000 A 
ATOM     18  C   UNL     1      45.402  10.294  11.742  0.00  0.00    +0.000 A 
ATOM     19  C   UNL     1      46.648   9.882  12.215  0.00  0.00    +0.000 A 
ATOM     20  C   UNL     1      46.964   8.523  12.253  0.00  0.00    +0.000 A 
ATOM     21  N   UNL     1      46.051   7.584  11.863  0.00  0.00    +0.000 NA
ATOM     22  C   UNL     1      44.854   8.004  11.396  0.00  0.00    +0.000 A 
BRANCH  17  24
ATOM     23  N   UNL     1      42.188  10.012  10.347  0.00  0.00    +0.000 NA
ATOM     24  C   UNL     1      43.220   9.708  10.776  0.00  0.00    +0.000 C 
ENDBRANCH  17  24
ENDBRANCH  14  20
ENDBRANCH   1  14
TORSDOF 4
ENDMDL
