MODEL 1
REMARK VINA RESULT:    -8.345      0.000      0.000
REMARK INTER + INTRA:         -12.034
REMARK INTER:                 -11.272
REMARK INTRA:                  -0.762
REMARK UNBOUND:                -0.762
REMARK  Name = 
REMARK  7 active torsions:
REMARK  status: ('A' for Active; 'I' for Inactive)
REMARK    1  A    between atoms: C_1  and  C_2
REMARK    2  A    between atoms: C_7  and  C_8
REMARK    3  A    between atoms: N_10  and  C_11
REMARK    4  A    between atoms: C_11  and  C_12
REMARK    5  A    between atoms: C_15  and  C_16
REMARK    6  A    between atoms: C_16  and  N_17
REMARK    7  A    between atoms: C_18  and  C_20
REMARK                            x       y       z     vdW  Elec       q    Type
REMARK                         _______ _______ _______ _____ _____    ______ ____
ROOT
ATOM      1  C   UNL     1      44.558   5.261  10.863  0.00  0.00    +0.000 A 
ATOM      2  C   UNL     1      45.751   5.783  10.346  0.00  0.00    +0.000 A 
ATOM      3  C   UNL     1      46.529   6.671  11.096  0.00  0.00    +0.000 A 
ATOM      4  C   UNL     1      46.133   7.059  12.383  0.00  0.00    +0.000 A 
ATOM      5  C   UNL     1      44.905   6.597  12.873  0.00  0.00    +0.000 A 
ATOM      6  C   UNL     1      44.131   5.697  12.126  0.00  0.00    +0.000 A 
ENDROOT
BRANCH   1   7
ATOM      7  C   UNL     1      43.820   4.174  10.115  0.00  0.00    +0.000 C 
BRANCH   7  10
ATOM      8  C   UNL     1      45.292   2.675   8.777  0.00  0.00    +0.000 C 
ATOM      9  O   UNL     1      45.334   1.811   9.647  0.00  0.00    +0.000 OA
ATOM     10  N   UNL     1      44.542   3.831   8.904  0.00  0.00    +0.000 N 
ATOM     11  H   UNL     1      44.633   4.559   8.210  0.00  0.00    +0.000 HD
BRANCH   8  18
ATOM     12  C   UNL     1      46.495   0.055   7.806  0.00  0.00    +0.000 C 
ATOM     13  C   UNL     1      46.719   1.369   7.108  0.00  0.00    +0.000 A 
ATOM     14  C   UNL     1      47.565   1.383   5.981  0.00  0.00    +0.000 A 
ATOM     15  C   UNL     1      47.771   2.553   5.249  0.00  0.00    +0.000 A 
ATOM     16  C   UNL     1      47.101   3.717   5.604  0.00  0.00    +0.000 A 
ATOM     17  C   UNL     1      46.263   3.724   6.721  0.00  0.00    +0.000 A 
ATOM     18  C   UNL     1      46.096   2.571   7.510  0.00  0.00    +0.000 A 
ENDBRANCH   8  18
ENDBRANCH   7  10
ENDBRANCH   1   7
BRANCH   4  19
ATOM     19  C   UNL     1      47.018   7.952  13.216  0.00  0.00    +0.000 C 
BRANCH  19  20
ATOM     20  N   UNL     1      47.418   7.319  14.445  0.00  0.00    +0.000 N 
ATOM     21  C   UNL     1      48.662   6.753  14.572  0.00  0.00    +0.000 C 
ATOM     22  O   UNL     1      49.494   6.801  13.670  0.00  0.00    +0.000 OA
ATOM     23  H   UNL     1      46.685   7.074  15.102  0.00  0.00    +0.000 HD
BRANCH  21  24
ATOM     24  C   UNL     1      48.981   6.136  15.867  0.00  0.00    +0.000 A 
ATOM     25  C   UNL     1      50.001   6.665  16.646  0.00  0.00    +0.000 A 
ATOM     26  S   UNL     1      50.219   5.861  18.133  0.00  0.00    +0.000 S 
ATOM     27  C   UNL     1      48.989   4.744  17.768  0.00  0.00    +0.000 A 
ATOM     28  N   UNL     1      48.679   3.741  18.633  0.00  0.00    +0.000 NA
ATOM     29  C   UNL     1      47.748   2.949  18.219  0.00  0.00    +0.000 A 
ATOM     30  N   UNL     1      47.091   3.075  17.021  0.00  0.00    +0.000 N 
ATOM     31  C   UNL     1      47.349   4.087  16.128  0.00  0.00    +0.000 A 
ATOM     32  O   UNL     1      46.716   4.199  15.086  0.00  0.00    +0.000 OA
ATOM     33  C   UNL     1      48.403   4.997  16.539  0.00  0.00    +0.000 A 
ATOM     34  H   UNL     1      46.366   2.425  16.760  0.00  0.00    +0.000 HD
ENDBRANCH  21  24
ENDBRANCH  19  20
ENDBRANCH   4  19
TORSDOF 6
ENDMDL
MODEL 2
REMARK VINA RESULT:    -8.008      3.421      5.428
REMARK INTER + INTRA:         -11.579
REMARK INTER:                 -10.539
REMARK INTRA:                  -1.040
REMARK UNBOUND:                -0.762
REMARK  Name = 
REMARK  7 active torsions:
REMARK  status: ('A' for Active; 'I' for Inactive)
REMARK    1  A    between atoms: C_1  and  C_2
REMARK    2  A    between atoms: C_7  and  C_8
REMARK    3  A    between atoms: N_10  and  C_11
REMARK    4  A    between atoms: C_11  and  C_12
REMARK    5  A    between atoms: C_15  and  C_16
REMARK    6  A    between atoms: C_16  and  N_17
REMARK    7  A    between atoms: C_18  and  C_20
REMARK                            x       y       z     vdW  Elec       q    Type
REMARK                         _______ _______ _______ _____ _____    ______ ____
ROOT
ATOM      1  C   UNL     1      47.476   5.746  14.366  0.00  0.00    +0.000 A 
ATOM      2  C   UNL     1      46.991   4.438  14.500  0.00  0.00    +0.000 A 
ATOM      3  C   UNL     1      47.284   3.677  15.636  0.00  0.00    +0.000 A 
ATOM      4  C   UNL     1      48.066   4.207  16.670  0.00  0.00    +0.000 A 
ATOM      5  C   UNL     1      48.613   5.487  16.507  0.00  0.00    +0.000 A 
ATOM      6  C   UNL     1      48.311   6.253  15.372  0.00  0.00    +0.000 A 
ENDROOT
BRANCH   1   7
ATOM      7  C   UNL     1      47.011   6.611  13.217  0.00  0.00    +0.000 C 
BRANCH   7  10
ATOM      8  C   UNL     1      45.423   5.837  11.463  0.00  0.00    +0.000 C 
ATOM      9  O   UNL     1      44.563   6.654  11.771  0.00  0.00    +0.000 OA
ATOM     10  N   UNL     1      46.659   5.779  12.082  0.00  0.00    +0.000 N 
ATOM     11  H   UNL     1      47.285   5.016  11.869  0.00  0.00    +0.000 HD
BRANCH   8  18
ATOM     12  C   UNL     1      43.938   3.243  12.032  0.00  0.00    +0.000 C 
ATOM     13  C   UNL     1      44.569   3.553  10.701  0.00  0.00    +0.000 A 
ATOM     14  C   UNL     1      44.503   2.569   9.694  0.00  0.00    +0.000 A 
ATOM     15  C   UNL     1      45.014   2.809   8.418  0.00  0.00    +0.000 A 
ATOM     16  C   UNL     1      45.557   4.051   8.113  0.00  0.00    +0.000 A 
ATOM     17  C   UNL     1      45.636   5.036   9.099  0.00  0.00    +0.000 A 
ATOM     18  C   UNL     1      45.187   4.788  10.410  0.00  0.00    +0.000 A 
ENDBRANCH   8  18
ENDBRANCH   7  10
ENDBRANCH   1   7
BRANCH   4  19
ATOM     19  C   UNL     1      48.309   3.411  17.928  0.00  0.00    +0.000 C 
BRANCH  19  20
ATOM     20  N   UNL     1      49.708   3.140  18.133  0.00  0.00    +0.000 N 
ATOM     21  C   UNL     1      50.385   2.272  17.311  0.00  0.00    +0.000 C 
ATOM     22  O   UNL     1      49.843   1.732  16.350  0.00  0.00    +0.000 OA
ATOM     23  H   UNL     1      50.103   3.391  19.033  0.00  0.00    +0.000 HD
BRANCH  21  24
ATOM     24  C   UNL     1      51.810   2.065  17.596  0.00  0.00    +0.000 A 
ATOM     25  C   UNL     1      52.302   0.773  17.729  0.00  0.00    +0.000 A 
ATOM     26  S   UNL     1      53.981   0.703  18.019  0.00  0.00    +0.000 S 
ATOM     27  C   UNL     1      54.103   2.399  18.027  0.00  0.00    +0.000 A 
ATOM     28  N   UNL     1      55.296   3.011  18.258  0.00  0.00    +0.000 NA
ATOM     29  C   UNL     1      55.241   4.301  18.264  0.00  0.00    +0.000 A 
ATOM     30  N   UNL     1      54.101   5.034  18.053  0.00  0.00    +0.000 N 
ATOM     31  C   UNL     1      52.880   4.462  17.788  0.00  0.00    +0.000 A 
ATOM     32  O   UNL     1      51.889   5.145  17.560  0.00  0.00    +0.000 OA
ATOM     33  C   UNL     1      52.884   3.011  17.787  0.00  0.00    +0.000 A 
ATOM     34  H   UNL     1      54.128   6.042  18.064  0.00  0.00    +0.000 HD
ENDBRANCH  21  24
ENDBRANCH  19  20
ENDBRANCH   4  19
TORSDOF 6
ENDMDL
MODEL 3
REMARK VINA RESULT:    -7.944      1.329      1.734
REMARK INTER + INTRA:         -11.493
REMARK INTER:                 -10.424
REMARK INTRA:                  -1.069
REMARK UNBOUND:                -0.762
REMARK  Name = 
REMARK  7 active torsions:
REMARK  status: ('A' for Active; 'I' for Inactive)
REMARK    1  A    between atoms: C_1  and  C_2
REMARK    2  A    between atoms: C_7  and  C_8
REMARK    3  A    between atoms: N_10  and  C_11
REMARK    4  A    between atoms: C_11  and  C_12
REMARK    5  A    between atoms: C_15  and  C_16
REMARK    6  A    between atoms: C_16  and  N_17
REMARK    7  A    between atoms: C_18  and  C_20
REMARK                            x       y       z     vdW  Elec       q    Type
REMARK                         _______ _______ _______ _____ _____    ______ ____
ROOT
ATOM      1  C   UNL     1      45.528   6.772  11.514  0.00  0.00    +0.000 A 
ATOM      2  C   UNL     1      46.806   6.317  11.863  0.00  0.00    +0.000 A 
ATOM      3  C   UNL     1      47.602   7.033  12.763  0.00  0.00    +0.000 A 
ATOM      4  C   UNL     1      47.137   8.222  13.339  0.00  0.00    +0.000 A 
ATOM      5  C   UNL     1      45.890   8.719  12.937  0.00  0.00    +0.000 A 
ATOM      6  C   UNL     1      45.088   7.994  12.043  0.00  0.00    +0.000 A 
ENDROOT
BRANCH   1   7
ATOM      7  C   UNL     1      44.617   5.903  10.677  0.00  0.00    +0.000 C 
BRANCH   7  10
ATOM      8  C   UNL     1      44.857   4.311   8.777  0.00  0.00    +0.000 C 
ATOM      9  O   UNL     1      43.674   4.386   8.463  0.00  0.00    +0.000 OA
ATOM     10  N   UNL     1      45.408   5.050   9.810  0.00  0.00    +0.000 N 
ATOM     11  H   UNL     1      46.357   4.866  10.099  0.00  0.00    +0.000 HD
BRANCH   8  18
ATOM     12  C   UNL     1      44.704   1.293   9.124  0.00  0.00    +0.000 C 
ATOM     13  C   UNL     1      45.780   1.973   8.321  0.00  0.00    +0.000 A 
ATOM     14  C   UNL     1      46.784   1.168   7.748  0.00  0.00    +0.000 A 
ATOM     15  C   UNL     1      47.779   1.723   6.942  0.00  0.00    +0.000 A 
ATOM     16  C   UNL     1      47.761   3.083   6.660  0.00  0.00    +0.000 A 
ATOM     17  C   UNL     1      46.777   3.897   7.224  0.00  0.00    +0.000 A 
ATOM     18  C   UNL     1      45.806   3.366   8.093  0.00  0.00    +0.000 A 
ENDBRANCH   8  18
ENDBRANCH   7  10
ENDBRANCH   1   7
BRANCH   4  19
ATOM     19  C   UNL     1      47.967   8.945  14.371  0.00  0.00    +0.000 C 
BRANCH  19  20
ATOM     20  N   UNL     1      48.205   8.133  15.536  0.00  0.00    +0.000 N 
ATOM     21  C   UNL     1      49.452   7.620  15.793  0.00  0.00    +0.000 C 
ATOM     22  O   UNL     1      50.417   7.865  15.073  0.00  0.00    +0.000 OA
ATOM     23  H   UNL     1      47.394   7.741  16.003  0.00  0.00    +0.000 HD
BRANCH  21  24
ATOM     24  C   UNL     1      49.598   6.809  17.008  0.00  0.00    +0.000 A 
ATOM     25  C   UNL     1      50.396   7.269  18.047  0.00  0.00    +0.000 A 
ATOM     26  S   UNL     1      50.429   6.231  19.400  0.00  0.00    +0.000 S 
ATOM     27  C   UNL     1      49.416   5.105  18.626  0.00  0.00    +0.000 A 
ATOM     28  N   UNL     1      49.068   3.943  19.241  0.00  0.00    +0.000 NA
ATOM     29  C   UNL     1      48.320   3.167  18.530  0.00  0.00    +0.000 A 
ATOM     30  N   UNL     1      47.881   3.453  17.263  0.00  0.00    +0.000 N 
ATOM     31  C   UNL     1      48.182   4.626  16.612  0.00  0.00    +0.000 A 
ATOM     32  O   UNL     1      47.739   4.872  15.497  0.00  0.00    +0.000 OA
ATOM     33  C   UNL     1      49.038   5.526  17.363  0.00  0.00    +0.000 A 
ATOM     34  H   UNL     1      47.291   2.806  16.763  0.00  0.00    +0.000 HD
ENDBRANCH  21  24
ENDBRANCH  19  20
ENDBRANCH   4  19
TORSDOF 6
ENDMDL
MODEL 4
REMARK VINA RESULT:    -7.850      2.048      2.569
REMARK INTER + INTRA:         -11.366
REMARK INTER:                 -10.492
REMARK INTRA:                  -0.874
REMARK UNBOUND:                -0.762
REMARK  Name = 
REMARK  7 active torsions:
REMARK  status: ('A' for Active; 'I' for Inactive)
REMARK    1  A    between atoms: C_1  and  C_2
REMARK    2  A    between atoms: C_7  and  C_8
REMARK    3  A    between atoms: N_10  and  C_11
REMARK    4  A    between atoms: C_11  and  C_12
REMARK    5  A    between atoms: C_15  and  C_16
REMARK    6  A    between atoms: C_16  and  N_17
REMARK    7  A    between atoms: C_18  and  C_20
REMARK                            x       y       z     vdW  Elec       q    Type
REMARK                         _______ _______ _______ _____ _____    ______ ____
ROOT
ATOM      1  C   UNL     1      46.074   6.476  11.974  0.00  0.00    +0.000 A 
ATOM      2  C   UNL     1      46.805   5.599  12.786  0.00  0.00    +0.000 A 
ATOM      3  C   UNL     1      47.635   6.085  13.802  0.00  0.00    +0.000 A 
ATOM      4  C   UNL     1      47.753   7.462  14.032  0.00  0.00    +0.000 A 
ATOM      5  C   UNL     1      47.082   8.344  13.174  0.00  0.00    +0.000 A 
ATOM      6  C   UNL     1      46.241   7.856  12.164  0.00  0.00    +0.000 A 
ENDROOT
BRANCH   1   7
ATOM      7  C   UNL     1      45.055   5.933  10.999  0.00  0.00    +0.000 C 
BRANCH   7  10
ATOM      8  C   UNL     1      45.015   4.398   9.038  0.00  0.00    +0.000 C 
ATOM      9  O   UNL     1      43.818   4.564   8.834  0.00  0.00    +0.000 OA
ATOM     10  N   UNL     1      45.705   5.061  10.039  0.00  0.00    +0.000 N 
ATOM     11  H   UNL     1      46.660   4.804  10.236  0.00  0.00    +0.000 HD
BRANCH   8  18
ATOM     12  C   UNL     1      44.631   1.388   9.252  0.00  0.00    +0.000 C 
ATOM     13  C   UNL     1      45.704   2.021   8.407  0.00  0.00    +0.000 A 
ATOM     14  C   UNL     1      46.595   1.168   7.725  0.00  0.00    +0.000 A 
ATOM     15  C   UNL     1      47.577   1.682   6.878  0.00  0.00    +0.000 A 
ATOM     16  C   UNL     1      47.655   3.052   6.661  0.00  0.00    +0.000 A 
ATOM     17  C   UNL     1      46.784   3.913   7.332  0.00  0.00    +0.000 A 
ATOM     18  C   UNL     1      45.832   3.417   8.243  0.00  0.00    +0.000 A 
ENDBRANCH   8  18
ENDBRANCH   7  10
ENDBRANCH   1   7
BRANCH   4  19
ATOM     19  C   UNL     1      48.586   7.974  15.180  0.00  0.00    +0.000 C 
BRANCH  19  20
ATOM     20  N   UNL     1      49.543   6.997  15.630  0.00  0.00    +0.000 N 
ATOM     21  C   UNL     1      49.568   6.589  16.941  0.00  0.00    +0.000 C 
ATOM     22  O   UNL     1      48.755   7.000  17.765  0.00  0.00    +0.000 OA
ATOM     23  H   UNL     1      50.346   6.824  15.034  0.00  0.00    +0.000 HD
BRANCH  21  24
ATOM     24  C   UNL     1      50.576   5.584  17.303  0.00  0.00    +0.000 A 
ATOM     25  C   UNL     1      51.818   5.996  17.767  0.00  0.00    +0.000 A 
ATOM     26  S   UNL     1      52.858   4.710  18.180  0.00  0.00    +0.000 S 
ATOM     27  C   UNL     1      51.703   3.554  17.707  0.00  0.00    +0.000 A 
ATOM     28  N   UNL     1      51.978   2.224  17.779  0.00  0.00    +0.000 NA
ATOM     29  C   UNL     1      51.025   1.460  17.362  0.00  0.00    +0.000 A 
ATOM     30  N   UNL     1      49.818   1.906  16.886  0.00  0.00    +0.000 N 
ATOM     31  C   UNL     1      49.484   3.238  16.821  0.00  0.00    +0.000 A 
ATOM     32  O   UNL     1      48.382   3.604  16.432  0.00  0.00    +0.000 OA
ATOM     33  C   UNL     1      50.531   4.141  17.263  0.00  0.00    +0.000 A 
ATOM     34  H   UNL     1      49.112   1.255  16.581  0.00  0.00    +0.000 HD
ENDBRANCH  21  24
ENDBRANCH  19  20
ENDBRANCH   4  19
TORSDOF 6
ENDMDL
MODEL 5
REMARK VINA RESULT:    -7.706      3.309      8.955
REMARK INTER + INTRA:         -11.171
REMARK INTER:                 -10.099
REMARK INTRA:                  -1.072
REMARK UNBOUND:                -0.762
REMARK  Name = 
REMARK  7 active torsions:
REMARK  status: ('A' for Active; 'I' for Inactive)
REMARK    1  A    between atoms: C_1  and  C_2
REMARK    2  A    between atoms: C_7  and  C_8
REMARK    3  A    between atoms: N_10  and  C_11
REMARK    4  A    between atoms: C_11  and  C_12
REMARK    5  A    between atoms: C_15  and  C_16
REMARK    6  A    between atoms: C_16  and  N_17
REMARK    7  A    between atoms: C_18  and  C_20
REMARK                            x       y       z     vdW  Elec       q    Type
REMARK                         _______ _______ _______ _____ _____    ______ ____
ROOT
ATOM      1  C   UNL     1      50.355   7.382  15.609  0.00  0.00    +0.000 A 
ATOM      2  C   UNL     1      49.045   6.886  15.580  0.00  0.00    +0.000 A 
ATOM      3  C   UNL     1      48.256   7.011  14.431  0.00  0.00    +0.000 A 
ATOM      4  C   UNL     1      48.759   7.633  13.282  0.00  0.00    +0.000 A 
ATOM      5  C   UNL     1      50.042   8.195  13.331  0.00  0.00    +0.000 A 
ATOM      6  C   UNL     1      50.837   8.059  14.479  0.00  0.00    +0.000 A 
ENDROOT
BRANCH   1   7
ATOM      7  C   UNL     1      51.249   7.089  16.791  0.00  0.00    +0.000 C 
BRANCH   7  10
ATOM      8  C   UNL     1      51.210   4.828  17.834  0.00  0.00    +0.000 C 
ATOM      9  O   UNL     1      50.479   5.179  18.754  0.00  0.00    +0.000 OA
ATOM     10  N   UNL     1      51.593   5.680  16.813  0.00  0.00    +0.000 N 
ATOM     11  H   UNL     1      52.285   5.373  16.146  0.00  0.00    +0.000 HD
BRANCH   8  18
ATOM     12  C   UNL     1      49.584   2.399  16.988  0.00  0.00    +0.000 C 
ATOM     13  C   UNL     1      51.014   2.310  17.449  0.00  0.00    +0.000 A 
ATOM     14  C   UNL     1      51.602   1.032  17.533  0.00  0.00    +0.000 A 
ATOM     15  C   UNL     1      52.941   0.877  17.896  0.00  0.00    +0.000 A 
ATOM     16  C   UNL     1      53.726   1.998  18.135  0.00  0.00    +0.000 A 
ATOM     17  C   UNL     1      53.159   3.272  18.062  0.00  0.00    +0.000 A 
ATOM     18  C   UNL     1      51.794   3.444  17.764  0.00  0.00    +0.000 A 
ENDBRANCH   8  18
ENDBRANCH   7  10
ENDBRANCH   1   7
BRANCH   4  19
ATOM     19  C   UNL     1      47.932   7.690  12.022  0.00  0.00    +0.000 C 
BRANCH  19  20
ATOM     20  N   UNL     1      47.178   6.481  11.816  0.00  0.00    +0.000 N 
ATOM     21  C   UNL     1      45.805   6.503  11.795  0.00  0.00    +0.000 C 
ATOM     22  O   UNL     1      45.170   7.549  11.903  0.00  0.00    +0.000 OA
ATOM     23  H   UNL     1      47.664   5.601  11.952  0.00  0.00    +0.000 HD
BRANCH  21  24
ATOM     24  C   UNL     1      45.125   5.220  11.574  0.00  0.00    +0.000 A 
ATOM     25  C   UNL     1      44.425   4.627  12.616  0.00  0.00    +0.000 A 
ATOM     26  S   UNL     1      43.661   3.164  12.186  0.00  0.00    +0.000 S 
ATOM     27  C   UNL     1      44.279   3.246  10.603  0.00  0.00    +0.000 A 
ATOM     28  N   UNL     1      44.020   2.261   9.702  0.00  0.00    +0.000 NA
ATOM     29  C   UNL     1      44.574   2.435   8.549  0.00  0.00    +0.000 A 
ATOM     30  N   UNL     1      45.357   3.510   8.213  0.00  0.00    +0.000 N 
ATOM     31  C   UNL     1      45.624   4.543   9.080  0.00  0.00    +0.000 A 
ATOM     32  O   UNL     1      46.291   5.510   8.737  0.00  0.00    +0.000 OA
ATOM     33  C   UNL     1      45.038   4.386  10.399  0.00  0.00    +0.000 A 
ATOM     34  H   UNL     1      45.755   3.589   7.290  0.00  0.00    +0.000 HD
ENDBRANCH  21  24
ENDBRANCH  19  20
ENDBRANCH   4  19
TORSDOF 6
ENDMDL
MODEL 6
REMARK VINA RESULT:    -7.574      5.236      9.757
REMARK INTER + INTRA:         -10.992
REMARK INTER:                 -10.401
REMARK INTRA:                  -0.591
REMARK UNBOUND:                -0.762
REMARK  Name = 
REMARK  7 active torsions:
REMARK  status: ('A' for Active; 'I' for Inactive)
REMARK    1  A    between atoms: C_1  and  C_2
REMARK    2  A    between atoms: C_7  and  C_8
REMARK    3  A    between atoms: N_10  and  C_11
REMARK    4  A    between atoms: C_11  and  C_12
REMARK    5  A    between atoms: C_15  and  C_16
REMARK    6  A    between atoms: C_16  and  N_17
REMARK    7  A    between atoms: C_18  and  C_20
REMARK                            x       y       z     vdW  Elec       q    Type
REMARK                         _______ _______ _______ _____ _____    ______ ____
ROOT
ATOM      1  C   UNL     1      51.407   3.013  17.663  0.00  0.00    +0.000 A 
ATOM      2  C   UNL     1      50.751   4.216  17.957  0.00  0.00    +0.000 A 
ATOM      3  C   UNL     1      49.382   4.365  17.713  0.00  0.00    +0.000 A 
ATOM      4  C   UNL     1      48.634   3.312  17.171  0.00  0.00    +0.000 A 
ATOM      5  C   UNL     1      49.300   2.134  16.808  0.00  0.00    +0.000 A 
ATOM      6  C   UNL     1      50.670   1.982  17.063  0.00  0.00    +0.000 A 
ENDROOT
BRANCH   1   7
ATOM      7  C   UNL     1      52.843   2.810  18.089  0.00  0.00    +0.000 C 
BRANCH   7  10
ATOM      8  C   UNL     1      54.193   0.761  18.516  0.00  0.00    +0.000 C 
ATOM      9  O   UNL     1      54.654   1.190  19.568  0.00  0.00    +0.000 OA
ATOM     10  N   UNL     1      53.270   1.463  17.760  0.00  0.00    +0.000 N 
ATOM     11  H   UNL     1      53.010   1.116  16.848  0.00  0.00    +0.000 HD
BRANCH   8  18
ATOM     12  C   UNL     1      55.704   0.558  15.884  0.00  0.00    +0.000 C 
ATOM     13  C   UNL     1      55.259  -0.646  16.670  0.00  0.00    +0.000 A 
ATOM     14  C   UNL     1      55.519  -1.921  16.129  0.00  0.00    +0.000 A 
ATOM     15  C   UNL     1      55.189  -3.082  16.829  0.00  0.00    +0.000 A 
ATOM     16  C   UNL     1      54.636  -2.988  18.100  0.00  0.00    +0.000 A 
ATOM     17  C   UNL     1      54.366  -1.734  18.650  0.00  0.00    +0.000 A 
ATOM     18  C   UNL     1      54.630  -0.553  17.931  0.00  0.00    +0.000 A 
ENDBRANCH   8  18
ENDBRANCH   7  10
ENDBRANCH   1   7
BRANCH   4  19
ATOM     19  C   UNL     1      47.143   3.452  16.987  0.00  0.00    +0.000 C 
BRANCH  19  20
ATOM     20  N   UNL     1      46.813   4.428  15.982  0.00  0.00    +0.000 N 
ATOM     21  C   UNL     1      46.928   4.129  14.647  0.00  0.00    +0.000 C 
ATOM     22  O   UNL     1      47.269   3.015  14.257  0.00  0.00    +0.000 OA
ATOM     23  H   UNL     1      46.753   5.397  16.276  0.00  0.00    +0.000 HD
BRANCH  21  24
ATOM     24  C   UNL     1      46.563   5.187  13.696  0.00  0.00    +0.000 A 
ATOM     25  C   UNL     1      47.476   6.191  13.404  0.00  0.00    +0.000 A 
ATOM     26  S   UNL     1      46.914   7.319  12.256  0.00  0.00    +0.000 S 
ATOM     27  C   UNL     1      45.410   6.534  12.143  0.00  0.00    +0.000 A 
ATOM     28  N   UNL     1      44.429   7.018  11.334  0.00  0.00    +0.000 NA
ATOM     29  C   UNL     1      43.330   6.342  11.367  0.00  0.00    +0.000 A 
ATOM     30  N   UNL     1      43.125   5.221  12.130  0.00  0.00    +0.000 N 
ATOM     31  C   UNL     1      44.094   4.678  12.940  0.00  0.00    +0.000 A 
ATOM     32  O   UNL     1      43.895   3.651  13.576  0.00  0.00    +0.000 OA
ATOM     33  C   UNL     1      45.346   5.412  12.953  0.00  0.00    +0.000 A 
ATOM     34  H   UNL     1      42.242   4.734  12.104  0.00  0.00    +0.000 HD
ENDBRANCH  21  24
ENDBRANCH  19  20
ENDBRANCH   4  19
TORSDOF 6
ENDMDL
MODEL 7
REMARK VINA RESULT:    -7.541      2.796      3.171
REMARK INTER + INTRA:         -10.948
REMARK INTER:                 -10.013
REMARK INTRA:                  -0.935
REMARK UNBOUND:                -0.762
REMARK  Name = 
REMARK  7 active torsions:
REMARK  status: ('A' for Active; 'I' for Inactive)
REMARK    1  A    between atoms: C_1  and  C_2
REMARK    2  A    between atoms: C_7  and  C_8
REMARK    3  A    between atoms: N_10  and  C_11
REMARK    4  A    between atoms: C_11  and  C_12
REMARK    5  A    between atoms: C_15  and  C_16
REMARK    6  A    between atoms: C_16  and  N_17
REMARK    7  A    between atoms: C_18  and  C_20
REMARK                            x       y       z     vdW  Elec       q    Type
REMARK                         _______ _______ _______ _____ _____    ______ ____
ROOT
ATOM      1  C   UNL     1      45.587   6.728  11.585  0.00  0.00    +0.000 A 
ATOM      2  C   UNL     1      46.977   6.573  11.497  0.00  0.00    +0.000 A 
ATOM      3  C   UNL     1      47.837   7.357  12.273  0.00  0.00    +0.000 A 
ATOM      4  C   UNL     1      47.327   8.316  13.159  0.00  0.00    +0.000 A 
ATOM      5  C   UNL     1      45.942   8.524  13.195  0.00  0.00    +0.000 A 
ATOM      6  C   UNL     1      45.080   7.730  12.426  0.00  0.00    +0.000 A 
ENDROOT
BRANCH   1   7
ATOM      7  C   UNL     1      44.671   5.761  10.872  0.00  0.00    +0.000 C 
BRANCH   7  10
ATOM      8  C   UNL     1      44.891   4.279   8.882  0.00  0.00    +0.000 C 
ATOM      9  O   UNL     1      43.729   4.449   8.530  0.00  0.00    +0.000 OA
ATOM     10  N   UNL     1      45.443   4.915   9.980  0.00  0.00    +0.000 N 
ATOM     11  H   UNL     1      46.367   4.654  10.292  0.00  0.00    +0.000 HD
BRANCH   8  18
ATOM     12  C   UNL     1      44.610   1.259   9.118  0.00  0.00    +0.000 C 
ATOM     13  C   UNL     1      45.722   1.922   8.351  0.00  0.00    +0.000 A 
ATOM     14  C   UNL     1      46.698   1.097   7.758  0.00  0.00    +0.000 A 
ATOM     15  C   UNL     1      47.724   1.638   6.983  0.00  0.00    +0.000 A 
ATOM     16  C   UNL     1      47.765   3.007   6.749  0.00  0.00    +0.000 A 
ATOM     17  C   UNL     1      46.810   3.841   7.333  0.00  0.00    +0.000 A 
ATOM     18  C   UNL     1      45.808   3.320   8.173  0.00  0.00    +0.000 A 
ENDBRANCH   8  18
ENDBRANCH   7  10
ENDBRANCH   1   7
BRANCH   4  19
ATOM     19  C   UNL     1      48.256   9.100  14.051  0.00  0.00    +0.000 C 
BRANCH  19  20
ATOM     20  N   UNL     1      47.901   8.976  15.441  0.00  0.00    +0.000 N 
ATOM     21  C   UNL     1      48.398   9.851  16.375  0.00  0.00    +0.000 C 
ATOM     22  O   UNL     1      49.123  10.792  16.063  0.00  0.00    +0.000 OA
ATOM     23  H   UNL     1      47.501   8.093  15.742  0.00  0.00    +0.000 HD
BRANCH  21  24
ATOM     24  C   UNL     1      47.974   9.647  17.766  0.00  0.00    +0.000 A 
ATOM     25  C   UNL     1      47.527  10.730  18.512  0.00  0.00    +0.000 A 
ATOM     26  S   UNL     1      47.035  10.321  20.092  0.00  0.00    +0.000 S 
ATOM     27  C   UNL     1      47.448   8.688  19.854  0.00  0.00    +0.000 A 
ATOM     28  N   UNL     1      47.298   7.778  20.854  0.00  0.00    +0.000 NA
ATOM     29  C   UNL     1      47.676   6.582  20.546  0.00  0.00    +0.000 A 
ATOM     30  N   UNL     1      48.183   6.213  19.327  0.00  0.00    +0.000 N 
ATOM     31  C   UNL     1      48.326   7.090  18.278  0.00  0.00    +0.000 A 
ATOM     32  O   UNL     1      48.741   6.720  17.186  0.00  0.00    +0.000 OA
ATOM     33  C   UNL     1      47.931   8.454  18.578  0.00  0.00    +0.000 A 
ATOM     34  H   UNL     1      48.453   5.258  19.149  0.00  0.00    +0.000 HD
ENDBRANCH  21  24
ENDBRANCH  19  20
ENDBRANCH   4  19
TORSDOF 6
ENDMDL
MODEL 8
REMARK VINA RESULT:    -7.413      2.339      3.220
REMARK INTER + INTRA:         -10.775
REMARK INTER:                  -9.794
REMARK INTRA:                  -0.981
REMARK UNBOUND:                -0.762
REMARK  Name = 
REMARK  7 active torsions:
REMARK  status: ('A' for Active; 'I' for Inactive)
REMARK    1  A    between atoms: C_1  and  C_2
REMARK    2  A    between atoms: C_7  and  C_8
REMARK    3  A    between atoms: N_10  and  C_11
REMARK    4  A    between atoms: C_11  and  C_12
REMARK    5  A    between atoms: C_15  and  C_16
REMARK    6  A    between atoms: C_16  and  N_17
REMARK    7  A    between atoms: C_18  and  C_20
REMARK                            x       y       z     vdW  Elec       q    Type
REMARK                         _______ _______ _______ _____ _____    ______ ____
ROOT
ATOM      1  C   UNL     1      45.999   5.551  11.539  0.00  0.00    +0.000 A 
ATOM      2  C   UNL     1      45.564   4.319  12.045  0.00  0.00    +0.000 A 
ATOM      3  C   UNL     1      45.898   3.919  13.343  0.00  0.00    +0.000 A 
ATOM      4  C   UNL     1      46.675   4.742  14.168  0.00  0.00    +0.000 A 
ATOM      5  C   UNL     1      47.173   5.941  13.640  0.00  0.00    +0.000 A 
ATOM      6  C   UNL     1      46.828   6.347  12.343  0.00  0.00    +0.000 A 
ENDROOT
BRANCH   1   7
ATOM      7  C   UNL     1      45.489   6.044  10.204  0.00  0.00    +0.000 C 
BRANCH   7  10
ATOM      8  C   UNL     1      45.263   4.271   8.470  0.00  0.00    +0.000 C 
ATOM      9  O   UNL     1      44.064   4.117   8.671  0.00  0.00    +0.000 OA
ATOM     10  N   UNL     1      46.021   5.218   9.136  0.00  0.00    +0.000 N 
ATOM     11  H   UNL     1      47.023   5.225   9.015  0.00  0.00    +0.000 HD
BRANCH   8  18
ATOM     12  C   UNL     1      45.498   1.256   8.806  0.00  0.00    +0.000 C 
ATOM     13  C   UNL     1      46.200   2.017   7.714  0.00  0.00    +0.000 A 
ATOM     14  C   UNL     1      47.040   1.296   6.842  0.00  0.00    +0.000 A 
ATOM     15  C   UNL     1      47.677   1.925   5.771  0.00  0.00    +0.000 A 
ATOM     16  C   UNL     1      47.449   3.273   5.527  0.00  0.00    +0.000 A 
ATOM     17  C   UNL     1      46.624   4.006   6.384  0.00  0.00    +0.000 A 
ATOM     18  C   UNL     1      46.028   3.403   7.508  0.00  0.00    +0.000 A 
ENDBRANCH   8  18
ENDBRANCH   7  10
ENDBRANCH   1   7
BRANCH   4  19
ATOM     19  C   UNL     1      46.962   4.340  15.593  0.00  0.00    +0.000 C 
BRANCH  19  20
ATOM     20  N   UNL     1      47.965   5.178  16.198  0.00  0.00    +0.000 N 
ATOM     21  C   UNL     1      47.949   5.432  17.547  0.00  0.00    +0.000 C 
ATOM     22  O   UNL     1      47.116   4.925  18.294  0.00  0.00    +0.000 OA
ATOM     23  H   UNL     1      48.507   5.773  15.580  0.00  0.00    +0.000 HD
BRANCH  21  24
ATOM     24  C   UNL     1      49.017   6.294  18.072  0.00  0.00    +0.000 A 
ATOM     25  C   UNL     1      48.691   7.512  18.653  0.00  0.00    +0.000 A 
ATOM     26  S   UNL     1      50.038   8.372  19.246  0.00  0.00    +0.000 S 
ATOM     27  C   UNL     1      51.111   7.170  18.703  0.00  0.00    +0.000 A 
ATOM     28  N   UNL     1      52.454   7.306  18.873  0.00  0.00    +0.000 NA
ATOM     29  C   UNL     1      53.153   6.334  18.389  0.00  0.00    +0.000 A 
ATOM     30  N   UNL     1      52.630   5.235  17.757  0.00  0.00    +0.000 N 
ATOM     31  C   UNL     1      51.280   5.040  17.588  0.00  0.00    +0.000 A 
ATOM     32  O   UNL     1      50.840   4.027  17.058  0.00  0.00    +0.000 OA
ATOM     33  C   UNL     1      50.449   6.114  18.099  0.00  0.00    +0.000 A 
ATOM     34  H   UNL     1      53.232   4.506  17.407  0.00  0.00    +0.000 HD
ENDBRANCH  21  24
ENDBRANCH  19  20
ENDBRANCH   4  19
TORSDOF 6
ENDMDL
MODEL 9
REMARK VINA RESULT:    -6.988      3.021      4.935
REMARK INTER + INTRA:         -10.201
REMARK INTER:                  -8.995
REMARK INTRA:                  -1.206
REMARK UNBOUND:                -0.762
REMARK  Name = 
REMARK  7 active torsions:
REMARK  status: ('A' for Active; 'I' for Inactive)
REMARK    1  A    between atoms: C_1  and  C_2
REMARK    2  A    between atoms: C_7  and  C_8
REMARK    3  A    between atoms: N_10  and  C_11
REMARK    4  A    between atoms: C_11  and  C_12
REMARK    5  A    between atoms: C_15  and  C_16
REMARK    6  A    between atoms: C_16  and  N_17
REMARK    7  A    between atoms: C_18  and  C_20
REMARK                            x       y       z     vdW  Elec       q    Type
REMARK                         _______ _______ _______ _____ _____    ______ ____
ROOT
ATOM      1  C   UNL     1      48.215   7.763  13.755  0.00  0.00    +0.000 A 
ATOM      2  C   UNL     1      48.208   6.440  14.218  0.00  0.00    +0.000 A 
ATOM      3  C   UNL     1      48.424   6.153  15.570  0.00  0.00    +0.000 A 
ATOM      4  C   UNL     1      48.650   7.181  16.493  0.00  0.00    +0.000 A 
ATOM      5  C   UNL     1      48.731   8.499  16.022  0.00  0.00    +0.000 A 
ATOM      6  C   UNL     1      48.503   8.788  14.669  0.00  0.00    +0.000 A 
ENDROOT
BRANCH   1   7
ATOM      7  C   UNL     1      47.812   8.068  12.331  0.00  0.00    +0.000 C 
BRANCH   7  10
ATOM      8  C   UNL     1      45.921   6.788  11.337  0.00  0.00    +0.000 C 
ATOM      9  O   UNL     1      45.138   7.728  11.421  0.00  0.00    +0.000 OA
ATOM     10  N   UNL     1      47.250   6.883  11.712  0.00  0.00    +0.000 N 
ATOM     11  H   UNL     1      47.820   6.050  11.729  0.00  0.00    +0.000 HD
BRANCH   8  18
ATOM     12  C   UNL     1      44.929   4.624  13.231  0.00  0.00    +0.000 C 
ATOM     13  C   UNL     1      45.105   4.404  11.752  0.00  0.00    +0.000 A 
ATOM     14  C   UNL     1      44.840   3.118  11.241  0.00  0.00    +0.000 A 
ATOM     15  C   UNL     1      44.924   2.855   9.873  0.00  0.00    +0.000 A 
ATOM     16  C   UNL     1      45.230   3.883   8.990  0.00  0.00    +0.000 A 
ATOM     17  C   UNL     1      45.502   5.162   9.479  0.00  0.00    +0.000 A 
ATOM     18  C   UNL     1      45.487   5.429  10.861  0.00  0.00    +0.000 A 
ENDBRANCH   8  18
ENDBRANCH   7  10
ENDBRANCH   1   7
BRANCH   4  19
ATOM     19  C   UNL     1      48.800   6.869  17.961  0.00  0.00    +0.000 C 
BRANCH  19  20
ATOM     20  N   UNL     1      49.733   5.797  18.191  0.00  0.00    +0.000 N 
ATOM     21  C   UNL     1      51.085   6.000  18.063  0.00  0.00    +0.000 C 
ATOM     22  O   UNL     1      51.553   7.104  17.795  0.00  0.00    +0.000 OA
ATOM     23  H   UNL     1      49.365   4.851  18.187  0.00  0.00    +0.000 HD
BRANCH  21  24
ATOM     24  C   UNL     1      51.957   4.848  18.324  0.00  0.00    +0.000 A 
ATOM     25  C   UNL     1      53.168   5.037  18.976  0.00  0.00    +0.000 A 
ATOM     26  S   UNL     1      54.042   3.597  19.236  0.00  0.00    +0.000 S 
ATOM     27  C   UNL     1      52.855   2.672  18.442  0.00  0.00    +0.000 A 
ATOM     28  N   UNL     1      53.006   1.329  18.287  0.00  0.00    +0.000 NA
ATOM     29  C   UNL     1      52.046   0.756  17.642  0.00  0.00    +0.000 A 
ATOM     30  N   UNL     1      50.944   1.404  17.145  0.00  0.00    +0.000 N 
ATOM     31  C   UNL     1      50.733   2.753  17.302  0.00  0.00    +0.000 A 
ATOM     32  O   UNL     1      49.717   3.295  16.886  0.00  0.00    +0.000 OA
ATOM     33  C   UNL     1      51.795   3.448  18.007  0.00  0.00    +0.000 A 
ATOM     34  H   UNL     1      50.224   0.895  16.656  0.00  0.00    +0.000 HD
ENDBRANCH  21  24
ENDBRANCH  19  20
ENDBRANCH   4  19
TORSDOF 6
ENDMDL
