MODEL 1
REMARK VINA RESULT:    -8.662      0.000      0.000
REMARK INTER + INTRA:         -12.289
REMARK INTER:                 -11.701
REMARK INTRA:                  -0.588
REMARK UNBOUND:                -0.588
REMARK  Name = 
REMARK  7 active torsions:
REMARK  status: ('A' for Active; 'I' for Inactive)
REMARK    1  A    between atoms: C_1  and  C_2
REMARK    2  A    between atoms: C_2  and  N_3
REMARK    3  A    between atoms: C_2  and  C_16
REMARK    4  A    between atoms: C_4  and  C_6
REMARK    5  A    between atoms: C_19  and  O_20
REMARK    6  A    between atoms: O_20  and  C_21
REMARK    7  A    between atoms: C_21  and  C_22
REMARK                            x       y       z     vdW  Elec       q    Type
REMARK                         _______ _______ _______ _____ _____    ______ ____
ROOT
ATOM      1  C   UNL     1      47.711   8.735  12.281  0.00  0.00    +0.000 C 
ATOM      2  C   UNL     1      46.655   7.977  13.096  0.00  0.00    +0.000 C 
ENDROOT
BRANCH   2   3
ATOM      3  C   UNL     1      46.009   6.840  12.323  0.00  0.00    +0.000 A 
ATOM      4  C   UNL     1      46.304   6.656  10.962  0.00  0.00    +0.000 A 
ATOM      5  C   UNL     1      45.741   5.595  10.249  0.00  0.00    +0.000 A 
ATOM      6  C   UNL     1      44.877   4.704  10.886  0.00  0.00    +0.000 A 
ATOM      7  C   UNL     1      44.506   4.935  12.210  0.00  0.00    +0.000 A 
ATOM      8  C   UNL     1      45.070   5.990  12.920  0.00  0.00    +0.000 A 
BRANCH   6   9
ATOM      9  O   UNL     1      44.455   3.632  10.144  0.00  0.00    +0.000 OA
BRANCH   9  10
ATOM     10  C   UNL     1      44.496   3.849   8.726  0.00  0.00    +0.000 C 
BRANCH  10  11
ATOM     11  C   UNL     1      45.536   2.973   8.082  0.00  0.00    +0.000 A 
ATOM     12  C   UNL     1      46.443   3.522   7.177  0.00  0.00    +0.000 A 
ATOM     13  C   UNL     1      47.440   2.709   6.651  0.00  0.00    +0.000 A 
ATOM     14  C   UNL     1      47.509   1.378   7.042  0.00  0.00    +0.000 A 
ATOM     15  C   UNL     1      46.574   0.912   7.950  0.00  0.00    +0.000 A 
ATOM     16  N   UNL     1      45.596   1.678   8.483  0.00  0.00    +0.000 NA
ENDBRANCH  10  11
ENDBRANCH   9  10
ENDBRANCH   6   9
ENDBRANCH   2   3
BRANCH   2  17
ATOM     17  N   UNL     1      47.233   7.433  14.305  0.00  0.00    +0.000 N 
ATOM     18  C   UNL     1      48.338   6.626  14.314  0.00  0.00    +0.000 C 
ATOM     19  O   UNL     1      48.958   6.339  13.296  0.00  0.00    +0.000 OA
ATOM     20  H   UNL     1      46.669   7.511  15.144  0.00  0.00    +0.000 HD
BRANCH  18  21
ATOM     21  C   UNL     1      48.785   6.189  15.640  0.00  0.00    +0.000 A 
ATOM     22  C   UNL     1      49.750   6.918  16.322  0.00  0.00    +0.000 A 
ATOM     23  S   UNL     1      50.094   6.303  17.875  0.00  0.00    +0.000 S 
ATOM     24  C   UNL     1      49.007   5.010  17.666  0.00  0.00    +0.000 A 
ATOM     25  N   UNL     1      48.829   4.078  18.642  0.00  0.00    +0.000 NA
ATOM     26  C   UNL     1      48.007   3.133  18.331  0.00  0.00    +0.000 A 
ATOM     27  N   UNL     1      47.342   3.034  17.138  0.00  0.00    +0.000 N 
ATOM     28  C   UNL     1      47.456   3.974  16.138  0.00  0.00    +0.000 A 
ATOM     29  O   UNL     1      46.796   3.894  15.109  0.00  0.00    +0.000 OA
ATOM     30  C   UNL     1      48.382   5.053  16.433  0.00  0.00    +0.000 A 
ATOM     31  H   UNL     1      46.703   2.273  16.962  0.00  0.00    +0.000 HD
ENDBRANCH  18  21
ENDBRANCH   2  17
TORSDOF 6
ENDMDL
MODEL 2
REMARK VINA RESULT:    -8.136      1.876      2.469
REMARK INTER + INTRA:         -11.577
REMARK INTER:                 -10.650
REMARK INTRA:                  -0.927
REMARK UNBOUND:                -0.588
REMARK  Name = 
REMARK  7 active torsions:
REMARK  status: ('A' for Active; 'I' for Inactive)
REMARK    1  A    between atoms: C_1  and  C_2
REMARK    2  A    between atoms: C_2  and  N_3
REMARK    3  A    between atoms: C_2  and  C_16
REMARK    4  A    between atoms: C_4  and  C_6
REMARK    5  A    between atoms: C_19  and  O_20
REMARK    6  A    between atoms: O_20  and  C_21
REMARK    7  A    between atoms: C_21  and  C_22
REMARK                            x       y       z     vdW  Elec       q    Type
REMARK                         _______ _______ _______ _____ _____    ______ ____
ROOT
ATOM      1  C   UNL     1      48.921   7.440  12.580  0.00  0.00    +0.000 C 
ATOM      2  C   UNL     1      47.727   6.905  13.380  0.00  0.00    +0.000 C 
ENDROOT
BRANCH   2   3
ATOM      3  C   UNL     1      46.762   6.090  12.538  0.00  0.00    +0.000 A 
ATOM      4  C   UNL     1      46.306   6.590  11.307  0.00  0.00    +0.000 A 
ATOM      5  C   UNL     1      45.442   5.836  10.508  0.00  0.00    +0.000 A 
ATOM      6  C   UNL     1      45.024   4.573  10.928  0.00  0.00    +0.000 A 
ATOM      7  C   UNL     1      45.397   4.111  12.189  0.00  0.00    +0.000 A 
ATOM      8  C   UNL     1      46.258   4.861  12.983  0.00  0.00    +0.000 A 
BRANCH   6   9
ATOM      9  O   UNL     1      44.267   3.858  10.038  0.00  0.00    +0.000 OA
BRANCH   9  10
ATOM     10  C   UNL     1      44.711   2.508   9.842  0.00  0.00    +0.000 C 
BRANCH  10  11
ATOM     11  C   UNL     1      45.527   2.392   8.583  0.00  0.00    +0.000 A 
ATOM     12  C   UNL     1      45.590   3.464   7.695  0.00  0.00    +0.000 A 
ATOM     13  C   UNL     1      46.407   3.361   6.576  0.00  0.00    +0.000 A 
ATOM     14  C   UNL     1      47.140   2.197   6.375  0.00  0.00    +0.000 A 
ATOM     15  C   UNL     1      47.025   1.181   7.307  0.00  0.00    +0.000 A 
ATOM     16  N   UNL     1      46.243   1.253   8.407  0.00  0.00    +0.000 NA
ENDBRANCH  10  11
ENDBRANCH   9  10
ENDBRANCH   6   9
ENDBRANCH   2   3
BRANCH   2  17
ATOM     17  N   UNL     1      48.176   6.081  14.482  0.00  0.00    +0.000 N 
ATOM     18  C   UNL     1      48.637   6.592  15.664  0.00  0.00    +0.000 C 
ATOM     19  O   UNL     1      48.658   7.794  15.904  0.00  0.00    +0.000 OA
ATOM     20  H   UNL     1      48.325   5.100  14.273  0.00  0.00    +0.000 HD
BRANCH  18  21
ATOM     21  C   UNL     1      49.030   5.597  16.667  0.00  0.00    +0.000 A 
ATOM     22  C   UNL     1      48.063   4.812  17.281  0.00  0.00    +0.000 A 
ATOM     23  S   UNL     1      48.709   3.664  18.364  0.00  0.00    +0.000 S 
ATOM     24  C   UNL     1      50.296   4.215  18.092  0.00  0.00    +0.000 A 
ATOM     25  N   UNL     1      51.355   3.654  18.738  0.00  0.00    +0.000 NA
ATOM     26  C   UNL     1      52.492   4.199  18.467  0.00  0.00    +0.000 A 
ATOM     27  N   UNL     1      52.673   5.250  17.607  0.00  0.00    +0.000 N 
ATOM     28  C   UNL     1      51.640   5.822  16.899  0.00  0.00    +0.000 A 
ATOM     29  O   UNL     1      51.843   6.716  16.086  0.00  0.00    +0.000 OA
ATOM     30  C   UNL     1      50.334   5.253  17.180  0.00  0.00    +0.000 A 
ATOM     31  H   UNL     1      53.593   5.623  17.431  0.00  0.00    +0.000 HD
ENDBRANCH  18  21
ENDBRANCH   2  17
TORSDOF 6
ENDMDL
MODEL 3
REMARK VINA RESULT:    -7.982      2.735      3.694
REMARK INTER + INTRA:         -11.369
REMARK INTER:                 -10.213
REMARK INTRA:                  -1.156
REMARK UNBOUND:                -0.588
REMARK  Name = 
REMARK  7 active torsions:
REMARK  status: ('A' for Active; 'I' for Inactive)
REMARK    1  A    between atoms: C_1  and  C_2
REMARK    2  A    between atoms: C_2  and  N_3
REMARK    3  A    between atoms: C_2  and  C_16
REMARK    4  A    between atoms: C_4  and  C_6
REMARK    5  A    between atoms: C_19  and  O_20
REMARK    6  A    between atoms: O_20  and  C_21
REMARK    7  A    between atoms: C_21  and  C_22
REMARK                            x       y       z     vdW  Elec       q    Type
REMARK                         _______ _______ _______ _____ _____    ______ ____
ROOT
ATOM      1  C   UNL     1      47.242   3.992  16.248  0.00  0.00    +0.000 C 
ATOM      2  C   UNL     1      47.783   4.863  15.107  0.00  0.00    +0.000 C 
ENDROOT
BRANCH   2   3
ATOM      3  C   UNL     1      46.944   4.779  13.844  0.00  0.00    +0.000 A 
ATOM      4  C   UNL     1      46.317   3.572  13.493  0.00  0.00    +0.000 A 
ATOM      5  C   UNL     1      45.517   3.491  12.350  0.00  0.00    +0.000 A 
ATOM      6  C   UNL     1      45.332   4.615  11.545  0.00  0.00    +0.000 A 
ATOM      7  C   UNL     1      46.025   5.789  11.834  0.00  0.00    +0.000 A 
ATOM      8  C   UNL     1      46.820   5.869  12.973  0.00  0.00    +0.000 A 
BRANCH   6   9
ATOM      9  O   UNL     1      44.448   4.478  10.506  0.00  0.00    +0.000 OA
BRANCH   9  10
ATOM     10  C   UNL     1      44.291   3.129  10.045  0.00  0.00    +0.000 C 
BRANCH  10  11
ATOM     11  C   UNL     1      45.221   2.846   8.896  0.00  0.00    +0.000 A 
ATOM     12  C   UNL     1      45.597   3.877   8.036  0.00  0.00    +0.000 A 
ATOM     13  C   UNL     1      46.513   3.608   7.027  0.00  0.00    +0.000 A 
ATOM     14  C   UNL     1      47.031   2.324   6.904  0.00  0.00    +0.000 A 
ATOM     15  C   UNL     1      46.610   1.358   7.802  0.00  0.00    +0.000 A 
ATOM     16  N   UNL     1      45.725   1.590   8.796  0.00  0.00    +0.000 NA
ENDBRANCH  10  11
ENDBRANCH   9  10
ENDBRANCH   6   9
ENDBRANCH   2   3
BRANCH   2  17
ATOM     17  N   UNL     1      47.858   6.250  15.511  0.00  0.00    +0.000 N 
ATOM     18  C   UNL     1      49.027   6.870  15.856  0.00  0.00    +0.000 C 
ATOM     19  O   UNL     1      50.117   6.311  15.800  0.00  0.00    +0.000 OA
ATOM     20  H   UNL     1      46.975   6.701  15.724  0.00  0.00    +0.000 HD
BRANCH  18  21
ATOM     21  C   UNL     1      48.903   8.285  16.220  0.00  0.00    +0.000 A 
ATOM     22  C   UNL     1      49.436   9.264  15.393  0.00  0.00    +0.000 A 
ATOM     23  S   UNL     1      49.134  10.852  15.938  0.00  0.00    +0.000 S 
ATOM     24  C   UNL     1      48.332  10.283  17.327  0.00  0.00    +0.000 A 
ATOM     25  N   UNL     1      47.826  11.148  18.249  0.00  0.00    +0.000 NA
ATOM     26  C   UNL     1      47.281  10.578  19.270  0.00  0.00    +0.000 A 
ATOM     27  N   UNL     1      47.191   9.224  19.456  0.00  0.00    +0.000 N 
ATOM     28  C   UNL     1      47.649   8.310  18.533  0.00  0.00    +0.000 A 
ATOM     29  O   UNL     1      47.493   7.106  18.695  0.00  0.00    +0.000 OA
ATOM     30  C   UNL     1      48.285   8.902  17.369  0.00  0.00    +0.000 A 
ATOM     31  H   UNL     1      46.742   8.841  20.274  0.00  0.00    +0.000 HD
ENDBRANCH  18  21
ENDBRANCH   2  17
TORSDOF 6
ENDMDL
MODEL 4
REMARK VINA RESULT:    -7.631      1.796      2.066
REMARK INTER + INTRA:         -10.896
REMARK INTER:                  -9.996
REMARK INTRA:                  -0.901
REMARK UNBOUND:                -0.588
REMARK  Name = 
REMARK  7 active torsions:
REMARK  status: ('A' for Active; 'I' for Inactive)
REMARK    1  A    between atoms: C_1  and  C_2
REMARK    2  A    between atoms: C_2  and  N_3
REMARK    3  A    between atoms: C_2  and  C_16
REMARK    4  A    between atoms: C_4  and  C_6
REMARK    5  A    between atoms: C_19  and  O_20
REMARK    6  A    between atoms: O_20  and  C_21
REMARK    7  A    between atoms: C_21  and  C_22
REMARK                            x       y       z     vdW  Elec       q    Type
REMARK                         _______ _______ _______ _____ _____    ______ ____
ROOT
ATOM      1  C   UNL     1      49.381   7.184  12.879  0.00  0.00    +0.000 C 
ATOM      2  C   UNL     1      47.989   7.557  13.404  0.00  0.00    +0.000 C 
ENDROOT
BRANCH   2   3
ATOM      3  C   UNL     1      46.876   6.740  12.772  0.00  0.00    +0.000 A 
ATOM      4  C   UNL     1      45.988   7.343  11.866  0.00  0.00    +0.000 A 
ATOM      5  C   UNL     1      44.978   6.595  11.253  0.00  0.00    +0.000 A 
ATOM      6  C   UNL     1      44.844   5.236  11.538  0.00  0.00    +0.000 A 
ATOM      7  C   UNL     1      45.661   4.653  12.506  0.00  0.00    +0.000 A 
ATOM      8  C   UNL     1      46.667   5.398  13.113  0.00  0.00    +0.000 A 
BRANCH   6   9
ATOM      9  O   UNL     1      43.900   4.555  10.815  0.00  0.00    +0.000 OA
BRANCH   9  10
ATOM     10  C   UNL     1      44.208   3.169  10.607  0.00  0.00    +0.000 C 
BRANCH  10  11
ATOM     11  C   UNL     1      45.013   2.985   9.349  0.00  0.00    +0.000 A 
ATOM     12  C   UNL     1      45.281   4.080   8.529  0.00  0.00    +0.000 A 
ATOM     13  C   UNL     1      46.088   3.899   7.412  0.00  0.00    +0.000 A 
ATOM     14  C   UNL     1      46.606   2.638   7.145  0.00  0.00    +0.000 A 
ATOM     15  C   UNL     1      46.297   1.605   8.012  0.00  0.00    +0.000 A 
ATOM     16  N   UNL     1      45.520   1.750   9.108  0.00  0.00    +0.000 NA
ENDBRANCH  10  11
ENDBRANCH   9  10
ENDBRANCH   6   9
ENDBRANCH   2   3
BRANCH   2  17
ATOM     17  N   UNL     1      47.920   7.386  14.839  0.00  0.00    +0.000 N 
ATOM     18  C   UNL     1      48.555   8.211  15.726  0.00  0.00    +0.000 C 
ATOM     19  O   UNL     1      49.196   9.196  15.374  0.00  0.00    +0.000 OA
ATOM     20  H   UNL     1      47.539   6.504  15.165  0.00  0.00    +0.000 HD
BRANCH  18  21
ATOM     21  C   UNL     1      48.350   7.887  17.142  0.00  0.00    +0.000 A 
ATOM     22  C   UNL     1      47.914   8.868  18.022  0.00  0.00    +0.000 A 
ATOM     23  S   UNL     1      47.663   8.294  19.608  0.00  0.00    +0.000 S 
ATOM     24  C   UNL     1      48.183   6.730  19.185  0.00  0.00    +0.000 A 
ATOM     25  N   UNL     1      48.228   5.731  20.109  0.00  0.00    +0.000 NA
ATOM     26  C   UNL     1      48.681   4.610  19.658  0.00  0.00    +0.000 A 
ATOM     27  N   UNL     1      49.090   4.391  18.370  0.00  0.00    +0.000 N 
ATOM     28  C   UNL     1      49.023   5.356  17.390  0.00  0.00    +0.000 A 
ATOM     29  O   UNL     1      49.332   5.110  16.230  0.00  0.00    +0.000 OA
ATOM     30  C   UNL     1      48.533   6.644  17.850  0.00  0.00    +0.000 A 
ATOM     31  H   UNL     1      49.425   3.485  18.079  0.00  0.00    +0.000 HD
ENDBRANCH  18  21
ENDBRANCH   2  17
TORSDOF 6
ENDMDL
MODEL 5
REMARK VINA RESULT:    -6.915      2.714      3.923
REMARK INTER + INTRA:          -9.928
REMARK INTER:                  -8.890
REMARK INTRA:                  -1.038
REMARK UNBOUND:                -0.588
REMARK  Name = 
REMARK  7 active torsions:
REMARK  status: ('A' for Active; 'I' for Inactive)
REMARK    1  A    between atoms: C_1  and  C_2
REMARK    2  A    between atoms: C_2  and  N_3
REMARK    3  A    between atoms: C_2  and  C_16
REMARK    4  A    between atoms: C_4  and  C_6
REMARK    5  A    between atoms: C_19  and  O_20
REMARK    6  A    between atoms: O_20  and  C_21
REMARK    7  A    between atoms: C_21  and  C_22
REMARK                            x       y       z     vdW  Elec       q    Type
REMARK                         _______ _______ _______ _____ _____    ______ ____
ROOT
ATOM      1  C   UNL     1      49.683   9.183  16.471  0.00  0.00    +0.000 C 
ATOM      2  C   UNL     1      49.142   7.752  16.356  0.00  0.00    +0.000 C 
ENDROOT
BRANCH   2   3
ATOM      3  C   UNL     1      48.619   7.422  14.969  0.00  0.00    +0.000 A 
ATOM      4  C   UNL     1      47.977   6.196  14.732  0.00  0.00    +0.000 A 
ATOM      5  C   UNL     1      47.463   5.894  13.467  0.00  0.00    +0.000 A 
ATOM      6  C   UNL     1      47.583   6.814  12.425  0.00  0.00    +0.000 A 
ATOM      7  C   UNL     1      48.301   7.991  12.629  0.00  0.00    +0.000 A 
ATOM      8  C   UNL     1      48.810   8.292  13.888  0.00  0.00    +0.000 A 
BRANCH   6   9
ATOM      9  O   UNL     1      46.959   6.485  11.251  0.00  0.00    +0.000 OA
BRANCH   9  10
ATOM     10  C   UNL     1      45.571   6.153  11.397  0.00  0.00    +0.000 C 
BRANCH  10  11
ATOM     11  C   UNL     1      45.198   5.009  10.494  0.00  0.00    +0.000 A 
ATOM     12  C   UNL     1      45.576   5.031   9.153  0.00  0.00    +0.000 A 
ATOM     13  C   UNL     1      45.284   3.931   8.356  0.00  0.00    +0.000 A 
ATOM     14  C   UNL     1      44.628   2.841   8.915  0.00  0.00    +0.000 A 
ATOM     15  C   UNL     1      44.292   2.896  10.257  0.00  0.00    +0.000 A 
ATOM     16  N   UNL     1      44.566   3.949  11.059  0.00  0.00    +0.000 NA
ENDBRANCH  10  11
ENDBRANCH   9  10
ENDBRANCH   6   9
ENDBRANCH   2   3
BRANCH   2  17
ATOM     17  N   UNL     1      50.166   6.788  16.696  0.00  0.00    +0.000 N 
ATOM     18  C   UNL     1      50.079   5.946  17.771  0.00  0.00    +0.000 C 
ATOM     19  O   UNL     1      49.098   5.907  18.505  0.00  0.00    +0.000 OA
ATOM     20  H   UNL     1      51.055   6.893  16.219  0.00  0.00    +0.000 HD
BRANCH  18  21
ATOM     21  C   UNL     1      51.209   5.027  17.941  0.00  0.00    +0.000 A 
ATOM     22  C   UNL     1      52.431   5.505  18.394  0.00  0.00    +0.000 A 
ATOM     23  S   UNL     1      53.604   4.285  18.599  0.00  0.00    +0.000 S 
ATOM     24  C   UNL     1      52.537   3.085  18.036  0.00  0.00    +0.000 A 
ATOM     25  N   UNL     1      52.929   1.784  17.944  0.00  0.00    +0.000 NA
ATOM     26  C   UNL     1      52.031   0.992  17.462  0.00  0.00    +0.000 A 
ATOM     27  N   UNL     1      50.777   1.376  17.068  0.00  0.00    +0.000 N 
ATOM     28  C   UNL     1      50.321   2.670  17.182  0.00  0.00    +0.000 A 
ATOM     29  O   UNL     1      49.170   2.969  16.884  0.00  0.00    +0.000 OA
ATOM     30  C   UNL     1      51.299   3.606  17.706  0.00  0.00    +0.000 A 
ATOM     31  H   UNL     1      50.118   0.702  16.709  0.00  0.00    +0.000 HD
ENDBRANCH  18  21
ENDBRANCH   2  17
TORSDOF 6
ENDMDL
MODEL 6
REMARK VINA RESULT:    -6.821      3.120      5.151
REMARK INTER + INTRA:          -9.802
REMARK INTER:                  -9.070
REMARK INTRA:                  -0.731
REMARK UNBOUND:                -0.588
REMARK  Name = 
REMARK  7 active torsions:
REMARK  status: ('A' for Active; 'I' for Inactive)
REMARK    1  A    between atoms: C_1  and  C_2
REMARK    2  A    between atoms: C_2  and  N_3
REMARK    3  A    between atoms: C_2  and  C_16
REMARK    4  A    between atoms: C_4  and  C_6
REMARK    5  A    between atoms: C_19  and  O_20
REMARK    6  A    between atoms: O_20  and  C_21
REMARK    7  A    between atoms: C_21  and  C_22
REMARK                            x       y       z     vdW  Elec       q    Type
REMARK                         _______ _______ _______ _____ _____    ______ ____
ROOT
ATOM      1  C   UNL     1      47.141   4.858  18.413  0.00  0.00    +0.000 C 
ATOM      2  C   UNL     1      47.718   4.003  17.278  0.00  0.00    +0.000 C 
ENDROOT
BRANCH   2   3
ATOM      3  C   UNL     1      47.682   4.701  15.929  0.00  0.00    +0.000 A 
ATOM      4  C   UNL     1      47.013   4.107  14.847  0.00  0.00    +0.000 A 
ATOM      5  C   UNL     1      46.946   4.753  13.609  0.00  0.00    +0.000 A 
ATOM      6  C   UNL     1      47.545   6.002  13.439  0.00  0.00    +0.000 A 
ATOM      7  C   UNL     1      48.290   6.554  14.480  0.00  0.00    +0.000 A 
ATOM      8  C   UNL     1      48.354   5.910  15.712  0.00  0.00    +0.000 A 
BRANCH   6   9
ATOM      9  O   UNL     1      47.340   6.613  12.230  0.00  0.00    +0.000 OA
BRANCH   9  10
ATOM     10  C   UNL     1      45.966   6.908  11.947  0.00  0.00    +0.000 C 
BRANCH  10  11
ATOM     11  C   UNL     1      45.386   5.892  11.000  0.00  0.00    +0.000 A 
ATOM     12  C   UNL     1      44.139   5.328  11.265  0.00  0.00    +0.000 A 
ATOM     13  C   UNL     1      43.592   4.448  10.339  0.00  0.00    +0.000 A 
ATOM     14  C   UNL     1      44.297   4.157   9.178  0.00  0.00    +0.000 A 
ATOM     15  C   UNL     1      45.526   4.765   8.988  0.00  0.00    +0.000 A 
ATOM     16  N   UNL     1      46.083   5.628   9.866  0.00  0.00    +0.000 NA
ENDBRANCH  10  11
ENDBRANCH   9  10
ENDBRANCH   6   9
ENDBRANCH   2   3
BRANCH   2  17
ATOM     17  N   UNL     1      49.087   3.631  17.560  0.00  0.00    +0.000 N 
ATOM     18  C   UNL     1      49.718   2.575  16.962  0.00  0.00    +0.000 C 
ATOM     19  O   UNL     1      49.186   1.888  16.097  0.00  0.00    +0.000 OA
ATOM     20  H   UNL     1      49.509   4.065  18.374  0.00  0.00    +0.000 HD
BRANCH  18  21
ATOM     21  C   UNL     1      51.113   2.367  17.365  0.00  0.00    +0.000 A 
ATOM     22  C   UNL     1      51.585   1.082  17.592  0.00  0.00    +0.000 A 
ATOM     23  S   UNL     1      53.245   1.027  17.982  0.00  0.00    +0.000 S 
ATOM     24  C   UNL     1      53.374   2.723  17.916  0.00  0.00    +0.000 A 
ATOM     25  N   UNL     1      54.557   3.347  18.171  0.00  0.00    +0.000 NA
ATOM     26  C   UNL     1      54.499   4.635  18.126  0.00  0.00    +0.000 A 
ATOM     27  N   UNL     1      53.370   5.359  17.845  0.00  0.00    +0.000 N 
ATOM     28  C   UNL     1      52.162   4.773  17.539  0.00  0.00    +0.000 A 
ATOM     29  O   UNL     1      51.188   5.447  17.226  0.00  0.00    +0.000 OA
ATOM     30  C   UNL     1      52.171   3.322  17.590  0.00  0.00    +0.000 A 
ATOM     31  H   UNL     1      53.395   6.368  17.815  0.00  0.00    +0.000 HD
ENDBRANCH  18  21
ENDBRANCH   2  17
TORSDOF 6
ENDMDL
MODEL 7
REMARK VINA RESULT:    -6.793      3.389      5.062
REMARK INTER + INTRA:          -9.763
REMARK INTER:                  -8.631
REMARK INTRA:                  -1.132
REMARK UNBOUND:                -0.588
REMARK  Name = 
REMARK  7 active torsions:
REMARK  status: ('A' for Active; 'I' for Inactive)
REMARK    1  A    between atoms: C_1  and  C_2
REMARK    2  A    between atoms: C_2  and  N_3
REMARK    3  A    between atoms: C_2  and  C_16
REMARK    4  A    between atoms: C_4  and  C_6
REMARK    5  A    between atoms: C_19  and  O_20
REMARK    6  A    between atoms: O_20  and  C_21
REMARK    7  A    between atoms: C_21  and  C_22
REMARK                            x       y       z     vdW  Elec       q    Type
REMARK                         _______ _______ _______ _____ _____    ______ ____
ROOT
ATOM      1  C   UNL     1      50.466   7.903  16.984  0.00  0.00    +0.000 C 
ATOM      2  C   UNL     1      49.906   6.581  17.523  0.00  0.00    +0.000 C 
ENDROOT
BRANCH   2   3
ATOM      3  C   UNL     1      48.887   5.943  16.595  0.00  0.00    +0.000 A 
ATOM      4  C   UNL     1      48.642   6.499  15.329  0.00  0.00    +0.000 A 
ATOM      5  C   UNL     1      47.730   5.903  14.453  0.00  0.00    +0.000 A 
ATOM      6  C   UNL     1      47.053   4.743  14.832  0.00  0.00    +0.000 A 
ATOM      7  C   UNL     1      47.220   4.240  16.121  0.00  0.00    +0.000 A 
ATOM      8  C   UNL     1      48.130   4.833  16.991  0.00  0.00    +0.000 A 
BRANCH   6   9
ATOM      9  O   UNL     1      46.260   4.164  13.876  0.00  0.00    +0.000 OA
BRANCH   9  10
ATOM     10  C   UNL     1      45.413   5.089  13.179  0.00  0.00    +0.000 C 
BRANCH  10  11
ATOM     11  C   UNL     1      45.120   4.599  11.787  0.00  0.00    +0.000 A 
ATOM     12  C   UNL     1      45.476   5.378  10.687  0.00  0.00    +0.000 A 
ATOM     13  C   UNL     1      45.262   4.873   9.410  0.00  0.00    +0.000 A 
ATOM     14  C   UNL     1      44.704   3.609   9.264  0.00  0.00    +0.000 A 
ATOM     15  C   UNL     1      44.384   2.897  10.407  0.00  0.00    +0.000 A 
ATOM     16  N   UNL     1      44.584   3.359  11.662  0.00  0.00    +0.000 NA
ENDBRANCH  10  11
ENDBRANCH   9  10
ENDBRANCH   6   9
ENDBRANCH   2   3
BRANCH   2  17
ATOM     17  N   UNL     1      50.970   5.628  17.753  0.00  0.00    +0.000 N 
ATOM     18  C   UNL     1      51.117   4.933  18.922  0.00  0.00    +0.000 C 
ATOM     19  O   UNL     1      50.325   5.025  19.853  0.00  0.00    +0.000 OA
ATOM     20  H   UNL     1      51.730   5.638  17.082  0.00  0.00    +0.000 HD
BRANCH  18  21
ATOM     21  C   UNL     1      52.247   3.999  18.959  0.00  0.00    +0.000 A 
ATOM     22  C   UNL     1      53.381   4.311  19.696  0.00  0.00    +0.000 A 
ATOM     23  S   UNL     1      54.561   3.079  19.681  0.00  0.00    +0.000 S 
ATOM     24  C   UNL     1      53.620   2.113  18.642  0.00  0.00    +0.000 A 
ATOM     25  N   UNL     1      54.067   0.899  18.216  0.00  0.00    +0.000 NA
ATOM     26  C   UNL     1      53.269   0.295  17.401  0.00  0.00    +0.000 A 
ATOM     27  N   UNL     1      52.064   0.788  16.975  0.00  0.00    +0.000 N 
ATOM     28  C   UNL     1      51.550   1.989  17.411  0.00  0.00    +0.000 A 
ATOM     29  O   UNL     1      50.439   2.370  17.065  0.00  0.00    +0.000 OA
ATOM     30  C   UNL     1      52.418   2.716  18.321  0.00  0.00    +0.000 A 
ATOM     31  H   UNL     1      51.482   0.259  16.344  0.00  0.00    +0.000 HD
ENDBRANCH  18  21
ENDBRANCH   2  17
TORSDOF 6
ENDMDL
MODEL 8
REMARK VINA RESULT:    -6.721      3.019      4.407
REMARK INTER + INTRA:          -9.666
REMARK INTER:                  -8.622
REMARK INTRA:                  -1.044
REMARK UNBOUND:                -0.588
REMARK  Name = 
REMARK  7 active torsions:
REMARK  status: ('A' for Active; 'I' for Inactive)
REMARK    1  A    between atoms: C_1  and  C_2
REMARK    2  A    between atoms: C_2  and  N_3
REMARK    3  A    between atoms: C_2  and  C_16
REMARK    4  A    between atoms: C_4  and  C_6
REMARK    5  A    between atoms: C_19  and  O_20
REMARK    6  A    between atoms: O_20  and  C_21
REMARK    7  A    between atoms: C_21  and  C_22
REMARK                            x       y       z     vdW  Elec       q    Type
REMARK                         _______ _______ _______ _____ _____    ______ ____
ROOT
ATOM      1  C   UNL     1      47.984   3.484  16.692  0.00  0.00    +0.000 C 
ATOM      2  C   UNL     1      48.214   4.878  16.095  0.00  0.00    +0.000 C 
ENDROOT
BRANCH   2   3
ATOM      3  C   UNL     1      47.389   5.135  14.846  0.00  0.00    +0.000 A 
ATOM      4  C   UNL     1      46.472   4.171  14.397  0.00  0.00    +0.000 A 
ATOM      5  C   UNL     1      45.684   4.409  13.267  0.00  0.00    +0.000 A 
ATOM      6  C   UNL     1      45.801   5.615  12.574  0.00  0.00    +0.000 A 
ATOM      7  C   UNL     1      46.774   6.536  12.958  0.00  0.00    +0.000 A 
ATOM      8  C   UNL     1      47.557   6.298  14.084  0.00  0.00    +0.000 A 
BRANCH   6   9
ATOM      9  O   UNL     1      44.918   5.811  11.545  0.00  0.00    +0.000 OA
BRANCH   9  10
ATOM     10  C   UNL     1      45.534   5.900  10.253  0.00  0.00    +0.000 C 
BRANCH  10  11
ATOM     11  C   UNL     1      45.367   4.612   9.492  0.00  0.00    +0.000 A 
ATOM     12  C   UNL     1      46.026   4.433   8.277  0.00  0.00    +0.000 A 
ATOM     13  C   UNL     1      45.914   3.209   7.629  0.00  0.00    +0.000 A 
ATOM     14  C   UNL     1      45.155   2.199   8.208  0.00  0.00    +0.000 A 
ATOM     15  C   UNL     1      44.537   2.456   9.419  0.00  0.00    +0.000 A 
ATOM     16  N   UNL     1      44.630   3.634  10.076  0.00  0.00    +0.000 NA
ENDBRANCH  10  11
ENDBRANCH   9  10
ENDBRANCH   6   9
ENDBRANCH   2   3
BRANCH   2  17
ATOM     17  N   UNL     1      47.907   5.908  17.063  0.00  0.00    +0.000 N 
ATOM     18  C   UNL     1      48.782   6.312  18.034  0.00  0.00    +0.000 C 
ATOM     19  O   UNL     1      49.920   5.867  18.129  0.00  0.00    +0.000 OA
ATOM     20  H   UNL     1      46.934   6.188  17.123  0.00  0.00    +0.000 HD
BRANCH  18  21
ATOM     21  C   UNL     1      48.295   7.383  18.911  0.00  0.00    +0.000 A 
ATOM     22  C   UNL     1      48.072   7.129  20.257  0.00  0.00    +0.000 A 
ATOM     23  S   UNL     1      47.578   8.505  21.135  0.00  0.00    +0.000 S 
ATOM     24  C   UNL     1      47.589   9.472  19.734  0.00  0.00    +0.000 A 
ATOM     25  N   UNL     1      47.242  10.788  19.786  0.00  0.00    +0.000 NA
ATOM     26  C   UNL     1      47.256  11.387  18.644  0.00  0.00    +0.000 A 
ATOM     27  N   UNL     1      47.589  10.797  17.453  0.00  0.00    +0.000 N 
ATOM     28  C   UNL     1      47.988   9.483  17.356  0.00  0.00    +0.000 A 
ATOM     29  O   UNL     1      48.346   9.002  16.287  0.00  0.00    +0.000 OA
ATOM     30  C   UNL     1      47.976   8.758  18.615  0.00  0.00    +0.000 A 
ATOM     31  H   UNL     1      47.590  11.326  16.594  0.00  0.00    +0.000 HD
ENDBRANCH  18  21
ENDBRANCH   2  17
TORSDOF 6
ENDMDL
