MODEL 1
REMARK VINA RESULT:    -8.408      0.000      0.000
REMARK INTER + INTRA:         -11.002
REMARK INTER:                 -10.866
REMARK INTRA:                  -0.137
REMARK UNBOUND:                -0.137
REMARK  Name = 
REMARK  7 active torsions:
REMARK  status: ('A' for Active; 'I' for Inactive)
REMARK    1  A    between atoms: C_1  and  C_2
REMARK    2  A    between atoms: C_2  and  N_3
REMARK    3  A    between atoms: C_2  and  C_17
REMARK    4  A    between atoms: C_4  and  C_6
REMARK    5  A    between atoms: N_12  and  C_13
REMARK    6  A    between atoms: C_20  and  O_21
REMARK    7  A    between atoms: O_21  and  C_22
REMARK                            x       y       z     vdW  Elec       q    Type
REMARK                         _______ _______ _______ _____ _____    ______ ____
ROOT
ATOM      1  C   UNL     1      47.186   8.104  12.293  0.00  0.00    +0.000 C 
ATOM      2  C   UNL     1      46.067   7.147  12.715  0.00  0.00    +0.000 C 
ENDROOT
BRANCH   2   3
ATOM      3  C   UNL     1      45.680   6.122  11.659  0.00  0.00    +0.000 A 
ATOM      4  C   UNL     1      44.956   4.988  12.067  0.00  0.00    +0.000 A 
ATOM      5  C   UNL     1      44.605   3.992  11.156  0.00  0.00    +0.000 A 
ATOM      6  C   UNL     1      44.920   4.136   9.804  0.00  0.00    +0.000 A 
ATOM      7  C   UNL     1      45.691   5.223   9.395  0.00  0.00    +0.000 A 
ATOM      8  C   UNL     1      46.077   6.204  10.316  0.00  0.00    +0.000 A 
BRANCH   6   9
ATOM      9  O   UNL     1      44.560   3.235   8.827  0.00  0.00    +0.000 OA
BRANCH   9  10
ATOM     10  C   UNL     1      45.534   2.685   8.019  0.00  0.00    +0.000 A 
ATOM     11  C   UNL     1      46.147   1.451   8.256  0.00  0.00    +0.000 A 
ATOM     12  C   UNL     1      47.169   1.001   7.420  0.00  0.00    +0.000 A 
ATOM     13  C   UNL     1      47.537   1.751   6.305  0.00  0.00    +0.000 A 
ATOM     14  C   UNL     1      46.875   2.945   6.021  0.00  0.00    +0.000 A 
ATOM     15  C   UNL     1      45.874   3.412   6.877  0.00  0.00    +0.000 A 
ENDBRANCH   9  10
ENDBRANCH   6   9
ENDBRANCH   2   3
BRANCH   2  16
ATOM     16  N   UNL     1      46.418   6.453  13.940  0.00  0.00    +0.000 N 
ATOM     17  C   UNL     1      47.657   5.910  14.157  0.00  0.00    +0.000 C 
ATOM     18  O   UNL     1      48.544   5.947  13.309  0.00  0.00    +0.000 OA
ATOM     19  H   UNL     1      45.767   6.538  14.715  0.00  0.00    +0.000 HD
BRANCH  17  20
ATOM     20  C   UNL     1      47.857   5.226  15.442  0.00  0.00    +0.000 A 
ATOM     21  C   UNL     1      47.220   4.014  15.676  0.00  0.00    +0.000 A 
ATOM     22  S   UNL     1      47.527   3.367  17.222  0.00  0.00    +0.000 S 
ATOM     23  C   UNL     1      48.557   4.663  17.618  0.00  0.00    +0.000 A 
ATOM     24  N   UNL     1      49.186   4.705  18.822  0.00  0.00    +0.000 NA
ATOM     25  C   UNL     1      49.953   5.736  18.988  0.00  0.00    +0.000 A 
ATOM     26  N   UNL     1      50.158   6.735  18.062  0.00  0.00    +0.000 N 
ATOM     27  C   UNL     1      51.031   7.855  18.362  0.00  0.00    +0.000 C 
ATOM     28  C   UNL     1      49.509   6.731  16.828  0.00  0.00    +0.000 A 
ATOM     29  O   UNL     1      49.635   7.641  16.015  0.00  0.00    +0.000 OA
ATOM     30  C   UNL     1      48.647   5.587  16.597  0.00  0.00    +0.000 A 
ENDBRANCH  17  20
ENDBRANCH   2  16
TORSDOF 5
ENDMDL
MODEL 2
REMARK VINA RESULT:    -8.363      1.782      2.591
REMARK INTER + INTRA:         -10.944
REMARK INTER:                 -11.121
REMARK INTRA:                   0.176
REMARK UNBOUND:                -0.137
REMARK  Name = 
REMARK  7 active torsions:
REMARK  status: ('A' for Active; 'I' for Inactive)
REMARK    1  A    between atoms: C_1  and  C_2
REMARK    2  A    between atoms: C_2  and  N_3
REMARK    3  A    between atoms: C_2  and  C_17
REMARK    4  A    between atoms: C_4  and  C_6
REMARK    5  A    between atoms: N_12  and  C_13
REMARK    6  A    between atoms: C_20  and  O_21
REMARK    7  A    between atoms: O_21  and  C_22
REMARK                            x       y       z     vdW  Elec       q    Type
REMARK                         _______ _______ _______ _____ _____    ______ ____
ROOT
ATOM      1  C   UNL     1      44.696   7.889  12.016  0.00  0.00    +0.000 C 
ATOM      2  C   UNL     1      44.796   6.549  12.749  0.00  0.00    +0.000 C 
ENDROOT
BRANCH   2   3
ATOM      3  C   UNL     1      44.881   5.334  11.836  0.00  0.00    +0.000 A 
ATOM      4  C   UNL     1      45.003   5.550  10.452  0.00  0.00    +0.000 A 
ATOM      5  C   UNL     1      45.045   4.480   9.558  0.00  0.00    +0.000 A 
ATOM      6  C   UNL     1      45.026   3.168  10.033  0.00  0.00    +0.000 A 
ATOM      7  C   UNL     1      44.844   2.938  11.396  0.00  0.00    +0.000 A 
ATOM      8  C   UNL     1      44.762   4.012  12.291  0.00  0.00    +0.000 A 
BRANCH   6   9
ATOM      9  O   UNL     1      45.126   2.054   9.229  0.00  0.00    +0.000 OA
BRANCH   9  10
ATOM     10  C   UNL     1      45.933   2.094   8.111  0.00  0.00    +0.000 A 
ATOM     11  C   UNL     1      46.841   1.090   7.762  0.00  0.00    +0.000 A 
ATOM     12  C   UNL     1      47.665   1.243   6.647  0.00  0.00    +0.000 A 
ATOM     13  C   UNL     1      47.537   2.370   5.837  0.00  0.00    +0.000 A 
ATOM     14  C   UNL     1      46.579   3.337   6.138  0.00  0.00    +0.000 A 
ATOM     15  C   UNL     1      45.778   3.200   7.274  0.00  0.00    +0.000 A 
ENDBRANCH   9  10
ENDBRANCH   6   9
ENDBRANCH   2   3
BRANCH   2  16
ATOM     16  N   UNL     1      45.930   6.539  13.653  0.00  0.00    +0.000 N 
ATOM     17  C   UNL     1      47.214   6.781  13.237  0.00  0.00    +0.000 C 
ATOM     18  O   UNL     1      47.490   6.989  12.059  0.00  0.00    +0.000 OA
ATOM     19  H   UNL     1      45.722   6.526  14.647  0.00  0.00    +0.000 HD
BRANCH  17  20
ATOM     20  C   UNL     1      48.259   6.724  14.268  0.00  0.00    +0.000 A 
ATOM     21  C   UNL     1      49.275   7.671  14.262  0.00  0.00    +0.000 A 
ATOM     22  S   UNL     1      50.425   7.447  15.501  0.00  0.00    +0.000 S 
ATOM     23  C   UNL     1      49.581   6.103  16.115  0.00  0.00    +0.000 A 
ATOM     24  N   UNL     1      50.029   5.448  17.217  0.00  0.00    +0.000 NA
ATOM     25  C   UNL     1      49.284   4.455  17.588  0.00  0.00    +0.000 A 
ATOM     26  N   UNL     1      48.126   4.049  16.964  0.00  0.00    +0.000 N 
ATOM     27  C   UNL     1      47.377   2.910  17.460  0.00  0.00    +0.000 C 
ATOM     28  C   UNL     1      47.653   4.688  15.818  0.00  0.00    +0.000 A 
ATOM     29  O   UNL     1      46.654   4.305  15.216  0.00  0.00    +0.000 OA
ATOM     30  C   UNL     1      48.453   5.814  15.374  0.00  0.00    +0.000 A 
ENDBRANCH  17  20
ENDBRANCH   2  16
TORSDOF 5
ENDMDL
MODEL 3
REMARK VINA RESULT:    -8.317      1.970      3.019
REMARK INTER + INTRA:         -10.884
REMARK INTER:                  -9.555
REMARK INTRA:                  -1.329
REMARK UNBOUND:                -0.137
REMARK  Name = 
REMARK  7 active torsions:
REMARK  status: ('A' for Active; 'I' for Inactive)
REMARK    1  A    between atoms: C_1  and  C_2
REMARK    2  A    between atoms: C_2  and  N_3
REMARK    3  A    between atoms: C_2  and  C_17
REMARK    4  A    between atoms: C_4  and  C_6
REMARK    5  A    between atoms: N_12  and  C_13
REMARK    6  A    between atoms: C_20  and  O_21
REMARK    7  A    between atoms: O_21  and  C_22
REMARK                            x       y       z     vdW  Elec       q    Type
REMARK                         _______ _______ _______ _____ _____    ______ ____
ROOT
ATOM      1  C   UNL     1      47.681   9.516  12.795  0.00  0.00    +0.000 C 
ATOM      2  C   UNL     1      47.107   8.371  13.634  0.00  0.00    +0.000 C 
ENDROOT
BRANCH   2   3
ATOM      3  C   UNL     1      46.299   7.352  12.844  0.00  0.00    +0.000 A 
ATOM      4  C   UNL     1      45.233   7.816  12.054  0.00  0.00    +0.000 A 
ATOM      5  C   UNL     1      44.429   6.930  11.337  0.00  0.00    +0.000 A 
ATOM      6  C   UNL     1      44.710   5.563  11.347  0.00  0.00    +0.000 A 
ATOM      7  C   UNL     1      45.725   5.081  12.173  0.00  0.00    +0.000 A 
ATOM      8  C   UNL     1      46.508   5.966  12.924  0.00  0.00    +0.000 A 
BRANCH   6   9
ATOM      9  O   UNL     1      44.010   4.625  10.622  0.00  0.00    +0.000 OA
BRANCH   9  10
ATOM     10  C   UNL     1      44.676   3.847   9.698  0.00  0.00    +0.000 A 
ATOM     11  C   UNL     1      44.629   2.450   9.670  0.00  0.00    +0.000 A 
ATOM     12  C   UNL     1      45.386   1.739   8.737  0.00  0.00    +0.000 A 
ATOM     13  C   UNL     1      46.140   2.423   7.787  0.00  0.00    +0.000 A 
ATOM     14  C   UNL     1      46.129   3.818   7.763  0.00  0.00    +0.000 A 
ATOM     15  C   UNL     1      45.397   4.529   8.717  0.00  0.00    +0.000 A 
ENDBRANCH   9  10
ENDBRANCH   6   9
ENDBRANCH   2   3
BRANCH   2  16
ATOM     16  N   UNL     1      48.160   7.682  14.355  0.00  0.00    +0.000 N 
ATOM     17  C   UNL     1      48.643   8.118  15.561  0.00  0.00    +0.000 C 
ATOM     18  O   UNL     1      48.235   9.145  16.095  0.00  0.00    +0.000 OA
ATOM     19  H   UNL     1      48.409   6.754  14.023  0.00  0.00    +0.000 HD
BRANCH  17  20
ATOM     20  C   UNL     1      49.721   7.320  16.163  0.00  0.00    +0.000 A 
ATOM     21  C   UNL     1      50.972   7.895  16.349  0.00  0.00    +0.000 A 
ATOM     22  S   UNL     1      52.118   6.831  17.025  0.00  0.00    +0.000 S 
ATOM     23  C   UNL     1      50.972   5.578  17.133  0.00  0.00    +0.000 A 
ATOM     24  N   UNL     1      51.309   4.374  17.664  0.00  0.00    +0.000 NA
ATOM     25  C   UNL     1      50.339   3.516  17.703  0.00  0.00    +0.000 A 
ATOM     26  N   UNL     1      49.054   3.745  17.262  0.00  0.00    +0.000 N 
ATOM     27  C   UNL     1      48.048   2.702  17.341  0.00  0.00    +0.000 C 
ATOM     28  C   UNL     1      48.683   4.963  16.693  0.00  0.00    +0.000 A 
ATOM     29  O   UNL     1      47.559   5.164  16.243  0.00  0.00    +0.000 OA
ATOM     30  C   UNL     1      49.740   5.956  16.640  0.00  0.00    +0.000 A 
ENDBRANCH  17  20
ENDBRANCH   2  16
TORSDOF 5
ENDMDL
MODEL 4
REMARK VINA RESULT:    -8.128      2.030      3.096
REMARK INTER + INTRA:         -10.641
REMARK INTER:                  -9.555
REMARK INTRA:                  -1.085
REMARK UNBOUND:                -0.137
REMARK  Name = 
REMARK  7 active torsions:
REMARK  status: ('A' for Active; 'I' for Inactive)
REMARK    1  A    between atoms: C_1  and  C_2
REMARK    2  A    between atoms: C_2  and  N_3
REMARK    3  A    between atoms: C_2  and  C_17
REMARK    4  A    between atoms: C_4  and  C_6
REMARK    5  A    between atoms: N_12  and  C_13
REMARK    6  A    between atoms: C_20  and  O_21
REMARK    7  A    between atoms: O_21  and  C_22
REMARK                            x       y       z     vdW  Elec       q    Type
REMARK                         _______ _______ _______ _____ _____    ______ ____
ROOT
ATOM      1  C   UNL     1      49.664   7.875  13.298  0.00  0.00    +0.000 C 
ATOM      2  C   UNL     1      48.221   7.995  13.795  0.00  0.00    +0.000 C 
ENDROOT
BRANCH   2   3
ATOM      3  C   UNL     1      47.212   7.169  13.011  0.00  0.00    +0.000 A 
ATOM      4  C   UNL     1      46.336   7.841  12.141  0.00  0.00    +0.000 A 
ATOM      5  C   UNL     1      45.361   7.148  11.424  0.00  0.00    +0.000 A 
ATOM      6  C   UNL     1      45.279   5.758  11.515  0.00  0.00    +0.000 A 
ATOM      7  C   UNL     1      46.100   5.084  12.419  0.00  0.00    +0.000 A 
ATOM      8  C   UNL     1      47.052   5.784  13.169  0.00  0.00    +0.000 A 
BRANCH   6   9
ATOM      9  O   UNL     1      44.392   4.987  10.798  0.00  0.00    +0.000 OA
BRANCH   9  10
ATOM     10  C   UNL     1      44.871   4.102   9.854  0.00  0.00    +0.000 A 
ATOM     11  C   UNL     1      44.648   2.721   9.888  0.00  0.00    +0.000 A 
ATOM     12  C   UNL     1      45.224   1.892   8.926  0.00  0.00    +0.000 A 
ATOM     13  C   UNL     1      45.970   2.445   7.888  0.00  0.00    +0.000 A 
ATOM     14  C   UNL     1      46.131   3.828   7.806  0.00  0.00    +0.000 A 
ATOM     15  C   UNL     1      45.581   4.656   8.788  0.00  0.00    +0.000 A 
ENDBRANCH   9  10
ENDBRANCH   6   9
ENDBRANCH   2   3
BRANCH   2  16
ATOM     16  N   UNL     1      48.128   7.643  15.199  0.00  0.00    +0.000 N 
ATOM     17  C   UNL     1      48.556   8.472  16.203  0.00  0.00    +0.000 C 
ATOM     18  O   UNL     1      49.078   9.559  15.974  0.00  0.00    +0.000 OA
ATOM     19  H   UNL     1      47.565   6.829  15.430  0.00  0.00    +0.000 HD
BRANCH  17  20
ATOM     20  C   UNL     1      48.408   7.970  17.576  0.00  0.00    +0.000 A 
ATOM     21  C   UNL     1      48.003   8.840  18.580  0.00  0.00    +0.000 A 
ATOM     22  S   UNL     1      47.912   8.113  20.119  0.00  0.00    +0.000 S 
ATOM     23  C   UNL     1      48.370   6.599  19.490  0.00  0.00    +0.000 A 
ATOM     24  N   UNL     1      48.458   5.510  20.298  0.00  0.00    +0.000 NA
ATOM     25  C   UNL     1      48.800   4.419  19.689  0.00  0.00    +0.000 A 
ATOM     26  N   UNL     1      49.062   4.306  18.342  0.00  0.00    +0.000 N 
ATOM     27  C   UNL     1      49.452   3.032  17.768  0.00  0.00    +0.000 C 
ATOM     28  C   UNL     1      49.001   5.409  17.491  0.00  0.00    +0.000 A 
ATOM     29  O   UNL     1      49.286   5.339  16.299  0.00  0.00    +0.000 OA
ATOM     30  C   UNL     1      48.611   6.651  18.132  0.00  0.00    +0.000 A 
ENDBRANCH  17  20
ENDBRANCH   2  16
TORSDOF 5
ENDMDL
MODEL 5
REMARK VINA RESULT:    -7.974      2.870      3.859
REMARK INTER + INTRA:         -10.442
REMARK INTER:                  -9.296
REMARK INTRA:                  -1.145
REMARK UNBOUND:                -0.137
REMARK  Name = 
REMARK  7 active torsions:
REMARK  status: ('A' for Active; 'I' for Inactive)
REMARK    1  A    between atoms: C_1  and  C_2
REMARK    2  A    between atoms: C_2  and  N_3
REMARK    3  A    between atoms: C_2  and  C_17
REMARK    4  A    between atoms: C_4  and  C_6
REMARK    5  A    between atoms: N_12  and  C_13
REMARK    6  A    between atoms: C_20  and  O_21
REMARK    7  A    between atoms: O_21  and  C_22
REMARK                            x       y       z     vdW  Elec       q    Type
REMARK                         _______ _______ _______ _____ _____    ______ ____
ROOT
ATOM      1  C   UNL     1      47.190   4.186  16.445  0.00  0.00    +0.000 C 
ATOM      2  C   UNL     1      47.715   4.888  15.190  0.00  0.00    +0.000 C 
ENDROOT
BRANCH   2   3
ATOM      3  C   UNL     1      46.884   4.647  13.937  0.00  0.00    +0.000 A 
ATOM      4  C   UNL     1      46.493   5.761  13.175  0.00  0.00    +0.000 A 
ATOM      5  C   UNL     1      45.697   5.612  12.039  0.00  0.00    +0.000 A 
ATOM      6  C   UNL     1      45.324   4.339  11.607  0.00  0.00    +0.000 A 
ATOM      7  C   UNL     1      45.652   3.230  12.385  0.00  0.00    +0.000 A 
ATOM      8  C   UNL     1      46.417   3.382  13.547  0.00  0.00    +0.000 A 
BRANCH   6   9
ATOM      9  O   UNL     1      44.593   4.095  10.465  0.00  0.00    +0.000 OA
BRANCH   9  10
ATOM     10  C   UNL     1      45.210   3.510   9.378  0.00  0.00    +0.000 A 
ATOM     11  C   UNL     1      45.286   2.129   9.168  0.00  0.00    +0.000 A 
ATOM     12  C   UNL     1      45.985   1.622   8.073  0.00  0.00    +0.000 A 
ATOM     13  C   UNL     1      46.553   2.492   7.146  0.00  0.00    +0.000 A 
ATOM     14  C   UNL     1      46.414   3.870   7.310  0.00  0.00    +0.000 A 
ATOM     15  C   UNL     1      45.742   4.379   8.424  0.00  0.00    +0.000 A 
ENDBRANCH   9  10
ENDBRANCH   6   9
ENDBRANCH   2   3
BRANCH   2  16
ATOM     16  N   UNL     1      47.833   6.317  15.409  0.00  0.00    +0.000 N 
ATOM     17  C   UNL     1      49.036   6.939  15.621  0.00  0.00    +0.000 C 
ATOM     18  O   UNL     1      50.093   6.316  15.671  0.00  0.00    +0.000 OA
ATOM     19  H   UNL     1      47.007   6.878  15.221  0.00  0.00    +0.000 HD
BRANCH  17  20
ATOM     20  C   UNL     1      48.993   8.390  15.842  0.00  0.00    +0.000 A 
ATOM     21  C   UNL     1      49.456   9.245  14.850  0.00  0.00    +0.000 A 
ATOM     22  S   UNL     1      49.370  10.894  15.272  0.00  0.00    +0.000 S 
ATOM     23  C   UNL     1      48.670  10.526  16.780  0.00  0.00    +0.000 A 
ATOM     24  N   UNL     1      48.315  11.516  17.640  0.00  0.00    +0.000 NA
ATOM     25  C   UNL     1      47.779  11.099  18.742  0.00  0.00    +0.000 A 
ATOM     26  N   UNL     1      47.557   9.781  19.073  0.00  0.00    +0.000 N 
ATOM     27  C   UNL     1      46.960   9.428  20.347  0.00  0.00    +0.000 C 
ATOM     28  C   UNL     1      47.929   8.742  18.221  0.00  0.00    +0.000 A 
ATOM     29  O   UNL     1      47.791   7.560  18.524  0.00  0.00    +0.000 OA
ATOM     30  C   UNL     1      48.526   9.166  16.968  0.00  0.00    +0.000 A 
ENDBRANCH  17  20
ENDBRANCH   2  16
TORSDOF 5
ENDMDL
MODEL 6
REMARK VINA RESULT:    -7.827      4.390      7.668
REMARK INTER + INTRA:         -10.251
REMARK INTER:                  -8.979
REMARK INTRA:                  -1.272
REMARK UNBOUND:                -0.137
REMARK  Name = 
REMARK  7 active torsions:
REMARK  status: ('A' for Active; 'I' for Inactive)
REMARK    1  A    between atoms: C_1  and  C_2
REMARK    2  A    between atoms: C_2  and  N_3
REMARK    3  A    between atoms: C_2  and  C_17
REMARK    4  A    between atoms: C_4  and  C_6
REMARK    5  A    between atoms: N_12  and  C_13
REMARK    6  A    between atoms: C_20  and  O_21
REMARK    7  A    between atoms: O_21  and  C_22
REMARK                            x       y       z     vdW  Elec       q    Type
REMARK                         _______ _______ _______ _____ _____    ______ ____
ROOT
ATOM      1  C   UNL     1      46.384   8.730  13.611  0.00  0.00    +0.000 C 
ATOM      2  C   UNL     1      46.722   8.305  12.179  0.00  0.00    +0.000 C 
ENDROOT
BRANCH   2   3
ATOM      3  C   UNL     1      48.204   8.357  11.837  0.00  0.00    +0.000 A 
ATOM      4  C   UNL     1      48.969   7.192  12.018  0.00  0.00    +0.000 A 
ATOM      5  C   UNL     1      50.340   7.185  11.762  0.00  0.00    +0.000 A 
ATOM      6  C   UNL     1      50.967   8.328  11.262  0.00  0.00    +0.000 A 
ATOM      7  C   UNL     1      50.234   9.507  11.136  0.00  0.00    +0.000 A 
ATOM      8  C   UNL     1      48.866   9.526  11.430  0.00  0.00    +0.000 A 
BRANCH   6   9
ATOM      9  O   UNL     1      52.300   8.392  10.923  0.00  0.00    +0.000 OA
BRANCH   9  10
ATOM     10  C   UNL     1      52.821   7.468  10.041  0.00  0.00    +0.000 A 
ATOM     11  C   UNL     1      52.471   7.391   8.689  0.00  0.00    +0.000 A 
ATOM     12  C   UNL     1      53.000   6.383   7.882  0.00  0.00    +0.000 A 
ATOM     13  C   UNL     1      53.931   5.490   8.406  0.00  0.00    +0.000 A 
ATOM     14  C   UNL     1      54.341   5.611   9.733  0.00  0.00    +0.000 A 
ATOM     15  C   UNL     1      53.787   6.599  10.550  0.00  0.00    +0.000 A 
ENDBRANCH   9  10
ENDBRANCH   6   9
ENDBRANCH   2   3
BRANCH   2  16
ATOM     16  N   UNL     1      46.222   6.972  11.905  0.00  0.00    +0.000 N 
ATOM     17  C   UNL     1      44.936   6.730  11.495  0.00  0.00    +0.000 C 
ATOM     18  O   UNL     1      44.113   7.630  11.366  0.00  0.00    +0.000 OA
ATOM     19  H   UNL     1      46.911   6.227  11.852  0.00  0.00    +0.000 HD
BRANCH  17  20
ATOM     20  C   UNL     1      44.573   5.324  11.271  0.00  0.00    +0.000 A 
ATOM     21  C   UNL     1      43.755   4.676  12.188  0.00  0.00    +0.000 A 
ATOM     22  S   UNL     1      43.455   3.044  11.802  0.00  0.00    +0.000 S 
ATOM     23  C   UNL     1      44.373   3.156  10.374  0.00  0.00    +0.000 A 
ATOM     24  N   UNL     1      44.499   2.088   9.544  0.00  0.00    +0.000 NA
ATOM     25  C   UNL     1      45.209   2.314   8.485  0.00  0.00    +0.000 A 
ATOM     26  N   UNL     1      45.809   3.512   8.168  0.00  0.00    +0.000 N 
ATOM     27  C   UNL     1      46.597   3.649   6.957  0.00  0.00    +0.000 C 
ATOM     28  C   UNL     1      45.716   4.621   9.010  0.00  0.00    +0.000 A 
ATOM     29  O   UNL     1      46.291   5.678   8.771  0.00  0.00    +0.000 OA
ATOM     30  C   UNL     1      44.920   4.412  10.204  0.00  0.00    +0.000 A 
ENDBRANCH  17  20
ENDBRANCH   2  16
TORSDOF 5
ENDMDL
MODEL 7
REMARK VINA RESULT:    -7.777      2.695      4.328
REMARK INTER + INTRA:         -10.186
REMARK INTER:                  -8.934
REMARK INTRA:                  -1.252
REMARK UNBOUND:                -0.137
REMARK  Name = 
REMARK  7 active torsions:
REMARK  status: ('A' for Active; 'I' for Inactive)
REMARK    1  A    between atoms: C_1  and  C_2
REMARK    2  A    between atoms: C_2  and  N_3
REMARK    3  A    between atoms: C_2  and  C_17
REMARK    4  A    between atoms: C_4  and  C_6
REMARK    5  A    between atoms: N_12  and  C_13
REMARK    6  A    between atoms: C_20  and  O_21
REMARK    7  A    between atoms: O_21  and  C_22
REMARK                            x       y       z     vdW  Elec       q    Type
REMARK                         _______ _______ _______ _____ _____    ______ ____
ROOT
ATOM      1  C   UNL     1      46.885   4.259  16.600  0.00  0.00    +0.000 C 
ATOM      2  C   UNL     1      47.558   4.760  15.319  0.00  0.00    +0.000 C 
ENDROOT
BRANCH   2   3
ATOM      3  C   UNL     1      46.747   4.539  14.050  0.00  0.00    +0.000 A 
ATOM      4  C   UNL     1      46.148   5.655  13.442  0.00  0.00    +0.000 A 
ATOM      5  C   UNL     1      45.358   5.515  12.301  0.00  0.00    +0.000 A 
ATOM      6  C   UNL     1      45.198   4.262  11.708  0.00  0.00    +0.000 A 
ATOM      7  C   UNL     1      45.734   3.138  12.334  0.00  0.00    +0.000 A 
ATOM      8  C   UNL     1      46.494   3.272  13.502  0.00  0.00    +0.000 A 
BRANCH   6   9
ATOM      9  O   UNL     1      44.489   4.041  10.548  0.00  0.00    +0.000 OA
BRANCH   9  10
ATOM     10  C   UNL     1      45.118   3.452   9.471  0.00  0.00    +0.000 A 
ATOM     11  C   UNL     1      45.173   2.072   9.253  0.00  0.00    +0.000 A 
ATOM     12  C   UNL     1      45.887   1.559   8.169  0.00  0.00    +0.000 A 
ATOM     13  C   UNL     1      46.491   2.426   7.261  0.00  0.00    +0.000 A 
ATOM     14  C   UNL     1      46.373   3.805   7.432  0.00  0.00    +0.000 A 
ATOM     15  C   UNL     1      45.687   4.318   8.536  0.00  0.00    +0.000 A 
ENDBRANCH   9  10
ENDBRANCH   6   9
ENDBRANCH   2   3
BRANCH   2  16
ATOM     16  N   UNL     1      47.889   6.168  15.427  0.00  0.00    +0.000 N 
ATOM     17  C   UNL     1      49.107   6.613  15.871  0.00  0.00    +0.000 C 
ATOM     18  O   UNL     1      49.989   5.843  16.239  0.00  0.00    +0.000 OA
ATOM     19  H   UNL     1      47.248   6.823  14.989  0.00  0.00    +0.000 HD
BRANCH  17  20
ATOM     20  C   UNL     1      49.288   8.070  15.939  0.00  0.00    +0.000 A 
ATOM     21  C   UNL     1      49.586   8.664  17.158  0.00  0.00    +0.000 A 
ATOM     22  S   UNL     1      49.731  10.360  17.075  0.00  0.00    +0.000 S 
ATOM     23  C   UNL     1      49.444  10.356  15.397  0.00  0.00    +0.000 A 
ATOM     24  N   UNL     1      49.460  11.515  14.688  0.00  0.00    +0.000 NA
ATOM     25  C   UNL     1      49.244  11.368  13.420  0.00  0.00    +0.000 A 
ATOM     26  N   UNL     1      49.014  10.169  12.783  0.00  0.00    +0.000 N 
ATOM     27  C   UNL     1      48.768  10.124  11.354  0.00  0.00    +0.000 C 
ATOM     28  C   UNL     1      48.969   8.966  13.487  0.00  0.00    +0.000 A 
ATOM     29  O   UNL     1      48.709   7.895  12.945  0.00  0.00    +0.000 OA
ATOM     30  C   UNL     1      49.217   9.084  14.911  0.00  0.00    +0.000 A 
ENDBRANCH  17  20
ENDBRANCH   2  16
TORSDOF 5
ENDMDL
MODEL 8
REMARK VINA RESULT:    -7.475      2.163      3.042
REMARK INTER + INTRA:          -9.797
REMARK INTER:                  -8.449
REMARK INTRA:                  -1.348
REMARK UNBOUND:                -0.137
REMARK  Name = 
REMARK  7 active torsions:
REMARK  status: ('A' for Active; 'I' for Inactive)
REMARK    1  A    between atoms: C_1  and  C_2
REMARK    2  A    between atoms: C_2  and  N_3
REMARK    3  A    between atoms: C_2  and  C_17
REMARK    4  A    between atoms: C_4  and  C_6
REMARK    5  A    between atoms: N_12  and  C_13
REMARK    6  A    between atoms: C_20  and  O_21
REMARK    7  A    between atoms: O_21  and  C_22
REMARK                            x       y       z     vdW  Elec       q    Type
REMARK                         _______ _______ _______ _____ _____    ______ ____
ROOT
ATOM      1  C   UNL     1      49.357   8.841  12.677  0.00  0.00    +0.000 C 
ATOM      2  C   UNL     1      48.352   8.150  13.604  0.00  0.00    +0.000 C 
ENDROOT
BRANCH   2   3
ATOM      3  C   UNL     1      47.284   7.338  12.885  0.00  0.00    +0.000 A 
ATOM      4  C   UNL     1      46.313   8.029  12.141  0.00  0.00    +0.000 A 
ATOM      5  C   UNL     1      45.283   7.347  11.492  0.00  0.00    +0.000 A 
ATOM      6  C   UNL     1      45.236   5.953  11.525  0.00  0.00    +0.000 A 
ATOM      7  C   UNL     1      46.156   5.257  12.308  0.00  0.00    +0.000 A 
ATOM      8  C   UNL     1      47.167   5.944  12.992  0.00  0.00    +0.000 A 
BRANCH   6   9
ATOM      9  O   UNL     1      44.295   5.196  10.863  0.00  0.00    +0.000 OA
BRANCH   9  10
ATOM     10  C   UNL     1      44.707   4.244   9.953  0.00  0.00    +0.000 A 
ATOM     11  C   UNL     1      44.395   2.884  10.045  0.00  0.00    +0.000 A 
ATOM     12  C   UNL     1      44.908   1.981   9.114  0.00  0.00    +0.000 A 
ATOM     13  C   UNL     1      45.679   2.441   8.049  0.00  0.00    +0.000 A 
ATOM     14  C   UNL     1      45.929   3.806   7.911  0.00  0.00    +0.000 A 
ATOM     15  C   UNL     1      45.443   4.707   8.862  0.00  0.00    +0.000 A 
ENDBRANCH   9  10
ENDBRANCH   6   9
ENDBRANCH   2   3
BRANCH   2  16
ATOM     16  N   UNL     1      49.034   7.294  14.556  0.00  0.00    +0.000 N 
ATOM     17  C   UNL     1      48.950   7.477  15.911  0.00  0.00    +0.000 C 
ATOM     18  O   UNL     1      48.316   8.403  16.407  0.00  0.00    +0.000 OA
ATOM     19  H   UNL     1      49.435   6.434  14.192  0.00  0.00    +0.000 HD
BRANCH  17  20
ATOM     20  C   UNL     1      49.708   6.536  16.748  0.00  0.00    +0.000 A 
ATOM     21  C   UNL     1      49.035   5.757  17.680  0.00  0.00    +0.000 A 
ATOM     22  S   UNL     1      50.058   4.744  18.592  0.00  0.00    +0.000 S 
ATOM     23  C   UNL     1      51.432   5.278  17.742  0.00  0.00    +0.000 A 
ATOM     24  N   UNL     1      52.661   4.770  18.021  0.00  0.00    +0.000 NA
ATOM     25  C   UNL     1      53.617   5.250  17.291  0.00  0.00    +0.000 A 
ATOM     26  N   UNL     1      53.466   6.194  16.299  0.00  0.00    +0.000 N 
ATOM     27  C   UNL     1      54.613   6.672  15.551  0.00  0.00    +0.000 C 
ATOM     28  C   UNL     1      52.222   6.751  16.005  0.00  0.00    +0.000 A 
ATOM     29  O   UNL     1      52.078   7.634  15.165  0.00  0.00    +0.000 OA
ATOM     30  C   UNL     1      51.120   6.232  16.795  0.00  0.00    +0.000 A 
ENDBRANCH  17  20
ENDBRANCH   2  16
TORSDOF 5
ENDMDL
MODEL 9
REMARK VINA RESULT:    -7.194      3.912      9.469
REMARK INTER + INTRA:          -9.433
REMARK INTER:                  -9.303
REMARK INTRA:                  -0.131
REMARK UNBOUND:                -0.137
REMARK  Name = 
REMARK  7 active torsions:
REMARK  status: ('A' for Active; 'I' for Inactive)
REMARK    1  A    between atoms: C_1  and  C_2
REMARK    2  A    between atoms: C_2  and  N_3
REMARK    3  A    between atoms: C_2  and  C_17
REMARK    4  A    between atoms: C_4  and  C_6
REMARK    5  A    between atoms: N_12  and  C_13
REMARK    6  A    between atoms: C_20  and  O_21
REMARK    7  A    between atoms: O_21  and  C_22
REMARK                            x       y       z     vdW  Elec       q    Type
REMARK                         _______ _______ _______ _____ _____    ______ ____
ROOT
ATOM      1  C   UNL     1      47.119   2.904  17.434  0.00  0.00    +0.000 C 
ATOM      2  C   UNL     1      47.837   4.255  17.389  0.00  0.00    +0.000 C 
ENDROOT
BRANCH   2   3
ATOM      3  C   UNL     1      49.354   4.167  17.476  0.00  0.00    +0.000 A 
ATOM      4  C   UNL     1      49.948   2.893  17.467  0.00  0.00    +0.000 A 
ATOM      5  C   UNL     1      51.329   2.742  17.585  0.00  0.00    +0.000 A 
ATOM      6  C   UNL     1      52.154   3.866  17.655  0.00  0.00    +0.000 A 
ATOM      7  C   UNL     1      51.577   5.133  17.727  0.00  0.00    +0.000 A 
ATOM      8  C   UNL     1      50.187   5.283  17.649  0.00  0.00    +0.000 A 
BRANCH   6   9
ATOM      9  O   UNL     1      53.529   3.812  17.710  0.00  0.00    +0.000 OA
BRANCH   9  10
ATOM     10  C   UNL     1      54.146   2.658  18.148  0.00  0.00    +0.000 A 
ATOM     11  C   UNL     1      54.514   1.600  17.312  0.00  0.00    +0.000 A 
ATOM     12  C   UNL     1      55.077   0.442  17.849  0.00  0.00    +0.000 A 
ATOM     13  C   UNL     1      55.336   0.364  19.216  0.00  0.00    +0.000 A 
ATOM     14  C   UNL     1      55.041   1.448  20.043  0.00  0.00    +0.000 A 
ATOM     15  C   UNL     1      54.448   2.594  19.509  0.00  0.00    +0.000 A 
ENDBRANCH   9  10
ENDBRANCH   6   9
ENDBRANCH   2   3
BRANCH   2  16
ATOM     16  N   UNL     1      47.476   4.992  16.193  0.00  0.00    +0.000 N 
ATOM     17  C   UNL     1      47.405   4.409  14.955  0.00  0.00    +0.000 C 
ATOM     18  O   UNL     1      47.677   3.226  14.774  0.00  0.00    +0.000 OA
ATOM     19  H   UNL     1      47.097   5.924  16.328  0.00  0.00    +0.000 HD
BRANCH  17  20
ATOM     20  C   UNL     1      47.038   5.288  13.837  0.00  0.00    +0.000 A 
ATOM     21  C   UNL     1      47.581   6.564  13.766  0.00  0.00    +0.000 A 
ATOM     22  S   UNL     1      47.031   7.468  12.430  0.00  0.00    +0.000 S 
ATOM     23  C   UNL     1      46.080   6.171  11.875  0.00  0.00    +0.000 A 
ATOM     24  N   UNL     1      45.357   6.281  10.730  0.00  0.00    +0.000 NA
ATOM     25  C   UNL     1      44.692   5.215  10.413  0.00  0.00    +0.000 A 
ATOM     26  N   UNL     1      44.680   4.040  11.131  0.00  0.00    +0.000 N 
ATOM     27  C   UNL     1      43.884   2.911  10.688  0.00  0.00    +0.000 C 
ATOM     28  C   UNL     1      45.394   3.904  12.321  0.00  0.00    +0.000 A 
ATOM     29  O   UNL     1      45.349   2.884  13.003  0.00  0.00    +0.000 OA
ATOM     30  C   UNL     1      46.161   5.073  12.708  0.00  0.00    +0.000 A 
ENDBRANCH  17  20
ENDBRANCH   2  16
TORSDOF 5
ENDMDL
