MODEL 1
REMARK VINA RESULT:    -8.090      0.000      0.000
REMARK INTER + INTRA:         -12.968
REMARK INTER:                 -12.109
REMARK INTRA:                  -0.859
REMARK UNBOUND:                -0.859
REMARK  Name = 
REMARK  10 active torsions:
REMARK  status: ('A' for Active; 'I' for Inactive)
REMARK    1  A    between atoms: C_1  and  C_2
REMARK    2  A    between atoms: C_2  and  N_3
REMARK    3  A    between atoms: C_2  and  C_19
REMARK    4  A    between atoms: N_3  and  C_4
REMARK    5  A    between atoms: C_4  and  C_5
REMARK    6  A    between atoms: C_8  and  C_9
REMARK    7  A    between atoms: C_9  and  O_10
REMARK    8  A    between atoms: C_9  and  C_11
REMARK    9  A    between atoms: C_11  and  N_12
REMARK   10  A    between atoms: C_19  and  C_21
REMARK                            x       y       z     vdW  Elec       q    Type
REMARK                         _______ _______ _______ _____ _____    ______ ____
ROOT
ATOM      1  N   UNL     1      47.807   5.521  15.462  0.00  0.00    +0.000 NA
ATOM      2  H   UNL     1      47.749   4.505  15.334  0.00  0.00    +0.000 HD
ENDROOT
BRANCH   1   4
ATOM      3  C   UNL     1      48.831   7.205  16.888  0.00  0.00    +0.000 C 
ATOM      4  C   UNL     1      49.008   5.815  16.284  0.00  0.00    +0.000 C 
BRANCH   4   5
ATOM      5  C   UNL     1      49.195   4.756  17.401  0.00  0.00    +0.000 C 
ATOM      6  O   UNL     1      48.220   4.269  17.976  0.00  0.00    +0.000 OA
BRANCH   5   7
ATOM      7  C   UNL     1      50.562   4.359  17.774  0.00  0.00    +0.000 A 
ATOM      8  C   UNL     1      51.472   5.229  18.351  0.00  0.00    +0.000 A 
ATOM      9  S   UNL     1      52.934   4.471  18.808  0.00  0.00    +0.000 S 
ATOM     10  C   UNL     1      52.399   2.962  18.229  0.00  0.00    +0.000 A 
ATOM     11  N   UNL     1      53.174   1.851  18.349  0.00  0.00    +0.000 NA
ATOM     12  C   UNL     1      52.634   0.778  17.872  0.00  0.00    +0.000 A 
ATOM     13  N   UNL     1      51.407   0.722  17.261  0.00  0.00    +0.000 N 
ATOM     14  C   UNL     1      50.650   1.845  17.003  0.00  0.00    +0.000 A 
ATOM     15  O   UNL     1      49.708   1.814  16.217  0.00  0.00    +0.000 OA
ATOM     16  C   UNL     1      51.151   3.048  17.643  0.00  0.00    +0.000 A 
ATOM     17  H   UNL     1      51.093  -0.135  16.829  0.00  0.00    +0.000 HD
ENDBRANCH   5   7
ENDBRANCH   4   5
ENDBRANCH   1   4
BRANCH   1  18
ATOM     18  C   UNL     1      47.913   6.141  14.144  0.00  0.00    +0.000 C 
BRANCH  18  19
ATOM     19  C   UNL     1      46.758   5.798  13.250  0.00  0.00    +0.000 A 
ATOM     20  C   UNL     1      46.585   6.386  11.992  0.00  0.00    +0.000 A 
ATOM     21  C   UNL     1      45.609   5.896  11.125  0.00  0.00    +0.000 A 
ATOM     22  C   UNL     1      44.828   4.826  11.549  0.00  0.00    +0.000 A 
ATOM     23  N   UNL     1      44.929   4.285  12.794  0.00  0.00    +0.000 NA
ATOM     24  C   UNL     1      45.882   4.783  13.609  0.00  0.00    +0.000 A 
BRANCH  22  25
ATOM     25  C   UNL     1      43.879   4.101  10.607  0.00  0.00    +0.000 C 
BRANCH  25  26
ATOM     26  O   UNL     1      42.696   3.785  11.356  0.00  0.00    +0.000 OA
ATOM     27  H   UNL     1      42.970   3.058  11.955  0.00  0.00    +0.000 HD
ENDBRANCH  25  26
BRANCH  25  28
ATOM     28  C   UNL     1      44.575   2.790  10.136  0.00  0.00    +0.000 C 
BRANCH  28  29
ATOM     29  N   UNL     1      44.619   2.418   8.706  0.00  0.00    +0.000 NA
ATOM     30  C   UNL     1      44.871   3.552   7.817  0.00  0.00    +0.000 C 
ATOM     31  C   UNL     1      46.365   3.544   7.547  0.00  0.00    +0.000 C 
ATOM     32  O   UNL     1      46.853   2.268   7.984  0.00  0.00    +0.000 OA
ATOM     33  C   UNL     1      45.715   1.517   8.388  0.00  0.00    +0.000 C 
ENDBRANCH  28  29
ENDBRANCH  25  28
ENDBRANCH  22  25
ENDBRANCH  18  19
ENDBRANCH   1  18
TORSDOF 9
ENDMDL
MODEL 2
REMARK VINA RESULT:    -7.740      3.022      3.672
REMARK INTER + INTRA:         -12.445
REMARK INTER:                 -10.907
REMARK INTRA:                  -1.538
REMARK UNBOUND:                -0.859
REMARK  Name = 
REMARK  10 active torsions:
REMARK  status: ('A' for Active; 'I' for Inactive)
REMARK    1  A    between atoms: C_1  and  C_2
REMARK    2  A    between atoms: C_2  and  N_3
REMARK    3  A    between atoms: C_2  and  C_19
REMARK    4  A    between atoms: N_3  and  C_4
REMARK    5  A    between atoms: C_4  and  C_5
REMARK    6  A    between atoms: C_8  and  C_9
REMARK    7  A    between atoms: C_9  and  O_10
REMARK    8  A    between atoms: C_9  and  C_11
REMARK    9  A    between atoms: C_11  and  N_12
REMARK   10  A    between atoms: C_19  and  C_21
REMARK                            x       y       z     vdW  Elec       q    Type
REMARK                         _______ _______ _______ _____ _____    ______ ____
ROOT
ATOM      1  N   UNL     1      46.648   8.344  13.801  0.00  0.00    +0.000 NA
ATOM      2  H   UNL     1      46.646   7.479  14.354  0.00  0.00    +0.000 HD
ENDROOT
BRANCH   1   4
ATOM      3  C   UNL     1      48.590   9.768  13.465  0.00  0.00    +0.000 C 
ATOM      4  C   UNL     1      47.948   8.436  13.091  0.00  0.00    +0.000 C 
BRANCH   4   5
ATOM      5  C   UNL     1      48.880   7.256  13.473  0.00  0.00    +0.000 C 
ATOM      6  O   UNL     1      49.520   6.655  12.609  0.00  0.00    +0.000 OA
BRANCH   5   7
ATOM      7  C   UNL     1      48.965   6.856  14.887  0.00  0.00    +0.000 A 
ATOM      8  C   UNL     1      49.712   7.546  15.825  0.00  0.00    +0.000 A 
ATOM      9  S   UNL     1      49.522   6.946  17.414  0.00  0.00    +0.000 S 
ATOM     10  C   UNL     1      48.450   5.733  16.888  0.00  0.00    +0.000 A 
ATOM     11  N   UNL     1      47.875   4.874  17.772  0.00  0.00    +0.000 NA
ATOM     12  C   UNL     1      47.079   4.013  17.230  0.00  0.00    +0.000 A 
ATOM     13  N   UNL     1      46.831   3.914  15.884  0.00  0.00    +0.000 N 
ATOM     14  C   UNL     1      47.491   4.677  14.945  0.00  0.00    +0.000 A 
ATOM     15  O   UNL     1      47.469   4.384  13.753  0.00  0.00    +0.000 OA
ATOM     16  C   UNL     1      48.287   5.748  15.517  0.00  0.00    +0.000 A 
ATOM     17  H   UNL     1      46.270   3.155  15.525  0.00  0.00    +0.000 HD
ENDBRANCH   5   7
ENDBRANCH   4   5
ENDBRANCH   1   4
BRANCH   1  18
ATOM     18  C   UNL     1      45.540   8.281  12.853  0.00  0.00    +0.000 C 
BRANCH  18  19
ATOM     19  C   UNL     1      45.264   6.884  12.378  0.00  0.00    +0.000 A 
ATOM     20  C   UNL     1      44.470   5.990  13.104  0.00  0.00    +0.000 A 
ATOM     21  C   UNL     1      44.090   4.776  12.532  0.00  0.00    +0.000 A 
ATOM     22  C   UNL     1      44.521   4.493  11.241  0.00  0.00    +0.000 A 
ATOM     23  N   UNL     1      45.352   5.315  10.542  0.00  0.00    +0.000 NA
ATOM     24  C   UNL     1      45.703   6.480  11.125  0.00  0.00    +0.000 A 
BRANCH  22  25
ATOM     25  C   UNL     1      43.999   3.295  10.464  0.00  0.00    +0.000 C 
BRANCH  25  26
ATOM     26  O   UNL     1      43.380   2.410  11.410  0.00  0.00    +0.000 OA
ATOM     27  H   UNL     1      43.331   1.547  10.946  0.00  0.00    +0.000 HD
ENDBRANCH  25  26
BRANCH  25  28
ATOM     28  C   UNL     1      45.214   2.588   9.793  0.00  0.00    +0.000 C 
BRANCH  28  29
ATOM     29  N   UNL     1      45.204   2.247   8.356  0.00  0.00    +0.000 NA
ATOM     30  C   UNL     1      45.256   3.417   7.479  0.00  0.00    +0.000 C 
ATOM     31  C   UNL     1      46.718   3.594   7.109  0.00  0.00    +0.000 C 
ATOM     32  O   UNL     1      47.385   2.379   7.482  0.00  0.00    +0.000 OA
ATOM     33  C   UNL     1      46.375   1.490   7.943  0.00  0.00    +0.000 C 
ENDBRANCH  28  29
ENDBRANCH  25  28
ENDBRANCH  22  25
ENDBRANCH  18  19
ENDBRANCH   1  18
TORSDOF 9
ENDMDL
MODEL 3
REMARK VINA RESULT:    -7.373      1.964      2.478
REMARK INTER + INTRA:         -11.895
REMARK INTER:                 -10.591
REMARK INTRA:                  -1.304
REMARK UNBOUND:                -0.859
REMARK  Name = 
REMARK  10 active torsions:
REMARK  status: ('A' for Active; 'I' for Inactive)
REMARK    1  A    between atoms: C_1  and  C_2
REMARK    2  A    between atoms: C_2  and  N_3
REMARK    3  A    between atoms: C_2  and  C_19
REMARK    4  A    between atoms: N_3  and  C_4
REMARK    5  A    between atoms: C_4  and  C_5
REMARK    6  A    between atoms: C_8  and  C_9
REMARK    7  A    between atoms: C_9  and  O_10
REMARK    8  A    between atoms: C_9  and  C_11
REMARK    9  A    between atoms: C_11  and  N_12
REMARK   10  A    between atoms: C_19  and  C_21
REMARK                            x       y       z     vdW  Elec       q    Type
REMARK                         _______ _______ _______ _____ _____    ______ ____
ROOT
ATOM      1  N   UNL     1      48.772   6.310  14.624  0.00  0.00    +0.000 NA
ATOM      2  H   UNL     1      49.587   6.041  14.062  0.00  0.00    +0.000 HD
ENDROOT
BRANCH   1   4
ATOM      3  C   UNL     1      48.647   8.579  15.490  0.00  0.00    +0.000 C 
ATOM      4  C   UNL     1      49.239   7.193  15.722  0.00  0.00    +0.000 C 
BRANCH   4   5
ATOM      5  C   UNL     1      48.806   6.641  17.106  0.00  0.00    +0.000 C 
ATOM      6  O   UNL     1      48.606   7.404  18.053  0.00  0.00    +0.000 OA
BRANCH   5   7
ATOM      7  C   UNL     1      48.662   5.186  17.270  0.00  0.00    +0.000 A 
ATOM      8  C   UNL     1      47.436   4.544  17.287  0.00  0.00    +0.000 A 
ATOM      9  S   UNL     1      47.566   2.841  17.351  0.00  0.00    +0.000 S 
ATOM     10  C   UNL     1      49.266   2.915  17.376  0.00  0.00    +0.000 A 
ATOM     11  N   UNL     1      50.016   1.781  17.393  0.00  0.00    +0.000 NA
ATOM     12  C   UNL     1      51.291   1.992  17.403  0.00  0.00    +0.000 A 
ATOM     13  N   UNL     1      51.881   3.231  17.429  0.00  0.00    +0.000 N 
ATOM     14  C   UNL     1      51.158   4.399  17.545  0.00  0.00    +0.000 A 
ATOM     15  O   UNL     1      51.699   5.458  17.849  0.00  0.00    +0.000 OA
ATOM     16  C   UNL     1      49.725   4.217  17.397  0.00  0.00    +0.000 A 
ATOM     17  H   UNL     1      52.882   3.316  17.531  0.00  0.00    +0.000 HD
ENDBRANCH   5   7
ENDBRANCH   4   5
ENDBRANCH   1   4
BRANCH   1  18
ATOM     18  C   UNL     1      47.831   7.013  13.755  0.00  0.00    +0.000 C 
BRANCH  18  19
ATOM     19  C   UNL     1      46.590   6.214  13.482  0.00  0.00    +0.000 A 
ATOM     20  C   UNL     1      45.450   6.779  12.901  0.00  0.00    +0.000 A 
ATOM     21  C   UNL     1      44.398   5.958  12.495  0.00  0.00    +0.000 A 
ATOM     22  C   UNL     1      44.521   4.587  12.687  0.00  0.00    +0.000 A 
ATOM     23  N   UNL     1      45.589   4.021  13.315  0.00  0.00    +0.000 NA
ATOM     24  C   UNL     1      46.588   4.843  13.697  0.00  0.00    +0.000 A 
BRANCH  22  25
ATOM     25  C   UNL     1      43.522   3.600  12.103  0.00  0.00    +0.000 C 
BRANCH  25  26
ATOM     26  O   UNL     1      43.789   2.321  12.698  0.00  0.00    +0.000 OA
ATOM     27  H   UNL     1      43.817   2.499  13.662  0.00  0.00    +0.000 HD
ENDBRANCH  25  26
BRANCH  25  28
ATOM     28  C   UNL     1      43.756   3.529  10.565  0.00  0.00    +0.000 C 
BRANCH  28  29
ATOM     29  N   UNL     1      45.116   3.400  10.002  0.00  0.00    +0.000 NA
ATOM     30  C   UNL     1      45.231   2.345   8.995  0.00  0.00    +0.000 C 
ATOM     31  C   UNL     1      45.076   3.035   7.651  0.00  0.00    +0.000 C 
ATOM     32  O   UNL     1      45.216   4.442   7.895  0.00  0.00    +0.000 OA
ATOM     33  C   UNL     1      45.543   4.583   9.272  0.00  0.00    +0.000 C 
ENDBRANCH  28  29
ENDBRANCH  25  28
ENDBRANCH  22  25
ENDBRANCH  18  19
ENDBRANCH   1  18
TORSDOF 9
ENDMDL
MODEL 4
REMARK VINA RESULT:    -7.201      3.495      9.192
REMARK INTER + INTRA:         -11.637
REMARK INTER:                 -10.365
REMARK INTRA:                  -1.272
REMARK UNBOUND:                -0.859
REMARK  Name = 
REMARK  10 active torsions:
REMARK  status: ('A' for Active; 'I' for Inactive)
REMARK    1  A    between atoms: C_1  and  C_2
REMARK    2  A    between atoms: C_2  and  N_3
REMARK    3  A    between atoms: C_2  and  C_19
REMARK    4  A    between atoms: N_3  and  C_4
REMARK    5  A    between atoms: C_4  and  C_5
REMARK    6  A    between atoms: C_8  and  C_9
REMARK    7  A    between atoms: C_9  and  O_10
REMARK    8  A    between atoms: C_9  and  C_11
REMARK    9  A    between atoms: C_11  and  N_12
REMARK   10  A    between atoms: C_19  and  C_21
REMARK                            x       y       z     vdW  Elec       q    Type
REMARK                         _______ _______ _______ _____ _____    ______ ____
ROOT
ATOM      1  N   UNL     1      46.529   6.727  12.154  0.00  0.00    +0.000 NA
ATOM      2  H   UNL     1      46.473   5.705  12.219  0.00  0.00    +0.000 HD
ENDROOT
BRANCH   1   4
ATOM      3  C   UNL     1      45.250   8.794  12.243  0.00  0.00    +0.000 C 
ATOM      4  C   UNL     1      45.185   7.284  12.449  0.00  0.00    +0.000 C 
BRANCH   4   5
ATOM      5  C   UNL     1      44.105   6.656  11.530  0.00  0.00    +0.000 C 
ATOM      6  O   UNL     1      43.285   7.367  10.945  0.00  0.00    +0.000 OA
BRANCH   5   7
ATOM      7  C   UNL     1      44.065   5.192  11.390  0.00  0.00    +0.000 A 
ATOM      8  C   UNL     1      43.431   4.361  12.298  0.00  0.00    +0.000 A 
ATOM      9  S   UNL     1      43.420   2.721  11.818  0.00  0.00    +0.000 S 
ATOM     10  C   UNL     1      44.278   3.072  10.391  0.00  0.00    +0.000 A 
ATOM     11  N   UNL     1      44.572   2.097   9.491  0.00  0.00    +0.000 NA
ATOM     12  C   UNL     1      45.220   2.513   8.454  0.00  0.00    +0.000 A 
ATOM     13  N   UNL     1      45.626   3.808   8.251  0.00  0.00    +0.000 N 
ATOM     14  C   UNL     1      45.463   4.798   9.196  0.00  0.00    +0.000 A 
ATOM     15  O   UNL     1      46.074   5.860   9.121  0.00  0.00    +0.000 OA
ATOM     16  C   UNL     1      44.620   4.408  10.312  0.00  0.00    +0.000 A 
ATOM     17  H   UNL     1      46.211   4.040   7.460  0.00  0.00    +0.000 HD
ENDBRANCH   5   7
ENDBRANCH   4   5
ENDBRANCH   1   4
BRANCH   1  18
ATOM     18  C   UNL     1      47.511   7.193  13.129  0.00  0.00    +0.000 C 
BRANCH  18  19
ATOM     19  C   UNL     1      47.817   6.164  14.178  0.00  0.00    +0.000 A 
ATOM     20  C   UNL     1      48.653   6.431  15.267  0.00  0.00    +0.000 A 
ATOM     21  C   UNL     1      48.753   5.508  16.308  0.00  0.00    +0.000 A 
ATOM     22  C   UNL     1      48.008   4.337  16.224  0.00  0.00    +0.000 A 
ATOM     23  N   UNL     1      47.244   4.023  15.142  0.00  0.00    +0.000 NA
ATOM     24  C   UNL     1      47.171   4.935  14.151  0.00  0.00    +0.000 A 
BRANCH  22  25
ATOM     25  C   UNL     1      47.899   3.369  17.392  0.00  0.00    +0.000 C 
BRANCH  25  26
ATOM     26  O   UNL     1      46.506   3.251  17.719  0.00  0.00    +0.000 OA
ATOM     27  H   UNL     1      46.364   2.289  17.851  0.00  0.00    +0.000 HD
ENDBRANCH  25  26
BRANCH  25  28
ATOM     28  C   UNL     1      48.677   3.975  18.596  0.00  0.00    +0.000 C 
BRANCH  28  29
ATOM     29  N   UNL     1      47.965   4.585  19.739  0.00  0.00    +0.000 NA
ATOM     30  C   UNL     1      48.753   4.604  20.972  0.00  0.00    +0.000 C 
ATOM     31  C   UNL     1      49.392   5.980  21.035  0.00  0.00    +0.000 C 
ATOM     32  O   UNL     1      48.712   6.792  20.067  0.00  0.00    +0.000 OA
ATOM     33  C   UNL     1      47.663   5.993  19.535  0.00  0.00    +0.000 C 
ENDBRANCH  28  29
ENDBRANCH  25  28
ENDBRANCH  22  25
ENDBRANCH  18  19
ENDBRANCH   1  18
TORSDOF 9
ENDMDL
MODEL 5
REMARK VINA RESULT:    -7.140      2.109      2.886
REMARK INTER + INTRA:         -11.547
REMARK INTER:                 -10.257
REMARK INTRA:                  -1.290
REMARK UNBOUND:                -0.859
REMARK  Name = 
REMARK  10 active torsions:
REMARK  status: ('A' for Active; 'I' for Inactive)
REMARK    1  A    between atoms: C_1  and  C_2
REMARK    2  A    between atoms: C_2  and  N_3
REMARK    3  A    between atoms: C_2  and  C_19
REMARK    4  A    between atoms: N_3  and  C_4
REMARK    5  A    between atoms: C_4  and  C_5
REMARK    6  A    between atoms: C_8  and  C_9
REMARK    7  A    between atoms: C_9  and  O_10
REMARK    8  A    between atoms: C_9  and  C_11
REMARK    9  A    between atoms: C_11  and  N_12
REMARK   10  A    between atoms: C_19  and  C_21
REMARK                            x       y       z     vdW  Elec       q    Type
REMARK                         _______ _______ _______ _____ _____    ______ ____
ROOT
ATOM      1  N   UNL     1      48.271   6.041  13.310  0.00  0.00    +0.000 NA
ATOM      2  H   UNL     1      48.489   5.583  12.418  0.00  0.00    +0.000 HD
ENDROOT
BRANCH   1   4
ATOM      3  C   UNL     1      48.393   8.369  12.616  0.00  0.00    +0.000 C 
ATOM      4  C   UNL     1      49.094   7.272  13.411  0.00  0.00    +0.000 C 
BRANCH   4   5
ATOM      5  C   UNL     1      49.278   7.704  14.889  0.00  0.00    +0.000 C 
ATOM      6  O   UNL     1      48.570   8.586  15.379  0.00  0.00    +0.000 OA
BRANCH   5   7
ATOM      7  C   UNL     1      50.328   7.053  15.687  0.00  0.00    +0.000 A 
ATOM      8  C   UNL     1      51.663   7.415  15.622  0.00  0.00    +0.000 A 
ATOM      9  S   UNL     1      52.642   6.593  16.755  0.00  0.00    +0.000 S 
ATOM     10  C   UNL     1      51.312   5.714  17.353  0.00  0.00    +0.000 A 
ATOM     11  N   UNL     1      51.456   4.839  18.383  0.00  0.00    +0.000 NA
ATOM     12  C   UNL     1      50.360   4.251  18.734  0.00  0.00    +0.000 A 
ATOM     13  N   UNL     1      49.143   4.438  18.129  0.00  0.00    +0.000 N 
ATOM     14  C   UNL     1      48.980   5.215  17.002  0.00  0.00    +0.000 A 
ATOM     15  O   UNL     1      47.963   5.145  16.318  0.00  0.00    +0.000 OA
ATOM     16  C   UNL     1      50.152   6.000  16.659  0.00  0.00    +0.000 A 
ATOM     17  H   UNL     1      48.349   3.873  18.397  0.00  0.00    +0.000 HD
ENDBRANCH   5   7
ENDBRANCH   4   5
ENDBRANCH   1   4
BRANCH   1  18
ATOM     18  C   UNL     1      46.847   6.365  13.319  0.00  0.00    +0.000 C 
BRANCH  18  19
ATOM     19  C   UNL     1      46.062   5.548  12.334  0.00  0.00    +0.000 A 
ATOM     20  C   UNL     1      45.840   5.970  11.019  0.00  0.00    +0.000 A 
ATOM     21  C   UNL     1      45.273   5.094  10.095  0.00  0.00    +0.000 A 
ATOM     22  C   UNL     1      44.941   3.813  10.519  0.00  0.00    +0.000 A 
ATOM     23  N   UNL     1      45.080   3.403  11.810  0.00  0.00    +0.000 NA
ATOM     24  C   UNL     1      45.630   4.275  12.680  0.00  0.00    +0.000 A 
BRANCH  22  25
ATOM     25  C   UNL     1      44.503   2.731   9.545  0.00  0.00    +0.000 C 
BRANCH  25  26
ATOM     26  O   UNL     1      43.714   1.785  10.283  0.00  0.00    +0.000 OA
ATOM     27  H   UNL     1      43.146   2.337  10.862  0.00  0.00    +0.000 HD
ENDBRANCH  25  26
BRANCH  25  28
ATOM     28  C   UNL     1      45.780   2.036   8.988  0.00  0.00    +0.000 C 
BRANCH  28  29
ATOM     29  N   UNL     1      45.934   1.756   7.546  0.00  0.00    +0.000 NA
ATOM     30  C   UNL     1      46.467   2.888   6.787  0.00  0.00    +0.000 C 
ATOM     31  C   UNL     1      47.962   2.647   6.676  0.00  0.00    +0.000 C 
ATOM     32  O   UNL     1      48.186   1.282   7.054  0.00  0.00    +0.000 OA
ATOM     33  C   UNL     1      46.903   0.707   7.270  0.00  0.00    +0.000 C 
ENDBRANCH  28  29
ENDBRANCH  25  28
ENDBRANCH  22  25
ENDBRANCH  18  19
ENDBRANCH   1  18
TORSDOF 9
ENDMDL
MODEL 6
REMARK VINA RESULT:    -7.013      2.377      2.782
REMARK INTER + INTRA:         -11.357
REMARK INTER:                 -10.150
REMARK INTRA:                  -1.206
REMARK UNBOUND:                -0.859
REMARK  Name = 
REMARK  10 active torsions:
REMARK  status: ('A' for Active; 'I' for Inactive)
REMARK    1  A    between atoms: C_1  and  C_2
REMARK    2  A    between atoms: C_2  and  N_3
REMARK    3  A    between atoms: C_2  and  C_19
REMARK    4  A    between atoms: N_3  and  C_4
REMARK    5  A    between atoms: C_4  and  C_5
REMARK    6  A    between atoms: C_8  and  C_9
REMARK    7  A    between atoms: C_9  and  O_10
REMARK    8  A    between atoms: C_9  and  C_11
REMARK    9  A    between atoms: C_11  and  N_12
REMARK   10  A    between atoms: C_19  and  C_21
REMARK                            x       y       z     vdW  Elec       q    Type
REMARK                         _______ _______ _______ _____ _____    ______ ____
ROOT
ATOM      1  N   UNL     1      49.128   6.794  13.521  0.00  0.00    +0.000 NA
ATOM      2  H   UNL     1      49.761   6.550  12.753  0.00  0.00    +0.000 HD
ENDROOT
BRANCH   1   4
ATOM      3  C   UNL     1      50.370   8.777  14.185  0.00  0.00    +0.000 C 
ATOM      4  C   UNL     1      49.937   7.381  14.619  0.00  0.00    +0.000 C 
BRANCH   4   5
ATOM      5  C   UNL     1      49.125   7.448  15.938  0.00  0.00    +0.000 C 
ATOM      6  O   UNL     1      48.349   8.381  16.153  0.00  0.00    +0.000 OA
BRANCH   5   7
ATOM      7  C   UNL     1      49.318   6.386  16.939  0.00  0.00    +0.000 A 
ATOM      8  C   UNL     1      50.196   6.499  18.003  0.00  0.00    +0.000 A 
ATOM      9  S   UNL     1      50.118   5.179  19.085  0.00  0.00    +0.000 S 
ATOM     10  C   UNL     1      48.922   4.409  18.151  0.00  0.00    +0.000 A 
ATOM     11  N   UNL     1      48.378   3.227  18.545  0.00  0.00    +0.000 NA
ATOM     12  C   UNL     1      47.477   2.767  17.740  0.00  0.00    +0.000 A 
ATOM     13  N   UNL     1      47.096   3.365  16.566  0.00  0.00    +0.000 N 
ATOM     14  C   UNL     1      47.713   4.492  16.067  0.00  0.00    +0.000 A 
ATOM     15  O   UNL     1      47.558   4.843  14.901  0.00  0.00    +0.000 OA
ATOM     16  C   UNL     1      48.631   5.118  17.002  0.00  0.00    +0.000 A 
ATOM     17  H   UNL     1      46.453   2.898  15.942  0.00  0.00    +0.000 HD
ENDBRANCH   5   7
ENDBRANCH   4   5
ENDBRANCH   1   4
BRANCH   1  18
ATOM     18  C   UNL     1      48.154   7.760  13.019  0.00  0.00    +0.000 C 
BRANCH  18  19
ATOM     19  C   UNL     1      46.983   7.104  12.347  0.00  0.00    +0.000 A 
ATOM     20  C   UNL     1      47.034   6.657  11.022  0.00  0.00    +0.000 A 
ATOM     21  C   UNL     1      45.991   5.888  10.508  0.00  0.00    +0.000 A 
ATOM     22  C   UNL     1      44.920   5.588  11.343  0.00  0.00    +0.000 A 
ATOM     23  N   UNL     1      44.814   6.071  12.611  0.00  0.00    +0.000 NA
ATOM     24  C   UNL     1      45.839   6.814  13.078  0.00  0.00    +0.000 A 
BRANCH  22  25
ATOM     25  C   UNL     1      43.839   4.598  10.938  0.00  0.00    +0.000 C 
BRANCH  25  26
ATOM     26  O   UNL     1      43.065   4.309  12.113  0.00  0.00    +0.000 OA
ATOM     27  H   UNL     1      43.400   3.441  12.422  0.00  0.00    +0.000 HD
ENDBRANCH  25  26
BRANCH  25  28
ATOM     28  C   UNL     1      44.535   3.302  10.430  0.00  0.00    +0.000 C 
BRANCH  28  29
ATOM     29  N   UNL     1      44.301   2.792   9.063  0.00  0.00    +0.000 NA
ATOM     30  C   UNL     1      44.810   3.679   8.016  0.00  0.00    +0.000 C 
ATOM     31  C   UNL     1      46.182   3.143   7.648  0.00  0.00    +0.000 C 
ATOM     32  O   UNL     1      46.274   1.829   8.216  0.00  0.00    +0.000 OA
ATOM     33  C   UNL     1      45.004   1.548   8.792  0.00  0.00    +0.000 C 
ENDBRANCH  28  29
ENDBRANCH  25  28
ENDBRANCH  22  25
ENDBRANCH  18  19
ENDBRANCH   1  18
TORSDOF 9
ENDMDL
MODEL 7
REMARK VINA RESULT:    -6.921      2.236      3.059
REMARK INTER + INTRA:         -11.218
REMARK INTER:                 -10.028
REMARK INTRA:                  -1.190
REMARK UNBOUND:                -0.859
REMARK  Name = 
REMARK  10 active torsions:
REMARK  status: ('A' for Active; 'I' for Inactive)
REMARK    1  A    between atoms: C_1  and  C_2
REMARK    2  A    between atoms: C_2  and  N_3
REMARK    3  A    between atoms: C_2  and  C_19
REMARK    4  A    between atoms: N_3  and  C_4
REMARK    5  A    between atoms: C_4  and  C_5
REMARK    6  A    between atoms: C_8  and  C_9
REMARK    7  A    between atoms: C_9  and  O_10
REMARK    8  A    between atoms: C_9  and  C_11
REMARK    9  A    between atoms: C_11  and  N_12
REMARK   10  A    between atoms: C_19  and  C_21
REMARK                            x       y       z     vdW  Elec       q    Type
REMARK                         _______ _______ _______ _____ _____    ______ ____
ROOT
ATOM      1  N   UNL     1      49.704   5.865  15.847  0.00  0.00    +0.000 NA
ATOM      2  H   UNL     1      50.566   5.736  16.388  0.00  0.00    +0.000 HD
ENDROOT
BRANCH   1   4
ATOM      3  C   UNL     1      47.561   4.716  15.906  0.00  0.00    +0.000 C 
ATOM      4  C   UNL     1      48.554   5.535  16.726  0.00  0.00    +0.000 C 
BRANCH   4   5
ATOM      5  C   UNL     1      49.014   4.740  17.976  0.00  0.00    +0.000 C 
ATOM      6  O   UNL     1      48.206   4.421  18.850  0.00  0.00    +0.000 OA
BRANCH   5   7
ATOM      7  C   UNL     1      50.438   4.396  18.106  0.00  0.00    +0.000 A 
ATOM      8  C   UNL     1      51.383   5.264  18.626  0.00  0.00    +0.000 A 
ATOM      9  S   UNL     1      52.930   4.558  18.791  0.00  0.00    +0.000 S 
ATOM     10  C   UNL     1      52.385   3.077  18.154  0.00  0.00    +0.000 A 
ATOM     11  N   UNL     1      53.220   2.008  18.053  0.00  0.00    +0.000 NA
ATOM     12  C   UNL     1      52.665   0.951  17.559  0.00  0.00    +0.000 A 
ATOM     13  N   UNL     1      51.364   0.875  17.129  0.00  0.00    +0.000 N 
ATOM     14  C   UNL     1      50.525   1.969  17.093  0.00  0.00    +0.000 A 
ATOM     15  O   UNL     1      49.479   1.951  16.453  0.00  0.00    +0.000 OA
ATOM     16  C   UNL     1      51.061   3.139  17.766  0.00  0.00    +0.000 A 
ATOM     17  H   UNL     1      51.028   0.042  16.667  0.00  0.00    +0.000 HD
ENDBRANCH   5   7
ENDBRANCH   4   5
ENDBRANCH   1   4
BRANCH   1  18
ATOM     18  C   UNL     1      49.644   7.258  15.412  0.00  0.00    +0.000 C 
BRANCH  18  19
ATOM     19  C   UNL     1      48.683   7.468  14.278  0.00  0.00    +0.000 A 
ATOM     20  C   UNL     1      48.745   6.719  13.097  0.00  0.00    +0.000 A 
ATOM     21  C   UNL     1      47.720   6.820  12.158  0.00  0.00    +0.000 A 
ATOM     22  C   UNL     1      46.657   7.674  12.430  0.00  0.00    +0.000 A 
ATOM     23  N   UNL     1      46.611   8.465  13.537  0.00  0.00    +0.000 NA
ATOM     24  C   UNL     1      47.619   8.346  14.425  0.00  0.00    +0.000 A 
BRANCH  22  25
ATOM     25  C   UNL     1      45.406   7.702  11.566  0.00  0.00    +0.000 C 
BRANCH  25  26
ATOM     26  O   UNL     1      44.422   8.480  12.266  0.00  0.00    +0.000 OA
ATOM     27  H   UNL     1      43.703   8.613  11.612  0.00  0.00    +0.000 HD
ENDBRANCH  25  26
BRANCH  25  28
ATOM     28  C   UNL     1      44.903   6.239  11.396  0.00  0.00    +0.000 C 
BRANCH  28  29
ATOM     29  N   UNL     1      43.984   5.626  12.377  0.00  0.00    +0.000 NA
ATOM     30  C   UNL     1      42.908   4.849  11.760  0.00  0.00    +0.000 C 
ATOM     31  C   UNL     1      43.381   3.406  11.767  0.00  0.00    +0.000 C 
ATOM     32  O   UNL     1      44.507   3.348  12.654  0.00  0.00    +0.000 OA
ATOM     33  C   UNL     1      44.635   4.643  13.229  0.00  0.00    +0.000 C 
ENDBRANCH  28  29
ENDBRANCH  25  28
ENDBRANCH  22  25
ENDBRANCH  18  19
ENDBRANCH   1  18
TORSDOF 9
ENDMDL
MODEL 8
REMARK VINA RESULT:    -6.777      2.372      3.112
REMARK INTER + INTRA:         -11.003
REMARK INTER:                  -9.957
REMARK INTRA:                  -1.046
REMARK UNBOUND:                -0.859
REMARK  Name = 
REMARK  10 active torsions:
REMARK  status: ('A' for Active; 'I' for Inactive)
REMARK    1  A    between atoms: C_1  and  C_2
REMARK    2  A    between atoms: C_2  and  N_3
REMARK    3  A    between atoms: C_2  and  C_19
REMARK    4  A    between atoms: N_3  and  C_4
REMARK    5  A    between atoms: C_4  and  C_5
REMARK    6  A    between atoms: C_8  and  C_9
REMARK    7  A    between atoms: C_9  and  O_10
REMARK    8  A    between atoms: C_9  and  C_11
REMARK    9  A    between atoms: C_11  and  N_12
REMARK   10  A    between atoms: C_19  and  C_21
REMARK                            x       y       z     vdW  Elec       q    Type
REMARK                         _______ _______ _______ _____ _____    ______ ____
ROOT
ATOM      1  N   UNL     1      47.261   5.095  16.291  0.00  0.00    +0.000 NA
ATOM      2  H   UNL     1      46.464   5.736  16.211  0.00  0.00    +0.000 HD
ENDROOT
BRANCH   1   4
ATOM      3  C   UNL     1      47.503   2.934  17.380  0.00  0.00    +0.000 C 
ATOM      4  C   UNL     1      47.170   4.406  17.603  0.00  0.00    +0.000 C 
BRANCH   4   5
ATOM      5  C   UNL     1      48.143   5.035  18.634  0.00  0.00    +0.000 C 
ATOM      6  O   UNL     1      48.300   4.523  19.744  0.00  0.00    +0.000 OA
BRANCH   5   7
ATOM      7  C   UNL     1      48.859   6.267  18.267  0.00  0.00    +0.000 A 
ATOM      8  C   UNL     1      48.334   7.533  18.460  0.00  0.00    +0.000 A 
ATOM      9  S   UNL     1      49.432   8.784  18.074  0.00  0.00    +0.000 S 
ATOM     10  C   UNL     1      50.634   7.668  17.619  0.00  0.00    +0.000 A 
ATOM     11  N   UNL     1      51.862   8.087  17.214  0.00  0.00    +0.000 NA
ATOM     12  C   UNL     1      52.672   7.128  16.907  0.00  0.00    +0.000 A 
ATOM     13  N   UNL     1      52.355   5.794  16.940  0.00  0.00    +0.000 N 
ATOM     14  C   UNL     1      51.085   5.334  17.219  0.00  0.00    +0.000 A 
ATOM     15  O   UNL     1      50.754   4.179  16.969  0.00  0.00    +0.000 OA
ATOM     16  C   UNL     1      50.184   6.365  17.703  0.00  0.00    +0.000 A 
ATOM     17  H   UNL     1      53.011   5.106  16.596  0.00  0.00    +0.000 HD
ENDBRANCH   5   7
ENDBRANCH   4   5
ENDBRANCH   1   4
BRANCH   1  18
ATOM     18  C   UNL     1      47.185   4.136  15.192  0.00  0.00    +0.000 C 
BRANCH  18  19
ATOM     19  C   UNL     1      46.517   4.704  13.974  0.00  0.00    +0.000 A 
ATOM     20  C   UNL     1      47.040   5.797  13.275  0.00  0.00    +0.000 A 
ATOM     21  C   UNL     1      46.489   6.165  12.048  0.00  0.00    +0.000 A 
ATOM     22  C   UNL     1      45.423   5.421  11.555  0.00  0.00    +0.000 A 
ATOM     23  N   UNL     1      44.851   4.399  12.250  0.00  0.00    +0.000 NA
ATOM     24  C   UNL     1      45.406   4.071  13.435  0.00  0.00    +0.000 A 
BRANCH  22  25
ATOM     25  C   UNL     1      44.887   5.620  10.146  0.00  0.00    +0.000 C 
BRANCH  25  26
ATOM     26  O   UNL     1      43.506   5.228  10.156  0.00  0.00    +0.000 OA
ATOM     27  H   UNL     1      43.232   5.265   9.215  0.00  0.00    +0.000 HD
ENDBRANCH  25  26
BRANCH  25  28
ATOM     28  C   UNL     1      45.693   4.696   9.188  0.00  0.00    +0.000 C 
BRANCH  28  29
ATOM     29  N   UNL     1      45.020   3.666   8.370  0.00  0.00    +0.000 NA
ATOM     30  C   UNL     1      45.767   3.299   7.166  0.00  0.00    +0.000 C 
ATOM     31  C   UNL     1      46.554   2.053   7.529  0.00  0.00    +0.000 C 
ATOM     32  O   UNL     1      46.001   1.562   8.758  0.00  0.00    +0.000 OA
ATOM     33  C   UNL     1      44.885   2.391   9.058  0.00  0.00    +0.000 C 
ENDBRANCH  28  29
ENDBRANCH  25  28
ENDBRANCH  22  25
ENDBRANCH  18  19
ENDBRANCH   1  18
TORSDOF 9
ENDMDL
MODEL 9
REMARK VINA RESULT:    -6.757      2.928      3.718
REMARK INTER + INTRA:         -10.973
REMARK INTER:                 -10.169
REMARK INTRA:                  -0.804
REMARK UNBOUND:                -0.859
REMARK  Name = 
REMARK  10 active torsions:
REMARK  status: ('A' for Active; 'I' for Inactive)
REMARK    1  A    between atoms: C_1  and  C_2
REMARK    2  A    between atoms: C_2  and  N_3
REMARK    3  A    between atoms: C_2  and  C_19
REMARK    4  A    between atoms: N_3  and  C_4
REMARK    5  A    between atoms: C_4  and  C_5
REMARK    6  A    between atoms: C_8  and  C_9
REMARK    7  A    between atoms: C_9  and  O_10
REMARK    8  A    between atoms: C_9  and  C_11
REMARK    9  A    between atoms: C_11  and  N_12
REMARK   10  A    between atoms: C_19  and  C_21
REMARK                            x       y       z     vdW  Elec       q    Type
REMARK                         _______ _______ _______ _____ _____    ______ ____
ROOT
ATOM      1  N   UNL     1      48.900   6.756  13.273  0.00  0.00    +0.000 NA
ATOM      2  H   UNL     1      48.573   6.939  12.318  0.00  0.00    +0.000 HD
ENDROOT
BRANCH   1   4
ATOM      3  C   UNL     1      48.064   8.869  14.141  0.00  0.00    +0.000 C 
ATOM      4  C   UNL     1      49.321   8.048  13.872  0.00  0.00    +0.000 C 
BRANCH   4   5
ATOM      5  C   UNL     1      50.116   7.824  15.184  0.00  0.00    +0.000 C 
ATOM      6  O   UNL     1      51.253   7.350  15.157  0.00  0.00    +0.000 OA
BRANCH   5   7
ATOM      7  C   UNL     1      49.476   8.169  16.463  0.00  0.00    +0.000 A 
ATOM      8  C   UNL     1      49.378   9.467  16.935  0.00  0.00    +0.000 A 
ATOM      9  S   UNL     1      48.466   9.594  18.375  0.00  0.00    +0.000 S 
ATOM     10  C   UNL     1      48.192   7.915  18.418  0.00  0.00    +0.000 A 
ATOM     11  N   UNL     1      47.433   7.354  19.396  0.00  0.00    +0.000 NA
ATOM     12  C   UNL     1      47.307   6.071  19.296  0.00  0.00    +0.000 A 
ATOM     13  N   UNL     1      47.894   5.299  18.326  0.00  0.00    +0.000 N 
ATOM     14  C   UNL     1      48.774   5.811  17.396  0.00  0.00    +0.000 A 
ATOM     15  O   UNL     1      49.498   5.077  16.730  0.00  0.00    +0.000 OA
ATOM     16  C   UNL     1      48.836   7.261  17.385  0.00  0.00    +0.000 A 
ATOM     17  H   UNL     1      47.827   4.292  18.367  0.00  0.00    +0.000 HD
ENDBRANCH   5   7
ENDBRANCH   4   5
ENDBRANCH   1   4
BRANCH   1  18
ATOM     18  C   UNL     1      47.798   6.167  14.028  0.00  0.00    +0.000 C 
BRANCH  18  19
ATOM     19  C   UNL     1      46.689   5.676  13.143  0.00  0.00    +0.000 A 
ATOM     20  C   UNL     1      46.460   6.203  11.868  0.00  0.00    +0.000 A 
ATOM     21  C   UNL     1      45.544   5.587  11.016  0.00  0.00    +0.000 A 
ATOM     22  C   UNL     1      44.879   4.454  11.472  0.00  0.00    +0.000 A 
ATOM     23  N   UNL     1      45.032   3.966  12.734  0.00  0.00    +0.000 NA
ATOM     24  C   UNL     1      45.923   4.586  13.534  0.00  0.00    +0.000 A 
BRANCH  22  25
ATOM     25  C   UNL     1      44.016   3.604  10.553  0.00  0.00    +0.000 C 
BRANCH  25  26
ATOM     26  O   UNL     1      42.966   3.041  11.355  0.00  0.00    +0.000 OA
ATOM     27  H   UNL     1      42.764   3.735  12.020  0.00  0.00    +0.000 HD
ENDBRANCH  25  26
BRANCH  25  28
ATOM     28  C   UNL     1      44.905   2.467   9.971  0.00  0.00    +0.000 C 
BRANCH  28  29
ATOM     29  N   UNL     1      44.935   2.184   8.520  0.00  0.00    +0.000 NA
ATOM     30  C   UNL     1      45.076   3.385   7.696  0.00  0.00    +0.000 C 
ATOM     31  C   UNL     1      46.558   3.506   7.389  0.00  0.00    +0.000 C 
ATOM     32  O   UNL     1      47.152   2.247   7.735  0.00  0.00    +0.000 OA
ATOM     33  C   UNL     1      46.085   1.389   8.120  0.00  0.00    +0.000 C 
ENDBRANCH  28  29
ENDBRANCH  25  28
ENDBRANCH  22  25
ENDBRANCH  18  19
ENDBRANCH   1  18
TORSDOF 9
ENDMDL
