MODEL 1
REMARK VINA RESULT:    -7.616      0.000      0.000
REMARK INTER + INTRA:          -9.976
REMARK INTER:                  -9.397
REMARK INTRA:                  -0.579
REMARK UNBOUND:                -0.579
REMARK  Name = 
REMARK  5 active torsions:
REMARK  status: ('A' for Active; 'I' for Inactive)
REMARK    1  A    between atoms: C_1  and  C_2
REMARK    2  A    between atoms: C_2  and  C_3
REMARK    3  A    between atoms: C_2  and  C_14
REMARK    4  A    between atoms: C_3  and  N_4
REMARK    5  A    between atoms: C_8  and  C_9
REMARK                            x       y       z     vdW  Elec       q    Type
REMARK                         _______ _______ _______ _____ _____    ______ ____
ROOT
ATOM      1  N   UNL     1      43.909   3.193  10.366  0.00  0.00    +0.000 N 
ATOM      2  C   UNL     1      44.838   3.025   9.328  0.00  0.00    +0.000 A 
ATOM      3  C   UNL     1      45.270   1.734   8.983  0.00  0.00    +0.000 A 
ATOM      4  N   UNL     1      46.160   1.463   7.990  0.00  0.00    +0.000 NA
ATOM      5  C   UNL     1      46.629   2.566   7.347  0.00  0.00    +0.000 A 
ATOM      6  C   UNL     1      46.229   3.848   7.686  0.00  0.00    +0.000 A 
ATOM      7  N   UNL     1      45.339   4.097   8.679  0.00  0.00    +0.000 NA
ATOM      8  H   UNL     1      43.084   2.633  10.168  0.00  0.00    +0.000 HD
ENDROOT
BRANCH   5   9
ATOM      9  C   UNL     1      47.597   2.374   6.234  0.00  0.00    +0.000 C 
ATOM     10  N   UNL     1      47.478   3.236   5.182  0.00  0.00    +0.000 N 
ATOM     11  O   UNL     1      48.453   1.498   6.257  0.00  0.00    +0.000 OA
ATOM     12  H   UNL     1      46.760   3.952   5.189  0.00  0.00    +0.000 HD
ATOM     13  H   UNL     1      48.111   3.155   4.398  0.00  0.00    +0.000 HD
ENDBRANCH   5   9
BRANCH   1  14
ATOM     14  C   UNL     1      43.542   4.583  10.615  0.00  0.00    +0.000 C 
BRANCH  14  16
ATOM     15  C   UNL     1      42.884   5.133  13.042  0.00  0.00    +0.000 C 
ATOM     16  C   UNL     1      43.957   4.896  12.025  0.00  0.00    +0.000 C 
BRANCH  16  17
ATOM     17  C   UNL     1      45.312   5.415  12.260  0.00  0.00    +0.000 A 
ATOM     18  C   UNL     1      45.863   6.399  11.428  0.00  0.00    +0.000 A 
ATOM     19  C   UNL     1      47.134   6.917  11.692  0.00  0.00    +0.000 A 
ATOM     20  C   UNL     1      47.860   6.461  12.791  0.00  0.00    +0.000 A 
ATOM     21  C   UNL     1      47.323   5.479  13.619  0.00  0.00    +0.000 A 
ATOM     22  C   UNL     1      46.061   4.953  13.348  0.00  0.00    +0.000 A 
ENDBRANCH  16  17
ENDBRANCH  14  16
ENDBRANCH   1  14
TORSDOF 4
ENDMDL
MODEL 2
REMARK VINA RESULT:    -6.950      3.166      6.316
REMARK INTER + INTRA:          -9.154
REMARK INTER:                  -8.747
REMARK INTRA:                  -0.407
REMARK UNBOUND:                -0.579
REMARK  Name = 
REMARK  5 active torsions:
REMARK  status: ('A' for Active; 'I' for Inactive)
REMARK    1  A    between atoms: C_1  and  C_2
REMARK    2  A    between atoms: C_2  and  C_3
REMARK    3  A    between atoms: C_2  and  C_14
REMARK    4  A    between atoms: C_3  and  N_4
REMARK    5  A    between atoms: C_8  and  C_9
REMARK                            x       y       z     vdW  Elec       q    Type
REMARK                         _______ _______ _______ _____ _____    ______ ____
ROOT
ATOM      1  N   UNL     1      43.868   4.444  10.462  0.00  0.00    +0.000 N 
ATOM      2  C   UNL     1      44.745   5.230  11.224  0.00  0.00    +0.000 A 
ATOM      3  C   UNL     1      44.503   5.413  12.596  0.00  0.00    +0.000 A 
ATOM      4  N   UNL     1      45.294   6.149  13.422  0.00  0.00    +0.000 NA
ATOM      5  C   UNL     1      46.360   6.726  12.805  0.00  0.00    +0.000 A 
ATOM      6  C   UNL     1      46.605   6.571  11.450  0.00  0.00    +0.000 A 
ATOM      7  N   UNL     1      45.803   5.833  10.642  0.00  0.00    +0.000 NA
ATOM      8  H   UNL     1      43.790   3.524  10.888  0.00  0.00    +0.000 HD
ENDROOT
BRANCH   5   9
ATOM      9  C   UNL     1      47.295   7.539  13.627  0.00  0.00    +0.000 C 
ATOM     10  N   UNL     1      46.863   8.789  13.966  0.00  0.00    +0.000 N 
ATOM     11  O   UNL     1      48.389   7.117  13.982  0.00  0.00    +0.000 OA
ATOM     12  H   UNL     1      45.953   9.114  13.658  0.00  0.00    +0.000 HD
ATOM     13  H   UNL     1      47.455   9.386  14.526  0.00  0.00    +0.000 HD
ENDBRANCH   5   9
BRANCH   1  14
ATOM     14  C   UNL     1      44.241   4.331   9.056  0.00  0.00    +0.000 C 
BRANCH  14  16
ATOM     15  C   UNL     1      44.271   1.891   9.875  0.00  0.00    +0.000 C 
ATOM     16  C   UNL     1      44.617   2.896   8.820  0.00  0.00    +0.000 C 
BRANCH  16  17
ATOM     17  C   UNL     1      45.681   2.599   7.850  0.00  0.00    +0.000 A 
ATOM     18  C   UNL     1      45.976   3.487   6.807  0.00  0.00    +0.000 A 
ATOM     19  C   UNL     1      47.022   3.216   5.921  0.00  0.00    +0.000 A 
ATOM     20  C   UNL     1      47.785   2.059   6.076  0.00  0.00    +0.000 A 
ATOM     21  C   UNL     1      47.495   1.168   7.105  0.00  0.00    +0.000 A 
ATOM     22  C   UNL     1      46.443   1.433   7.981  0.00  0.00    +0.000 A 
ENDBRANCH  16  17
ENDBRANCH  14  16
ENDBRANCH   1  14
TORSDOF 4
ENDMDL
MODEL 3
REMARK VINA RESULT:    -6.838      3.495      5.941
REMARK INTER + INTRA:          -9.016
REMARK INTER:                  -8.454
REMARK INTRA:                  -0.562
REMARK UNBOUND:                -0.579
REMARK  Name = 
REMARK  5 active torsions:
REMARK  status: ('A' for Active; 'I' for Inactive)
REMARK    1  A    between atoms: C_1  and  C_2
REMARK    2  A    between atoms: C_2  and  C_3
REMARK    3  A    between atoms: C_2  and  C_14
REMARK    4  A    between atoms: C_3  and  N_4
REMARK    5  A    between atoms: C_8  and  C_9
REMARK                            x       y       z     vdW  Elec       q    Type
REMARK                         _______ _______ _______ _____ _____    ______ ____
ROOT
ATOM      1  N   UNL     1      45.077   4.798  12.503  0.00  0.00    +0.000 N 
ATOM      2  C   UNL     1      46.261   5.550  12.563  0.00  0.00    +0.000 A 
ATOM      3  C   UNL     1      47.133   5.390  13.652  0.00  0.00    +0.000 A 
ATOM      4  N   UNL     1      48.305   6.065  13.801  0.00  0.00    +0.000 NA
ATOM      5  C   UNL     1      48.573   6.942  12.797  0.00  0.00    +0.000 A 
ATOM      6  C   UNL     1      47.716   7.126  11.724  0.00  0.00    +0.000 A 
ATOM      7  N   UNL     1      46.552   6.443  11.594  0.00  0.00    +0.000 NA
ATOM      8  H   UNL     1      45.307   3.810  12.575  0.00  0.00    +0.000 HD
ENDROOT
BRANCH   5   9
ATOM      9  C   UNL     1      49.841   7.718  12.859  0.00  0.00    +0.000 C 
ATOM     10  N   UNL     1      50.615   7.514  13.965  0.00  0.00    +0.000 N 
ATOM     11  O   UNL     1      50.175   8.495  11.972  0.00  0.00    +0.000 OA
ATOM     12  H   UNL     1      50.313   6.865  14.685  0.00  0.00    +0.000 HD
ATOM     13  H   UNL     1      51.489   8.012  14.060  0.00  0.00    +0.000 HD
ENDBRANCH   5   9
BRANCH   1  14
ATOM     14  C   UNL     1      44.269   5.055  11.317  0.00  0.00    +0.000 C 
BRANCH  14  16
ATOM     15  C   UNL     1      43.369   2.646  11.414  0.00  0.00    +0.000 C 
ATOM     16  C   UNL     1      44.054   3.731  10.642  0.00  0.00    +0.000 C 
BRANCH  16  17
ATOM     17  C   UNL     1      44.897   3.384   9.489  0.00  0.00    +0.000 A 
ATOM     18  C   UNL     1      45.445   4.381   8.670  0.00  0.00    +0.000 A 
ATOM     19  C   UNL     1      46.285   4.039   7.606  0.00  0.00    +0.000 A 
ATOM     20  C   UNL     1      46.588   2.701   7.357  0.00  0.00    +0.000 A 
ATOM     21  C   UNL     1      46.043   1.704   8.161  0.00  0.00    +0.000 A 
ATOM     22  C   UNL     1      45.195   2.045   9.215  0.00  0.00    +0.000 A 
ENDBRANCH  16  17
ENDBRANCH  14  16
ENDBRANCH   1  14
TORSDOF 4
ENDMDL
MODEL 4
REMARK VINA RESULT:    -6.519      4.442      7.244
REMARK INTER + INTRA:          -8.622
REMARK INTER:                  -8.266
REMARK INTRA:                  -0.356
REMARK UNBOUND:                -0.579
REMARK  Name = 
REMARK  5 active torsions:
REMARK  status: ('A' for Active; 'I' for Inactive)
REMARK    1  A    between atoms: C_1  and  C_2
REMARK    2  A    between atoms: C_2  and  C_3
REMARK    3  A    between atoms: C_2  and  C_14
REMARK    4  A    between atoms: C_3  and  N_4
REMARK    5  A    between atoms: C_8  and  C_9
REMARK                            x       y       z     vdW  Elec       q    Type
REMARK                         _______ _______ _______ _____ _____    ______ ____
ROOT
ATOM      1  N   UNL     1      46.138   5.341  12.753  0.00  0.00    +0.000 N 
ATOM      2  C   UNL     1      46.790   5.147  13.981  0.00  0.00    +0.000 A 
ATOM      3  C   UNL     1      47.824   6.017  14.364  0.00  0.00    +0.000 A 
ATOM      4  N   UNL     1      48.513   5.920  15.533  0.00  0.00    +0.000 NA
ATOM      5  C   UNL     1      48.129   4.879  16.321  0.00  0.00    +0.000 A 
ATOM      6  C   UNL     1      47.124   4.001  15.951  0.00  0.00    +0.000 A 
ATOM      7  N   UNL     1      46.448   4.115  14.781  0.00  0.00    +0.000 NA
ATOM      8  H   UNL     1      45.774   6.289  12.716  0.00  0.00    +0.000 HD
ENDROOT
BRANCH   5   9
ATOM      9  C   UNL     1      48.813   4.697  17.630  0.00  0.00    +0.000 C 
ATOM     10  N   UNL     1      47.999   4.563  18.717  0.00  0.00    +0.000 N 
ATOM     11  O   UNL     1      50.033   4.666  17.730  0.00  0.00    +0.000 OA
ATOM     12  H   UNL     1      46.991   4.593  18.606  0.00  0.00    +0.000 HD
ATOM     13  H   UNL     1      48.408   4.433  19.632  0.00  0.00    +0.000 HD
ENDBRANCH   5   9
BRANCH   1  14
ATOM     14  C   UNL     1      45.081   4.372  12.484  0.00  0.00    +0.000 C 
BRANCH  14  16
ATOM     15  C   UNL     1      43.158   5.391  11.109  0.00  0.00    +0.000 C 
ATOM     16  C   UNL     1      44.499   4.726  11.144  0.00  0.00    +0.000 C 
BRANCH  16  17
ATOM     17  C   UNL     1      44.996   4.020   9.954  0.00  0.00    +0.000 A 
ATOM     18  C   UNL     1      45.585   4.719   8.893  0.00  0.00    +0.000 A 
ATOM     19  C   UNL     1      46.096   4.031   7.789  0.00  0.00    +0.000 A 
ATOM     20  C   UNL     1      46.028   2.639   7.742  0.00  0.00    +0.000 A 
ATOM     21  C   UNL     1      45.439   1.936   8.788  0.00  0.00    +0.000 A 
ATOM     22  C   UNL     1      44.918   2.624   9.884  0.00  0.00    +0.000 A 
ENDBRANCH  16  17
ENDBRANCH  14  16
ENDBRANCH   1  14
TORSDOF 4
ENDMDL
MODEL 5
REMARK VINA RESULT:    -6.198      4.477      6.396
REMARK INTER + INTRA:          -8.226
REMARK INTER:                  -7.866
REMARK INTRA:                  -0.361
REMARK UNBOUND:                -0.579
REMARK  Name = 
REMARK  5 active torsions:
REMARK  status: ('A' for Active; 'I' for Inactive)
REMARK    1  A    between atoms: C_1  and  C_2
REMARK    2  A    between atoms: C_2  and  C_3
REMARK    3  A    between atoms: C_2  and  C_14
REMARK    4  A    between atoms: C_3  and  N_4
REMARK    5  A    between atoms: C_8  and  C_9
REMARK                            x       y       z     vdW  Elec       q    Type
REMARK                         _______ _______ _______ _____ _____    ______ ____
ROOT
ATOM      1  N   UNL     1      47.179   4.935  15.281  0.00  0.00    +0.000 N 
ATOM      2  C   UNL     1      46.528   4.837  14.041  0.00  0.00    +0.000 A 
ATOM      3  C   UNL     1      46.359   5.986  13.251  0.00  0.00    +0.000 A 
ATOM      4  N   UNL     1      45.749   5.996  12.035  0.00  0.00    +0.000 NA
ATOM      5  C   UNL     1      45.288   4.781  11.633  0.00  0.00    +0.000 A 
ATOM      6  C   UNL     1      45.431   3.641  12.406  0.00  0.00    +0.000 A 
ATOM      7  N   UNL     1      46.042   3.652  13.617  0.00  0.00    +0.000 NA
ATOM      8  H   UNL     1      48.095   5.355  15.143  0.00  0.00    +0.000 HD
ENDROOT
BRANCH   5   9
ATOM      9  C   UNL     1      44.619   4.685  10.308  0.00  0.00    +0.000 C 
ATOM     10  N   UNL     1      45.330   5.157   9.242  0.00  0.00    +0.000 N 
ATOM     11  O   UNL     1      43.498   4.209  10.175  0.00  0.00    +0.000 OA
ATOM     12  H   UNL     1      46.257   5.546   9.380  0.00  0.00    +0.000 HD
ATOM     13  H   UNL     1      44.927   5.114   8.316  0.00  0.00    +0.000 HD
ENDBRANCH   5   9
BRANCH   1  14
ATOM     14  C   UNL     1      47.294   3.668  15.993  0.00  0.00    +0.000 C 
BRANCH  14  16
ATOM     15  C   UNL     1      47.457   5.100  18.126  0.00  0.00    +0.000 C 
ATOM     16  C   UNL     1      47.975   3.964  17.299  0.00  0.00    +0.000 C 
BRANCH  16  17
ATOM     17  C   UNL     1      49.350   3.483  17.499  0.00  0.00    +0.000 A 
ATOM     18  C   UNL     1      49.724   2.187  17.120  0.00  0.00    +0.000 A 
ATOM     19  C   UNL     1      51.046   1.760  17.272  0.00  0.00    +0.000 A 
ATOM     20  C   UNL     1      52.004   2.626  17.797  0.00  0.00    +0.000 A 
ATOM     21  C   UNL     1      51.640   3.913  18.182  0.00  0.00    +0.000 A 
ATOM     22  C   UNL     1      50.318   4.335  18.042  0.00  0.00    +0.000 A 
ENDBRANCH  16  17
ENDBRANCH  14  16
ENDBRANCH   1  14
TORSDOF 4
ENDMDL
MODEL 6
REMARK VINA RESULT:    -6.078      4.510      7.102
REMARK INTER + INTRA:          -8.079
REMARK INTER:                  -7.709
REMARK INTRA:                  -0.370
REMARK UNBOUND:                -0.579
REMARK  Name = 
REMARK  5 active torsions:
REMARK  status: ('A' for Active; 'I' for Inactive)
REMARK    1  A    between atoms: C_1  and  C_2
REMARK    2  A    between atoms: C_2  and  C_3
REMARK    3  A    between atoms: C_2  and  C_14
REMARK    4  A    between atoms: C_3  and  N_4
REMARK    5  A    between atoms: C_8  and  C_9
REMARK                            x       y       z     vdW  Elec       q    Type
REMARK                         _______ _______ _______ _____ _____    ______ ____
ROOT
ATOM      1  N   UNL     1      45.891   4.933  12.787  0.00  0.00    +0.000 N 
ATOM      2  C   UNL     1      46.840   5.382  13.719  0.00  0.00    +0.000 A 
ATOM      3  C   UNL     1      47.125   4.604  14.853  0.00  0.00    +0.000 A 
ATOM      4  N   UNL     1      48.030   4.946  15.810  0.00  0.00    +0.000 NA
ATOM      5  C   UNL     1      48.647   6.138  15.591  0.00  0.00    +0.000 A 
ATOM      6  C   UNL     1      48.366   6.927  14.488  0.00  0.00    +0.000 A 
ATOM      7  N   UNL     1      47.460   6.568  13.545  0.00  0.00    +0.000 NA
ATOM      8  H   UNL     1      46.153   4.003  12.469  0.00  0.00    +0.000 HD
ENDROOT
BRANCH   5   9
ATOM      9  C   UNL     1      49.667   6.594  16.574  0.00  0.00    +0.000 C 
ATOM     10  N   UNL     1      50.961   6.593  16.139  0.00  0.00    +0.000 N 
ATOM     11  O   UNL     1      49.367   6.953  17.706  0.00  0.00    +0.000 OA
ATOM     12  H   UNL     1      51.180   6.291  15.195  0.00  0.00    +0.000 HD
ATOM     13  H   UNL     1      51.696   6.895  16.762  0.00  0.00    +0.000 HD
ENDBRANCH   5   9
BRANCH   1  14
ATOM     14  C   UNL     1      45.699   5.832  11.655  0.00  0.00    +0.000 C 
BRANCH  14  16
ATOM     15  C   UNL     1      43.258   5.153  11.203  0.00  0.00    +0.000 C 
ATOM     16  C   UNL     1      44.686   5.185  10.754  0.00  0.00    +0.000 C 
BRANCH  16  17
ATOM     17  C   UNL     1      45.155   4.224   9.745  0.00  0.00    +0.000 A 
ATOM     18  C   UNL     1      44.881   2.856   9.867  0.00  0.00    +0.000 A 
ATOM     19  C   UNL     1      45.292   1.961   8.876  0.00  0.00    +0.000 A 
ATOM     20  C   UNL     1      45.973   2.427   7.752  0.00  0.00    +0.000 A 
ATOM     21  C   UNL     1      46.255   3.784   7.625  0.00  0.00    +0.000 A 
ATOM     22  C   UNL     1      45.856   4.675   8.620  0.00  0.00    +0.000 A 
ENDBRANCH  16  17
ENDBRANCH  14  16
ENDBRANCH   1  14
TORSDOF 4
ENDMDL
MODEL 7
REMARK VINA RESULT:    -5.856      3.426      5.358
REMARK INTER + INTRA:          -7.805
REMARK INTER:                  -7.301
REMARK INTRA:                  -0.504
REMARK UNBOUND:                -0.579
REMARK  Name = 
REMARK  5 active torsions:
REMARK  status: ('A' for Active; 'I' for Inactive)
REMARK    1  A    between atoms: C_1  and  C_2
REMARK    2  A    between atoms: C_2  and  C_3
REMARK    3  A    between atoms: C_2  and  C_14
REMARK    4  A    between atoms: C_3  and  N_4
REMARK    5  A    between atoms: C_8  and  C_9
REMARK                            x       y       z     vdW  Elec       q    Type
REMARK                         _______ _______ _______ _____ _____    ______ ____
ROOT
ATOM      1  N   UNL     1      44.830   8.234  12.362  0.00  0.00    +0.000 N 
ATOM      2  C   UNL     1      44.605   6.882  12.063  0.00  0.00    +0.000 A 
ATOM      3  C   UNL     1      43.480   6.513  11.308  0.00  0.00    +0.000 A 
ATOM      4  N   UNL     1      43.176   5.234  10.959  0.00  0.00    +0.000 NA
ATOM      5  C   UNL     1      44.058   4.307  11.421  0.00  0.00    +0.000 A 
ATOM      6  C   UNL     1      45.164   4.650  12.181  0.00  0.00    +0.000 A 
ATOM      7  N   UNL     1      45.449   5.932  12.519  0.00  0.00    +0.000 NA
ATOM      8  H   UNL     1      44.849   8.768  11.497  0.00  0.00    +0.000 HD
ENDROOT
BRANCH   5   9
ATOM      9  C   UNL     1      43.822   2.878  11.079  0.00  0.00    +0.000 C 
ATOM     10  N   UNL     1      44.626   2.353  10.109  0.00  0.00    +0.000 N 
ATOM     11  O   UNL     1      42.960   2.208  11.634  0.00  0.00    +0.000 OA
ATOM     12  H   UNL     1      45.333   2.931   9.665  0.00  0.00    +0.000 HD
ATOM     13  H   UNL     1      44.513   1.387   9.837  0.00  0.00    +0.000 HD
ENDBRANCH   5   9
BRANCH   1  14
ATOM     14  C   UNL     1      46.037   8.477  13.144  0.00  0.00    +0.000 C 
BRANCH  14  16
ATOM     15  C   UNL     1      46.082  10.595  11.682  0.00  0.00    +0.000 C 
ATOM     16  C   UNL     1      46.830   9.519  12.408  0.00  0.00    +0.000 C 
BRANCH  16  17
ATOM     17  C   UNL     1      48.215   9.208  12.027  0.00  0.00    +0.000 A 
ATOM     18  C   UNL     1      48.664   7.883  11.955  0.00  0.00    +0.000 A 
ATOM     19  C   UNL     1      49.970   7.599  11.544  0.00  0.00    +0.000 A 
ATOM     20  C   UNL     1      50.833   8.637  11.196  0.00  0.00    +0.000 A 
ATOM     21  C   UNL     1      50.398   9.957  11.271  0.00  0.00    +0.000 A 
ATOM     22  C   UNL     1      49.099  10.240  11.692  0.00  0.00    +0.000 A 
ENDBRANCH  16  17
ENDBRANCH  14  16
ENDBRANCH   1  14
TORSDOF 4
ENDMDL
MODEL 8
REMARK VINA RESULT:    -5.636      3.959      6.233
REMARK INTER + INTRA:          -7.533
REMARK INTER:                  -7.053
REMARK INTRA:                  -0.480
REMARK UNBOUND:                -0.579
REMARK  Name = 
REMARK  5 active torsions:
REMARK  status: ('A' for Active; 'I' for Inactive)
REMARK    1  A    between atoms: C_1  and  C_2
REMARK    2  A    between atoms: C_2  and  C_3
REMARK    3  A    between atoms: C_2  and  C_14
REMARK    4  A    between atoms: C_3  and  N_4
REMARK    5  A    between atoms: C_8  and  C_9
REMARK                            x       y       z     vdW  Elec       q    Type
REMARK                         _______ _______ _______ _____ _____    ______ ____
ROOT
ATOM      1  N   UNL     1      47.293   7.134  13.962  0.00  0.00    +0.000 N 
ATOM      2  C   UNL     1      46.466   6.143  13.410  0.00  0.00    +0.000 A 
ATOM      3  C   UNL     1      45.204   6.492  12.904  0.00  0.00    +0.000 A 
ATOM      4  N   UNL     1      44.332   5.610  12.344  0.00  0.00    +0.000 NA
ATOM      5  C   UNL     1      44.777   4.325  12.322  0.00  0.00    +0.000 A 
ATOM      6  C   UNL     1      46.012   3.959  12.832  0.00  0.00    +0.000 A 
ATOM      7  N   UNL     1      46.867   4.854  13.387  0.00  0.00    +0.000 NA
ATOM      8  H   UNL     1      47.426   7.874  13.279  0.00  0.00    +0.000 HD
ENDROOT
BRANCH   5   9
ATOM      9  C   UNL     1      43.902   3.286  11.715  0.00  0.00    +0.000 C 
ATOM     10  N   UNL     1      43.720   2.151  12.451  0.00  0.00    +0.000 N 
ATOM     11  O   UNL     1      43.372   3.437  10.620  0.00  0.00    +0.000 OA
ATOM     12  H   UNL     1      44.172   2.052  13.354  0.00  0.00    +0.000 HD
ATOM     13  H   UNL     1      43.133   1.412  12.089  0.00  0.00    +0.000 HD
ENDBRANCH   5   9
BRANCH   1  14
ATOM     14  C   UNL     1      48.577   6.636  14.442  0.00  0.00    +0.000 C 
BRANCH  14  16
ATOM     15  C   UNL     1      48.861   7.925  16.651  0.00  0.00    +0.000 C 
ATOM     16  C   UNL     1      48.516   6.652  15.943  0.00  0.00    +0.000 C 
BRANCH  16  17
ATOM     17  C   UNL     1      48.592   5.372  16.662  0.00  0.00    +0.000 A 
ATOM     18  C   UNL     1      47.486   4.515  16.729  0.00  0.00    +0.000 A 
ATOM     19  C   UNL     1      47.587   3.280  17.375  0.00  0.00    +0.000 A 
ATOM     20  C   UNL     1      48.794   2.890  17.953  0.00  0.00    +0.000 A 
ATOM     21  C   UNL     1      49.896   3.738  17.897  0.00  0.00    +0.000 A 
ATOM     22  C   UNL     1      49.792   4.976  17.263  0.00  0.00    +0.000 A 
ENDBRANCH  16  17
ENDBRANCH  14  16
ENDBRANCH   1  14
TORSDOF 4
ENDMDL
MODEL 9
REMARK VINA RESULT:    -5.604      4.343      6.282
REMARK INTER + INTRA:          -7.494
REMARK INTER:                  -7.105
REMARK INTRA:                  -0.389
REMARK UNBOUND:                -0.579
REMARK  Name = 
REMARK  5 active torsions:
REMARK  status: ('A' for Active; 'I' for Inactive)
REMARK    1  A    between atoms: C_1  and  C_2
REMARK    2  A    between atoms: C_2  and  C_3
REMARK    3  A    between atoms: C_2  and  C_14
REMARK    4  A    between atoms: C_3  and  N_4
REMARK    5  A    between atoms: C_8  and  C_9
REMARK                            x       y       z     vdW  Elec       q    Type
REMARK                         _______ _______ _______ _____ _____    ______ ____
ROOT
ATOM      1  N   UNL     1      47.424   5.187  15.106  0.00  0.00    +0.000 N 
ATOM      2  C   UNL     1      46.719   5.061  13.899  0.00  0.00    +0.000 A 
ATOM      3  C   UNL     1      46.830   6.063  12.921  0.00  0.00    +0.000 A 
ATOM      4  N   UNL     1      46.195   6.034  11.718  0.00  0.00    +0.000 NA
ATOM      5  C   UNL     1      45.410   4.939  11.530  0.00  0.00    +0.000 A 
ATOM      6  C   UNL     1      45.275   3.950  12.490  0.00  0.00    +0.000 A 
ATOM      7  N   UNL     1      45.917   3.998  13.684  0.00  0.00    +0.000 NA
ATOM      8  H   UNL     1      48.412   5.315  14.903  0.00  0.00    +0.000 HD
ENDROOT
BRANCH   5   9
ATOM      9  C   UNL     1      44.685   4.805  10.238  0.00  0.00    +0.000 C 
ATOM     10  N   UNL     1      45.396   5.121   9.117  0.00  0.00    +0.000 N 
ATOM     11  O   UNL     1      43.519   4.432  10.179  0.00  0.00    +0.000 OA
ATOM     12  H   UNL     1      46.360   5.428   9.194  0.00  0.00    +0.000 HD
ATOM     13  H   UNL     1      44.955   5.047   8.210  0.00  0.00    +0.000 HD
ENDBRANCH   5   9
BRANCH   1  14
ATOM     14  C   UNL     1      47.226   4.074  16.028  0.00  0.00    +0.000 C 
BRANCH  14  16
ATOM     15  C   UNL     1      49.047   2.819  17.345  0.00  0.00    +0.000 C 
ATOM     16  C   UNL     1      48.369   4.109  17.003  0.00  0.00    +0.000 C 
BRANCH  16  17
ATOM     17  C   UNL     1      48.477   5.255  17.918  0.00  0.00    +0.000 A 
ATOM     18  C   UNL     1      47.453   5.553  18.826  0.00  0.00    +0.000 A 
ATOM     19  C   UNL     1      47.590   6.616  19.723  0.00  0.00    +0.000 A 
ATOM     20  C   UNL     1      48.753   7.384  19.723  0.00  0.00    +0.000 A 
ATOM     21  C   UNL     1      49.773   7.100  18.819  0.00  0.00    +0.000 A 
ATOM     22  C   UNL     1      49.631   6.047  17.916  0.00  0.00    +0.000 A 
ENDBRANCH  16  17
ENDBRANCH  14  16
ENDBRANCH   1  14
TORSDOF 4
ENDMDL
