MODEL 1
REMARK VINA RESULT:    -7.755      0.000      0.000
REMARK INTER + INTRA:         -11.404
REMARK INTER:                 -10.475
REMARK INTRA:                  -0.930
REMARK UNBOUND:                -0.930
REMARK  Name = 
REMARK  6 active torsions:
REMARK  status: ('A' for Active; 'I' for Inactive)
REMARK    1  A    between atoms: C_2  and  C_25
REMARK    2  A    between atoms: N_3  and  C_4
REMARK    3  A    between atoms: C_4  and  C_5
REMARK    4  A    between atoms: C_8  and  C_9
REMARK    5  A    between atoms: C_9  and  N_10
REMARK    6  A    between atoms: C_11  and  C_13
REMARK                            x       y       z     vdW  Elec       q    Type
REMARK                         _______ _______ _______ _____ _____    ______ ____
ROOT
ATOM      1  C   UNL     1      44.877   5.937  11.003  0.00  0.00    +0.000 A 
ATOM      2  C   UNL     1      44.396   7.188  11.387  0.00  0.00    +0.000 A 
ATOM      3  C   UNL     1      45.168   7.975  12.240  0.00  0.00    +0.000 A 
ATOM      4  C   UNL     1      46.395   7.499  12.704  0.00  0.00    +0.000 A 
ATOM      5  C   UNL     1      46.800   6.247  12.257  0.00  0.00    +0.000 A 
ATOM      6  N   UNL     1      46.076   5.462  11.422  0.00  0.00    +0.000 NA
ENDROOT
BRANCH   1   7
ATOM      7  C   UNL     1      44.087   5.083  10.038  0.00  0.00    +0.000 C 
BRANCH   7  10
ATOM      8  O   UNL     1      44.344   2.274   9.941  0.00  0.00    +0.000 OA
ATOM      9  C   UNL     1      44.984   2.963   9.156  0.00  0.00    +0.000 C 
ATOM     10  N   UNL     1      44.944   4.336   9.147  0.00  0.00    +0.000 N 
ATOM     11  H   UNL     1      45.380   4.810   8.362  0.00  0.00    +0.000 HD
BRANCH   9  12
ATOM     12  C   UNL     1      45.873   2.389   8.142  0.00  0.00    +0.000 A 
ATOM     13  C   UNL     1      46.340   3.102   7.050  0.00  0.00    +0.000 A 
ATOM     14  S   UNL     1      47.309   2.103   6.054  0.00  0.00    +0.000 S 
ATOM     15  C   UNL     1      47.046   0.801   7.139  0.00  0.00    +0.000 A 
ATOM     16  N   UNL     1      46.303   1.060   8.193  0.00  0.00    +0.000 NA
ENDBRANCH   9  12
ENDBRANCH   7  10
ENDBRANCH   1   7
BRANCH   4  17
ATOM     17  C   UNL     1      47.265   8.323  13.607  0.00  0.00    +0.000 C 
BRANCH  17  18
ATOM     18  N   UNL     1      47.653   7.585  14.782  0.00  0.00    +0.000 N 
ATOM     19  C   UNL     1      48.864   6.944  14.854  0.00  0.00    +0.000 C 
ATOM     20  O   UNL     1      49.688   7.006  13.945  0.00  0.00    +0.000 OA
ATOM     21  H   UNL     1      46.912   7.313  15.423  0.00  0.00    +0.000 HD
BRANCH  19  22
ATOM     22  C   UNL     1      49.153   6.228  16.105  0.00  0.00    +0.000 A 
ATOM     23  C   UNL     1      50.195   6.654  16.921  0.00  0.00    +0.000 A 
ATOM     24  S   UNL     1      50.356   5.744  18.354  0.00  0.00    +0.000 S 
ATOM     25  C   UNL     1      49.077   4.715  17.909  0.00  0.00    +0.000 A 
ATOM     26  N   UNL     1      48.705   3.673  18.702  0.00  0.00    +0.000 NA
ATOM     27  C   UNL     1      47.744   2.956  18.226  0.00  0.00    +0.000 A 
ATOM     28  N   UNL     1      47.113   3.188  17.031  0.00  0.00    +0.000 N 
ATOM     29  C   UNL     1      47.430   4.246  16.214  0.00  0.00    +0.000 A 
ATOM     30  O   UNL     1      46.811   4.458  15.176  0.00  0.00    +0.000 OA
ATOM     31  C   UNL     1      48.519   5.074  16.694  0.00  0.00    +0.000 A 
ATOM     32  H   UNL     1      46.359   2.595  16.720  0.00  0.00    +0.000 HD
ENDBRANCH  19  22
ENDBRANCH  17  18
ENDBRANCH   4  17
TORSDOF 6
ENDMDL
MODEL 2
REMARK VINA RESULT:    -7.424      1.949      2.400
REMARK INTER + INTRA:         -10.957
REMARK INTER:                 -10.052
REMARK INTRA:                  -0.905
REMARK UNBOUND:                -0.930
REMARK  Name = 
REMARK  6 active torsions:
REMARK  status: ('A' for Active; 'I' for Inactive)
REMARK    1  A    between atoms: C_2  and  C_25
REMARK    2  A    between atoms: N_3  and  C_4
REMARK    3  A    between atoms: C_4  and  C_5
REMARK    4  A    between atoms: C_8  and  C_9
REMARK    5  A    between atoms: C_9  and  N_10
REMARK    6  A    between atoms: C_11  and  C_13
REMARK                            x       y       z     vdW  Elec       q    Type
REMARK                         _______ _______ _______ _____ _____    ______ ____
ROOT
ATOM      1  C   UNL     1      44.874   4.941  11.843  0.00  0.00    +0.000 A 
ATOM      2  C   UNL     1      46.015   4.964  12.645  0.00  0.00    +0.000 A 
ATOM      3  C   UNL     1      46.533   6.194  13.046  0.00  0.00    +0.000 A 
ATOM      4  C   UNL     1      45.917   7.376  12.633  0.00  0.00    +0.000 A 
ATOM      5  C   UNL     1      44.776   7.256  11.847  0.00  0.00    +0.000 A 
ATOM      6  N   UNL     1      44.244   6.076  11.448  0.00  0.00    +0.000 NA
ENDROOT
BRANCH   1   7
ATOM      7  C   UNL     1      44.258   3.623  11.436  0.00  0.00    +0.000 C 
BRANCH   7  10
ATOM      8  O   UNL     1      44.228   4.055   8.646  0.00  0.00    +0.000 OA
ATOM      9  C   UNL     1      44.996   3.224   9.117  0.00  0.00    +0.000 C 
ATOM     10  N   UNL     1      45.061   2.928  10.456  0.00  0.00    +0.000 N 
ATOM     11  H   UNL     1      45.834   2.348  10.768  0.00  0.00    +0.000 HD
BRANCH   9  12
ATOM     12  C   UNL     1      45.927   2.449   8.292  0.00  0.00    +0.000 A 
ATOM     13  C   UNL     1      46.761   3.023   7.347  0.00  0.00    +0.000 A 
ATOM     14  S   UNL     1      47.670   1.816   6.541  0.00  0.00    +0.000 S 
ATOM     15  C   UNL     1      46.898   0.623   7.502  0.00  0.00    +0.000 A 
ATOM     16  N   UNL     1      46.027   1.058   8.386  0.00  0.00    +0.000 NA
ENDBRANCH   9  12
ENDBRANCH   7  10
ENDBRANCH   1   7
BRANCH   4  17
ATOM     17  C   UNL     1      46.431   8.720  13.060  0.00  0.00    +0.000 C 
BRANCH  17  18
ATOM     18  N   UNL     1      46.864   8.706  14.433  0.00  0.00    +0.000 N 
ATOM     19  C   UNL     1      48.178   8.912  14.770  0.00  0.00    +0.000 C 
ATOM     20  O   UNL     1      49.034   9.161  13.925  0.00  0.00    +0.000 OA
ATOM     21  H   UNL     1      46.245   8.264  15.109  0.00  0.00    +0.000 HD
BRANCH  19  22
ATOM     22  C   UNL     1      48.500   8.883  16.203  0.00  0.00    +0.000 A 
ATOM     23  C   UNL     1      48.504  10.064  16.936  0.00  0.00    +0.000 A 
ATOM     24  S   UNL     1      48.847   9.839  18.591  0.00  0.00    +0.000 S 
ATOM     25  C   UNL     1      49.057   8.165  18.377  0.00  0.00    +0.000 A 
ATOM     26  N   UNL     1      49.400   7.362  19.421  0.00  0.00    +0.000 NA
ATOM     27  C   UNL     1      49.559   6.119  19.109  0.00  0.00    +0.000 A 
ATOM     28  N   UNL     1      49.398   5.604  17.848  0.00  0.00    +0.000 N 
ATOM     29  C   UNL     1      49.019   6.369  16.772  0.00  0.00    +0.000 A 
ATOM     30  O   UNL     1      48.832   5.869  15.668  0.00  0.00    +0.000 OA
ATOM     31  C   UNL     1      48.846   7.778  17.065  0.00  0.00    +0.000 A 
ATOM     32  H   UNL     1      49.527   4.619  17.671  0.00  0.00    +0.000 HD
ENDBRANCH  19  22
ENDBRANCH  17  18
ENDBRANCH   4  17
TORSDOF 6
ENDMDL
MODEL 3
REMARK VINA RESULT:    -7.127      4.673      9.324
REMARK INTER + INTRA:         -10.557
REMARK INTER:                  -9.794
REMARK INTRA:                  -0.763
REMARK UNBOUND:                -0.930
REMARK  Name = 
REMARK  6 active torsions:
REMARK  status: ('A' for Active; 'I' for Inactive)
REMARK    1  A    between atoms: C_2  and  C_25
REMARK    2  A    between atoms: N_3  and  C_4
REMARK    3  A    between atoms: C_4  and  C_5
REMARK    4  A    between atoms: C_8  and  C_9
REMARK    5  A    between atoms: C_9  and  N_10
REMARK    6  A    between atoms: C_11  and  C_13
REMARK                            x       y       z     vdW  Elec       q    Type
REMARK                         _______ _______ _______ _____ _____    ______ ____
ROOT
ATOM      1  C   UNL     1      51.344   2.910  17.762  0.00  0.00    +0.000 A 
ATOM      2  C   UNL     1      50.633   1.930  17.071  0.00  0.00    +0.000 A 
ATOM      3  C   UNL     1      49.279   2.136  16.811  0.00  0.00    +0.000 A 
ATOM      4  C   UNL     1      48.656   3.304  17.253  0.00  0.00    +0.000 A 
ATOM      5  C   UNL     1      49.448   4.231  17.921  0.00  0.00    +0.000 A 
ATOM      6  N   UNL     1      50.767   4.064  18.182  0.00  0.00    +0.000 NA
ENDROOT
BRANCH   1   7
ATOM      7  C   UNL     1      52.824   2.739  18.014  0.00  0.00    +0.000 C 
BRANCH   7  10
ATOM      8  O   UNL     1      54.776   1.210  16.662  0.00  0.00    +0.000 OA
ATOM      9  C   UNL     1      54.157   0.708  17.594  0.00  0.00    +0.000 C 
ATOM     10  N   UNL     1      53.173   1.365  18.290  0.00  0.00    +0.000 N 
ATOM     11  H   UNL     1      52.833   0.927  19.141  0.00  0.00    +0.000 HD
BRANCH   9  12
ATOM     12  C   UNL     1      54.401  -0.661  18.059  0.00  0.00    +0.000 A 
ATOM     13  C   UNL     1      55.072  -1.610  17.307  0.00  0.00    +0.000 A 
ATOM     14  S   UNL     1      55.127  -3.104  18.141  0.00  0.00    +0.000 S 
ATOM     15  C   UNL     1      54.264  -2.388  19.438  0.00  0.00    +0.000 A 
ATOM     16  N   UNL     1      53.952  -1.117  19.302  0.00  0.00    +0.000 NA
ENDBRANCH   9  12
ENDBRANCH   7  10
ENDBRANCH   1   7
BRANCH   4  17
ATOM     17  C   UNL     1      47.206   3.573  16.976  0.00  0.00    +0.000 C 
BRANCH  17  18
ATOM     18  N   UNL     1      47.042   4.598  15.976  0.00  0.00    +0.000 N 
ATOM     19  C   UNL     1      47.101   4.305  14.637  0.00  0.00    +0.000 C 
ATOM     20  O   UNL     1      47.250   3.156  14.229  0.00  0.00    +0.000 OA
ATOM     21  H   UNL     1      47.170   5.561  16.277  0.00  0.00    +0.000 HD
BRANCH  19  22
ATOM     22  C   UNL     1      46.913   5.430  13.711  0.00  0.00    +0.000 A 
ATOM     23  C   UNL     1      47.971   6.291  13.444  0.00  0.00    +0.000 A 
ATOM     24  S   UNL     1      47.592   7.507  12.310  0.00  0.00    +0.000 S 
ATOM     25  C   UNL     1      45.987   6.960  12.178  0.00  0.00    +0.000 A 
ATOM     26  N   UNL     1      45.094   7.595  11.371  0.00  0.00    +0.000 NA
ATOM     27  C   UNL     1      43.904   7.094  11.392  0.00  0.00    +0.000 A 
ATOM     28  N   UNL     1      43.527   6.010  12.142  0.00  0.00    +0.000 N 
ATOM     29  C   UNL     1      44.401   5.317  12.944  0.00  0.00    +0.000 A 
ATOM     30  O   UNL     1      44.045   4.319  13.562  0.00  0.00    +0.000 OA
ATOM     31  C   UNL     1      45.749   5.851  12.970  0.00  0.00    +0.000 A 
ATOM     32  H   UNL     1      42.581   5.659  12.107  0.00  0.00    +0.000 HD
ENDBRANCH  19  22
ENDBRANCH  17  18
ENDBRANCH   4  17
TORSDOF 6
ENDMDL
MODEL 4
REMARK VINA RESULT:    -6.763      3.530      8.278
REMARK INTER + INTRA:         -10.065
REMARK INTER:                  -9.107
REMARK INTRA:                  -0.958
REMARK UNBOUND:                -0.930
REMARK  Name = 
REMARK  6 active torsions:
REMARK  status: ('A' for Active; 'I' for Inactive)
REMARK    1  A    between atoms: C_2  and  C_25
REMARK    2  A    between atoms: N_3  and  C_4
REMARK    3  A    between atoms: C_4  and  C_5
REMARK    4  A    between atoms: C_8  and  C_9
REMARK    5  A    between atoms: C_9  and  N_10
REMARK    6  A    between atoms: C_11  and  C_13
REMARK                            x       y       z     vdW  Elec       q    Type
REMARK                         _______ _______ _______ _____ _____    ______ ____
ROOT
ATOM      1  C   UNL     1      49.581   4.659  17.462  0.00  0.00    +0.000 A 
ATOM      2  C   UNL     1      50.344   5.808  17.261  0.00  0.00    +0.000 A 
ATOM      3  C   UNL     1      49.937   6.729  16.298  0.00  0.00    +0.000 A 
ATOM      4  C   UNL     1      48.787   6.485  15.545  0.00  0.00    +0.000 A 
ATOM      5  C   UNL     1      48.082   5.320  15.824  0.00  0.00    +0.000 A 
ATOM      6  N   UNL     1      48.447   4.410  16.759  0.00  0.00    +0.000 NA
ENDROOT
BRANCH   1   7
ATOM      7  C   UNL     1      49.968   3.667  18.535  0.00  0.00    +0.000 C 
BRANCH   7  10
ATOM      8  O   UNL     1      50.653   1.303  17.153  0.00  0.00    +0.000 OA
ATOM      9  C   UNL     1      51.542   2.000  17.631  0.00  0.00    +0.000 C 
ATOM     10  N   UNL     1      51.302   3.150  18.341  0.00  0.00    +0.000 N 
ATOM     11  H   UNL     1      52.101   3.739  18.556  0.00  0.00    +0.000 HD
BRANCH   9  12
ATOM     12  C   UNL     1      52.964   1.669  17.497  0.00  0.00    +0.000 A 
ATOM     13  C   UNL     1      53.981   2.562  17.789  0.00  0.00    +0.000 A 
ATOM     14  S   UNL     1      55.507   1.854  17.471  0.00  0.00    +0.000 S 
ATOM     15  C   UNL     1      54.714   0.417  16.975  0.00  0.00    +0.000 A 
ATOM     16  N   UNL     1      53.400   0.421  17.042  0.00  0.00    +0.000 NA
ENDBRANCH   9  12
ENDBRANCH   7  10
ENDBRANCH   1   7
BRANCH   4  17
ATOM     17  C   UNL     1      48.304   7.460  14.512  0.00  0.00    +0.000 C 
BRANCH  17  18
ATOM     18  N   UNL     1      47.053   7.039  13.935  0.00  0.00    +0.000 N 
ATOM     19  C   UNL     1      46.977   6.601  12.637  0.00  0.00    +0.000 C 
ATOM     20  O   UNL     1      47.973   6.505  11.924  0.00  0.00    +0.000 OA
ATOM     21  H   UNL     1      46.202   7.342  14.405  0.00  0.00    +0.000 HD
BRANCH  19  22
ATOM     22  C   UNL     1      45.649   6.192  12.160  0.00  0.00    +0.000 A 
ATOM     23  C   UNL     1      44.786   7.138  11.619  0.00  0.00    +0.000 A 
ATOM     24  S   UNL     1      43.311   6.482  11.070  0.00  0.00    +0.000 S 
ATOM     25  C   UNL     1      43.750   4.921  11.585  0.00  0.00    +0.000 A 
ATOM     26  N   UNL     1      42.901   3.868  11.435  0.00  0.00    +0.000 NA
ATOM     27  C   UNL     1      43.349   2.750  11.901  0.00  0.00    +0.000 A 
ATOM     28  N   UNL     1      44.573   2.587  12.497  0.00  0.00    +0.000 N 
ATOM     29  C   UNL     1      45.476   3.613  12.638  0.00  0.00    +0.000 A 
ATOM     30  O   UNL     1      46.585   3.423  13.128  0.00  0.00    +0.000 OA
ATOM     31  C   UNL     1      45.014   4.896  12.148  0.00  0.00    +0.000 A 
ATOM     32  H   UNL     1      44.870   1.683  12.831  0.00  0.00    +0.000 HD
ENDBRANCH  19  22
ENDBRANCH  17  18
ENDBRANCH   4  17
TORSDOF 6
ENDMDL
MODEL 5
REMARK VINA RESULT:    -6.753      4.743      9.394
REMARK INTER + INTRA:         -10.051
REMARK INTER:                  -9.015
REMARK INTRA:                  -1.036
REMARK UNBOUND:                -0.930
REMARK  Name = 
REMARK  6 active torsions:
REMARK  status: ('A' for Active; 'I' for Inactive)
REMARK    1  A    between atoms: C_2  and  C_25
REMARK    2  A    between atoms: N_3  and  C_4
REMARK    3  A    between atoms: C_4  and  C_5
REMARK    4  A    between atoms: C_8  and  C_9
REMARK    5  A    between atoms: C_9  and  N_10
REMARK    6  A    between atoms: C_11  and  C_13
REMARK                            x       y       z     vdW  Elec       q    Type
REMARK                         _______ _______ _______ _____ _____    ______ ____
ROOT
ATOM      1  C   UNL     1      51.436   2.988  17.730  0.00  0.00    +0.000 A 
ATOM      2  C   UNL     1      50.682   1.968  17.152  0.00  0.00    +0.000 A 
ATOM      3  C   UNL     1      49.329   2.188  16.900  0.00  0.00    +0.000 A 
ATOM      4  C   UNL     1      48.749   3.411  17.237  0.00  0.00    +0.000 A 
ATOM      5  C   UNL     1      49.581   4.375  17.796  0.00  0.00    +0.000 A 
ATOM      6  N   UNL     1      50.900   4.194  18.047  0.00  0.00    +0.000 NA
ENDROOT
BRANCH   1   7
ATOM      7  C   UNL     1      52.916   2.797  17.969  0.00  0.00    +0.000 C 
BRANCH   7  10
ATOM      8  O   UNL     1      54.654   1.418  19.714  0.00  0.00    +0.000 OA
ATOM      9  C   UNL     1      54.144   0.818  18.775  0.00  0.00    +0.000 C 
ATOM     10  N   UNL     1      53.310   1.412  17.861  0.00  0.00    +0.000 N 
ATOM     11  H   UNL     1      52.814   0.803  17.218  0.00  0.00    +0.000 HD
BRANCH   9  12
ATOM     12  C   UNL     1      54.382  -0.607  18.524  0.00  0.00    +0.000 A 
ATOM     13  C   UNL     1      55.177  -1.073  17.491  0.00  0.00    +0.000 A 
ATOM     14  S   UNL     1      55.186  -2.785  17.471  0.00  0.00    +0.000 S 
ATOM     15  C   UNL     1      54.141  -2.786  18.831  0.00  0.00    +0.000 A 
ATOM     16  N   UNL     1      53.799  -1.609  19.306  0.00  0.00    +0.000 NA
ENDBRANCH   9  12
ENDBRANCH   7  10
ENDBRANCH   1   7
BRANCH   4  17
ATOM     17  C   UNL     1      47.302   3.696  16.963  0.00  0.00    +0.000 C 
BRANCH  17  18
ATOM     18  N   UNL     1      47.146   4.656  15.900  0.00  0.00    +0.000 N 
ATOM     19  C   UNL     1      47.158   4.271  14.583  0.00  0.00    +0.000 C 
ATOM     20  O   UNL     1      47.257   3.093  14.251  0.00  0.00    +0.000 OA
ATOM     21  H   UNL     1      47.314   5.632  16.131  0.00  0.00    +0.000 HD
BRANCH  19  22
ATOM     22  C   UNL     1      46.983   5.337  13.587  0.00  0.00    +0.000 A 
ATOM     23  C   UNL     1      45.957   5.251  12.654  0.00  0.00    +0.000 A 
ATOM     24  S   UNL     1      45.868   6.596  11.610  0.00  0.00    +0.000 S 
ATOM     25  C   UNL     1      47.231   7.315  12.331  0.00  0.00    +0.000 A 
ATOM     26  N   UNL     1      47.718   8.503  11.881  0.00  0.00    +0.000 NA
ATOM     27  C   UNL     1      48.775   8.916  12.497  0.00  0.00    +0.000 A 
ATOM     28  N   UNL     1      49.385   8.251  13.530  0.00  0.00    +0.000 N 
ATOM     29  C   UNL     1      48.910   7.068  14.040  0.00  0.00    +0.000 A 
ATOM     30  O   UNL     1      49.448   6.525  15.000  0.00  0.00    +0.000 OA
ATOM     31  C   UNL     1      47.733   6.551  13.369  0.00  0.00    +0.000 A 
ATOM     32  H   UNL     1      50.204   8.633  13.979  0.00  0.00    +0.000 HD
ENDBRANCH  19  22
ENDBRANCH  17  18
ENDBRANCH   4  17
TORSDOF 6
ENDMDL
MODEL 6
REMARK VINA RESULT:    -6.566      3.816      8.711
REMARK INTER + INTRA:          -9.799
REMARK INTER:                  -8.916
REMARK INTRA:                  -0.883
REMARK UNBOUND:                -0.930
REMARK  Name = 
REMARK  6 active torsions:
REMARK  status: ('A' for Active; 'I' for Inactive)
REMARK    1  A    between atoms: C_2  and  C_25
REMARK    2  A    between atoms: N_3  and  C_4
REMARK    3  A    between atoms: C_4  and  C_5
REMARK    4  A    between atoms: C_8  and  C_9
REMARK    5  A    between atoms: C_9  and  N_10
REMARK    6  A    between atoms: C_11  and  C_13
REMARK                            x       y       z     vdW  Elec       q    Type
REMARK                         _______ _______ _______ _____ _____    ______ ____
ROOT
ATOM      1  C   UNL     1      51.263   4.484  17.717  0.00  0.00    +0.000 A 
ATOM      2  C   UNL     1      50.936   3.131  17.634  0.00  0.00    +0.000 A 
ATOM      3  C   UNL     1      49.632   2.771  17.298  0.00  0.00    +0.000 A 
ATOM      4  C   UNL     1      48.676   3.761  17.064  0.00  0.00    +0.000 A 
ATOM      5  C   UNL     1      49.097   5.083  17.156  0.00  0.00    +0.000 A 
ATOM      6  N   UNL     1      50.358   5.464  17.472  0.00  0.00    +0.000 NA
ENDROOT
BRANCH   1   7
ATOM      7  C   UNL     1      52.681   4.905  18.027  0.00  0.00    +0.000 C 
BRANCH   7  10
ATOM      8  O   UNL     1      53.128   7.563  17.190  0.00  0.00    +0.000 OA
ATOM      9  C   UNL     1      53.586   6.639  16.528  0.00  0.00    +0.000 C 
ATOM     10  N   UNL     1      53.397   5.316  16.842  0.00  0.00    +0.000 N 
ATOM     11  H   UNL     1      53.946   4.632  16.330  0.00  0.00    +0.000 HD
BRANCH   9  12
ATOM     12  C   UNL     1      54.385   6.853  15.317  0.00  0.00    +0.000 A 
ATOM     13  C   UNL     1      54.362   8.032  14.591  0.00  0.00    +0.000 A 
ATOM     14  S   UNL     1      55.375   7.907  13.217  0.00  0.00    +0.000 S 
ATOM     15  C   UNL     1      55.775   6.306  13.683  0.00  0.00    +0.000 A 
ATOM     16  N   UNL     1      55.222   5.864  14.791  0.00  0.00    +0.000 NA
ENDBRANCH   9  12
ENDBRANCH   7  10
ENDBRANCH   1   7
BRANCH   4  17
ATOM     17  C   UNL     1      47.267   3.417  16.681  0.00  0.00    +0.000 C 
BRANCH  17  18
ATOM     18  N   UNL     1      46.722   4.378  15.757  0.00  0.00    +0.000 N 
ATOM     19  C   UNL     1      46.776   4.176  14.401  0.00  0.00    +0.000 C 
ATOM     20  O   UNL     1      47.247   3.151  13.915  0.00  0.00    +0.000 OA
ATOM     21  H   UNL     1      46.564   5.319  16.109  0.00  0.00    +0.000 HD
BRANCH  19  22
ATOM     22  C   UNL     1      46.182   5.222  13.558  0.00  0.00    +0.000 A 
ATOM     23  C   UNL     1      46.853   6.424  13.370  0.00  0.00    +0.000 A 
ATOM     24  S   UNL     1      46.046   7.501  12.324  0.00  0.00    +0.000 S 
ATOM     25  C   UNL     1      44.745   6.423  12.128  0.00  0.00    +0.000 A 
ATOM     26  N   UNL     1      43.673   6.750  11.357  0.00  0.00    +0.000 NA
ATOM     27  C   UNL     1      42.745   5.854  11.325  0.00  0.00    +0.000 A 
ATOM     28  N   UNL     1      42.794   4.654  11.987  0.00  0.00    +0.000 N 
ATOM     29  C   UNL     1      43.871   4.266  12.748  0.00  0.00    +0.000 A 
ATOM     30  O   UNL     1      43.908   3.164  13.285  0.00  0.00    +0.000 OA
ATOM     31  C   UNL     1      44.934   5.248  12.833  0.00  0.00    +0.000 A 
ATOM     32  H   UNL     1      42.039   3.989  11.912  0.00  0.00    +0.000 HD
ENDBRANCH  19  22
ENDBRANCH  17  18
ENDBRANCH   4  17
TORSDOF 6
ENDMDL
MODEL 7
REMARK VINA RESULT:    -6.503      2.869      8.096
REMARK INTER + INTRA:          -9.714
REMARK INTER:                  -8.869
REMARK INTRA:                  -0.846
REMARK UNBOUND:                -0.930
REMARK  Name = 
REMARK  6 active torsions:
REMARK  status: ('A' for Active; 'I' for Inactive)
REMARK    1  A    between atoms: C_2  and  C_25
REMARK    2  A    between atoms: N_3  and  C_4
REMARK    3  A    between atoms: C_4  and  C_5
REMARK    4  A    between atoms: C_8  and  C_9
REMARK    5  A    between atoms: C_9  and  N_10
REMARK    6  A    between atoms: C_11  and  C_13
REMARK                            x       y       z     vdW  Elec       q    Type
REMARK                         _______ _______ _______ _____ _____    ______ ____
ROOT
ATOM      1  C   UNL     1      49.565   6.790  16.269  0.00  0.00    +0.000 A 
ATOM      2  C   UNL     1      48.491   6.112  15.695  0.00  0.00    +0.000 A 
ATOM      3  C   UNL     1      48.122   6.417  14.386  0.00  0.00    +0.000 A 
ATOM      4  C   UNL     1      48.820   7.396  13.677  0.00  0.00    +0.000 A 
ATOM      5  C   UNL     1      49.886   8.009  14.325  0.00  0.00    +0.000 A 
ATOM      6  N   UNL     1      50.273   7.730  15.593  0.00  0.00    +0.000 NA
ENDROOT
BRANCH   1   7
ATOM      7  C   UNL     1      50.021   6.445  17.668  0.00  0.00    +0.000 C 
BRANCH   7  10
ATOM      8  O   UNL     1      49.196   3.774  18.060  0.00  0.00    +0.000 OA
ATOM      9  C   UNL     1      50.382   4.015  17.863  0.00  0.00    +0.000 C 
ATOM     10  N   UNL     1      50.878   5.283  17.689  0.00  0.00    +0.000 N 
ATOM     11  H   UNL     1      51.839   5.368  17.374  0.00  0.00    +0.000 HD
BRANCH   9  12
ATOM     12  C   UNL     1      51.403   2.964  17.799  0.00  0.00    +0.000 A 
ATOM     13  C   UNL     1      52.734   3.180  18.110  0.00  0.00    +0.000 A 
ATOM     14  S   UNL     1      53.642   1.748  17.876  0.00  0.00    +0.000 S 
ATOM     15  C   UNL     1      52.209   0.944  17.385  0.00  0.00    +0.000 A 
ATOM     16  N   UNL     1      51.105   1.659  17.396  0.00  0.00    +0.000 NA
ENDBRANCH   9  12
ENDBRANCH   7  10
ENDBRANCH   1   7
BRANCH   4  17
ATOM     17  C   UNL     1      48.468   7.739  12.259  0.00  0.00    +0.000 C 
BRANCH  17  18
ATOM     18  N   UNL     1      47.707   6.687  11.636  0.00  0.00    +0.000 N 
ATOM     19  C   UNL     1      46.357   6.812  11.423  0.00  0.00    +0.000 C 
ATOM     20  O   UNL     1      45.746   7.838  11.711  0.00  0.00    +0.000 OA
ATOM     21  H   UNL     1      48.124   5.759  11.623  0.00  0.00    +0.000 HD
BRANCH  19  22
ATOM     22  C   UNL     1      45.688   5.677  10.773  0.00  0.00    +0.000 A 
ATOM     23  C   UNL     1      45.765   5.525   9.394  0.00  0.00    +0.000 A 
ATOM     24  S   UNL     1      44.977   4.128   8.816  0.00  0.00    +0.000 S 
ATOM     25  C   UNL     1      44.457   3.707  10.379  0.00  0.00    +0.000 A 
ATOM     26  N   UNL     1      43.691   2.602  10.590  0.00  0.00    +0.000 NA
ATOM     27  C   UNL     1      43.341   2.422  11.820  0.00  0.00    +0.000 A 
ATOM     28  N   UNL     1      43.693   3.242  12.860  0.00  0.00    +0.000 N 
ATOM     29  C   UNL     1      44.492   4.349  12.701  0.00  0.00    +0.000 A 
ATOM     30  O   UNL     1      44.833   5.033  13.660  0.00  0.00    +0.000 OA
ATOM     31  C   UNL     1      44.898   4.607  11.333  0.00  0.00    +0.000 A 
ATOM     32  H   UNL     1      43.395   3.040  13.803  0.00  0.00    +0.000 HD
ENDBRANCH  19  22
ENDBRANCH  17  18
ENDBRANCH   4  17
TORSDOF 6
ENDMDL
MODEL 8
REMARK VINA RESULT:    -6.496      2.414      4.067
REMARK INTER + INTRA:          -9.704
REMARK INTER:                  -8.648
REMARK INTRA:                  -1.056
REMARK UNBOUND:                -0.930
REMARK  Name = 
REMARK  6 active torsions:
REMARK  status: ('A' for Active; 'I' for Inactive)
REMARK    1  A    between atoms: C_2  and  C_25
REMARK    2  A    between atoms: N_3  and  C_4
REMARK    3  A    between atoms: C_4  and  C_5
REMARK    4  A    between atoms: C_8  and  C_9
REMARK    5  A    between atoms: C_9  and  N_10
REMARK    6  A    between atoms: C_11  and  C_13
REMARK                            x       y       z     vdW  Elec       q    Type
REMARK                         _______ _______ _______ _____ _____    ______ ____
ROOT
ATOM      1  C   UNL     1      45.093   4.554  11.902  0.00  0.00    +0.000 A 
ATOM      2  C   UNL     1      45.645   3.374  12.398  0.00  0.00    +0.000 A 
ATOM      3  C   UNL     1      46.437   3.429  13.543  0.00  0.00    +0.000 A 
ATOM      4  C   UNL     1      46.675   4.655  14.166  0.00  0.00    +0.000 A 
ATOM      5  C   UNL     1      46.072   5.777  13.609  0.00  0.00    +0.000 A 
ATOM      6  N   UNL     1      45.291   5.755  12.502  0.00  0.00    +0.000 NA
ENDROOT
BRANCH   1   7
ATOM      7  C   UNL     1      44.188   4.520  10.692  0.00  0.00    +0.000 C 
BRANCH   7  10
ATOM      8  O   UNL     1      46.000   5.486   8.755  0.00  0.00    +0.000 OA
ATOM      9  C   UNL     1      45.657   4.309   8.724  0.00  0.00    +0.000 C 
ATOM     10  N   UNL     1      44.761   3.759   9.607  0.00  0.00    +0.000 N 
ATOM     11  H   UNL     1      44.662   2.748   9.601  0.00  0.00    +0.000 HD
BRANCH   9  12
ATOM     12  C   UNL     1      46.166   3.363   7.727  0.00  0.00    +0.000 A 
ATOM     13  C   UNL     1      46.411   2.028   8.004  0.00  0.00    +0.000 A 
ATOM     14  S   UNL     1      47.045   1.239   6.623  0.00  0.00    +0.000 S 
ATOM     15  C   UNL     1      46.946   2.716   5.758  0.00  0.00    +0.000 A 
ATOM     16  N   UNL     1      46.463   3.748   6.416  0.00  0.00    +0.000 NA
ENDBRANCH   9  12
ENDBRANCH   7  10
ENDBRANCH   1   7
BRANCH   4  17
ATOM     17  C   UNL     1      47.505   4.754  15.412  0.00  0.00    +0.000 C 
BRANCH  17  18
ATOM     18  N   UNL     1      47.898   6.115  15.677  0.00  0.00    +0.000 N 
ATOM     19  C   UNL     1      49.129   6.413  16.203  0.00  0.00    +0.000 C 
ATOM     20  O   UNL     1      49.967   5.543  16.430  0.00  0.00    +0.000 OA
ATOM     21  H   UNL     1      47.155   6.807  15.737  0.00  0.00    +0.000 HD
BRANCH  19  22
ATOM     22  C   UNL     1      49.421   7.836  16.424  0.00  0.00    +0.000 A 
ATOM     23  C   UNL     1      49.718   8.291  17.703  0.00  0.00    +0.000 A 
ATOM     24  S   UNL     1      50.081   9.956  17.768  0.00  0.00    +0.000 S 
ATOM     25  C   UNL     1      49.800  10.139  16.101  0.00  0.00    +0.000 A 
ATOM     26  N   UNL     1      49.912  11.354  15.499  0.00  0.00    +0.000 NA
ATOM     27  C   UNL     1      49.638  11.353  14.238  0.00  0.00    +0.000 A 
ATOM     28  N   UNL     1      49.268  10.245  13.520  0.00  0.00    +0.000 N 
ATOM     29  C   UNL     1      49.176   8.992  14.076  0.00  0.00    +0.000 A 
ATOM     30  O   UNL     1      48.895   8.011  13.395  0.00  0.00    +0.000 OA
ATOM     31  C   UNL     1      49.456   8.941  15.497  0.00  0.00    +0.000 A 
ATOM     32  H   UNL     1      49.077  10.308  12.531  0.00  0.00    +0.000 HD
ENDBRANCH  19  22
ENDBRANCH  17  18
ENDBRANCH   4  17
TORSDOF 6
ENDMDL
