MODEL 1
REMARK VINA RESULT:    -8.924      0.000      0.000
REMARK INTER + INTRA:         -12.807
REMARK INTER:                 -12.054
REMARK INTRA:                  -0.754
REMARK UNBOUND:                -0.754
REMARK  Name = 
REMARK  7 active torsions:
REMARK  status: ('A' for Active; 'I' for Inactive)
REMARK    1  A    between atoms: C_1  and  C_2
REMARK    2  A    between atoms: C_5  and  O_6
REMARK    3  A    between atoms: O_6  and  C_7
REMARK    4  A    between atoms: C_11  and  C_12
REMARK    5  A    between atoms: C_12  and  C_13
REMARK    6  A    between atoms: C_13  and  N_14
REMARK    7  A    between atoms: C_18  and  C_19
REMARK                            x       y       z     vdW  Elec       q    Type
REMARK                         _______ _______ _______ _____ _____    ______ ____
ROOT
ATOM      1  C   UNL     1      43.337   5.476  12.212  0.00  0.00    +0.000 C 
ENDROOT
BRANCH   1   6
ATOM      2  C   UNL     1      46.810   5.004  13.684  0.00  0.00    +0.000 A 
ATOM      3  C   UNL     1      47.495   6.075  13.111  0.00  0.00    +0.000 A 
ATOM      4  C   UNL     1      46.808   7.019  12.350  0.00  0.00    +0.000 A 
ATOM      5  C   UNL     1      45.440   6.870  12.127  0.00  0.00    +0.000 A 
ATOM      6  C   UNL     1      44.758   5.759  12.642  0.00  0.00    +0.000 A 
ATOM      7  C   UNL     1      45.452   4.828  13.434  0.00  0.00    +0.000 A 
BRANCH   2   8
ATOM      8  O   UNL     1      47.568   4.173  14.465  0.00  0.00    +0.000 OA
BRANCH   8  13
ATOM      9  C   UNL     1      49.134   6.240  16.322  0.00  0.00    +0.000 C 
ATOM     10  C   UNL     1      48.364   5.032  16.813  0.00  0.00    +0.000 C 
ATOM     11  N   UNL     1      49.220   3.822  16.898  0.00  0.00    +0.000 NA
ATOM     12  C   UNL     1      48.018   2.995  16.643  0.00  0.00    +0.000 C 
ATOM     13  C   UNL     1      47.388   4.209  15.904  0.00  0.00    +0.000 C 
ATOM     14  H   UNL     1      49.678   3.671  17.794  0.00  0.00    +0.000 HD
ENDBRANCH   8  13
ENDBRANCH   2   8
ENDBRANCH   1   6
BRANCH   1  15
ATOM     15  C   UNL     1      43.371   4.302  11.229  0.00  0.00    +0.000 C 
BRANCH  15  16
ATOM     16  N   UNL     1      43.687   4.725   9.873  0.00  0.00    +0.000 N 
ATOM     17  C   UNL     1      44.618   3.954   9.183  0.00  0.00    +0.000 A 
ATOM     18  C   UNL     1      44.713   2.559   9.278  0.00  0.00    +0.000 A 
ATOM     19  N   UNL     1      45.600   1.797   8.590  0.00  0.00    +0.000 NA
ATOM     20  C   UNL     1      46.402   2.500   7.748  0.00  0.00    +0.000 A 
ATOM     21  C   UNL     1      46.319   3.878   7.625  0.00  0.00    +0.000 A 
ATOM     22  N   UNL     1      45.436   4.627   8.343  0.00  0.00    +0.000 NA
ATOM     23  H   UNL     1      43.964   5.699   9.761  0.00  0.00    +0.000 HD
BRANCH  20  24
ATOM     24  C   UNL     1      47.394   1.727   6.951  0.00  0.00    +0.000 C 
ATOM     25  N   UNL     1      48.472   2.443   6.504  0.00  0.00    +0.000 N 
ATOM     26  O   UNL     1      47.257   0.535   6.712  0.00  0.00    +0.000 OA
ATOM     27  H   UNL     1      48.549   3.430   6.720  0.00  0.00    +0.000 HD
ATOM     28  H   UNL     1      49.184   1.983   5.956  0.00  0.00    +0.000 HD
ENDBRANCH  20  24
ENDBRANCH  15  16
ENDBRANCH   1  15
TORSDOF 6
ENDMDL
MODEL 2
REMARK VINA RESULT:    -8.108      2.460      3.680
REMARK INTER + INTRA:         -11.706
REMARK INTER:                 -10.869
REMARK INTRA:                  -0.837
REMARK UNBOUND:                -0.754
REMARK  Name = 
REMARK  7 active torsions:
REMARK  status: ('A' for Active; 'I' for Inactive)
REMARK    1  A    between atoms: C_1  and  C_2
REMARK    2  A    between atoms: C_5  and  O_6
REMARK    3  A    between atoms: O_6  and  C_7
REMARK    4  A    between atoms: C_11  and  C_12
REMARK    5  A    between atoms: C_12  and  C_13
REMARK    6  A    between atoms: C_13  and  N_14
REMARK    7  A    between atoms: C_18  and  C_19
REMARK                            x       y       z     vdW  Elec       q    Type
REMARK                         _______ _______ _______ _____ _____    ______ ____
ROOT
ATOM      1  C   UNL     1      43.645   5.609  12.080  0.00  0.00    +0.000 C 
ENDROOT
BRANCH   1   6
ATOM      2  C   UNL     1      47.259   6.790  12.062  0.00  0.00    +0.000 A 
ATOM      3  C   UNL     1      47.796   6.036  13.105  0.00  0.00    +0.000 A 
ATOM      4  C   UNL     1      47.025   5.060  13.732  0.00  0.00    +0.000 A 
ATOM      5  C   UNL     1      45.701   4.863  13.342  0.00  0.00    +0.000 A 
ATOM      6  C   UNL     1      45.133   5.663  12.342  0.00  0.00    +0.000 A 
ATOM      7  C   UNL     1      45.926   6.625  11.693  0.00  0.00    +0.000 A 
BRANCH   2   8
ATOM      8  O   UNL     1      48.122   7.676  11.472  0.00  0.00    +0.000 OA
BRANCH   8  13
ATOM      9  C   UNL     1      46.466  10.372  11.872  0.00  0.00    +0.000 C 
ATOM     10  C   UNL     1      47.931  10.186  12.208  0.00  0.00    +0.000 C 
ATOM     11  N   UNL     1      48.813  10.526  11.062  0.00  0.00    +0.000 NA
ATOM     12  C   UNL     1      49.799   9.548  11.575  0.00  0.00    +0.000 C 
ATOM     13  C   UNL     1      48.629   8.785  12.257  0.00  0.00    +0.000 C 
ATOM     14  H   UNL     1      49.128  11.493  11.023  0.00  0.00    +0.000 HD
ENDBRANCH   8  13
ENDBRANCH   2   8
ENDBRANCH   1   6
BRANCH   1  15
ATOM     15  C   UNL     1      43.382   4.439  11.127  0.00  0.00    +0.000 C 
BRANCH  15  16
ATOM     16  N   UNL     1      43.715   4.763   9.749  0.00  0.00    +0.000 N 
ATOM     17  C   UNL     1      44.633   3.926   9.119  0.00  0.00    +0.000 A 
ATOM     18  C   UNL     1      44.696   2.540   9.308  0.00  0.00    +0.000 A 
ATOM     19  N   UNL     1      45.570   1.714   8.679  0.00  0.00    +0.000 NA
ATOM     20  C   UNL     1      46.393   2.341   7.798  0.00  0.00    +0.000 A 
ATOM     21  C   UNL     1      46.341   3.709   7.582  0.00  0.00    +0.000 A 
ATOM     22  N   UNL     1      45.471   4.523   8.242  0.00  0.00    +0.000 NA
ATOM     23  H   UNL     1      44.015   5.721   9.573  0.00  0.00    +0.000 HD
BRANCH  20  24
ATOM     24  C   UNL     1      47.372   1.494   7.062  0.00  0.00    +0.000 C 
ATOM     25  N   UNL     1      48.471   2.153   6.581  0.00  0.00    +0.000 N 
ATOM     26  O   UNL     1      47.207   0.293   6.899  0.00  0.00    +0.000 OA
ATOM     27  H   UNL     1      48.570   3.150   6.735  0.00  0.00    +0.000 HD
ATOM     28  H   UNL     1      49.176   1.642   6.071  0.00  0.00    +0.000 HD
ENDBRANCH  20  24
ENDBRANCH  15  16
ENDBRANCH   1  15
TORSDOF 6
ENDMDL
MODEL 3
REMARK VINA RESULT:    -7.773      1.618      2.057
REMARK INTER + INTRA:         -11.254
REMARK INTER:                 -10.802
REMARK INTRA:                  -0.452
REMARK UNBOUND:                -0.754
REMARK  Name = 
REMARK  7 active torsions:
REMARK  status: ('A' for Active; 'I' for Inactive)
REMARK    1  A    between atoms: C_1  and  C_2
REMARK    2  A    between atoms: C_5  and  O_6
REMARK    3  A    between atoms: O_6  and  C_7
REMARK    4  A    between atoms: C_11  and  C_12
REMARK    5  A    between atoms: C_12  and  C_13
REMARK    6  A    between atoms: C_13  and  N_14
REMARK    7  A    between atoms: C_18  and  C_19
REMARK                            x       y       z     vdW  Elec       q    Type
REMARK                         _______ _______ _______ _____ _____    ______ ____
ROOT
ATOM      1  C   UNL     1      43.341   4.337  12.608  0.00  0.00    +0.000 C 
ENDROOT
BRANCH   1   6
ATOM      2  C   UNL     1      46.687   6.092  13.024  0.00  0.00    +0.000 A 
ATOM      3  C   UNL     1      46.542   7.164  12.145  0.00  0.00    +0.000 A 
ATOM      4  C   UNL     1      45.322   7.390  11.512  0.00  0.00    +0.000 A 
ATOM      5  C   UNL     1      44.255   6.519  11.727  0.00  0.00    +0.000 A 
ATOM      6  C   UNL     1      44.414   5.400  12.556  0.00  0.00    +0.000 A 
ATOM      7  C   UNL     1      45.638   5.196  13.214  0.00  0.00    +0.000 A 
BRANCH   2   8
ATOM      8  O   UNL     1      47.907   6.000  13.642  0.00  0.00    +0.000 OA
BRANCH   8  13
ATOM      9  C   UNL     1      50.168   7.982  12.579  0.00  0.00    +0.000 C 
ATOM     10  C   UNL     1      49.670   7.907  14.007  0.00  0.00    +0.000 C 
ATOM     11  N   UNL     1      50.455   6.942  14.820  0.00  0.00    +0.000 NA
ATOM     12  C   UNL     1      49.249   6.711  15.648  0.00  0.00    +0.000 C 
ATOM     13  C   UNL     1      48.380   7.124  14.427  0.00  0.00    +0.000 C 
ATOM     14  H   UNL     1      51.258   7.332  15.309  0.00  0.00    +0.000 HD
ENDBRANCH   8  13
ENDBRANCH   2   8
ENDBRANCH   1   6
BRANCH   1  15
ATOM     15  C   UNL     1      43.618   3.339  11.479  0.00  0.00    +0.000 C 
BRANCH  15  16
ATOM     16  N   UNL     1      43.702   3.985  10.178  0.00  0.00    +0.000 N 
ATOM     17  C   UNL     1      44.695   3.522   9.318  0.00  0.00    +0.000 A 
ATOM     18  C   UNL     1      45.078   2.179   9.206  0.00  0.00    +0.000 A 
ATOM     19  N   UNL     1      46.026   1.716   8.351  0.00  0.00    +0.000 NA
ATOM     20  C   UNL     1      46.579   2.673   7.562  0.00  0.00    +0.000 A 
ATOM     21  C   UNL     1      46.207   4.006   7.643  0.00  0.00    +0.000 A 
ATOM     22  N   UNL     1      45.270   4.453   8.525  0.00  0.00    +0.000 NA
ATOM     23  H   UNL     1      43.763   5.002  10.186  0.00  0.00    +0.000 HD
BRANCH  20  24
ATOM     24  C   UNL     1      47.620   2.235   6.592  0.00  0.00    +0.000 C 
ATOM     25  N   UNL     1      47.762   3.029   5.486  0.00  0.00    +0.000 N 
ATOM     26  O   UNL     1      48.303   1.235   6.770  0.00  0.00    +0.000 OA
ATOM     27  H   UNL     1      47.175   3.848   5.373  0.00  0.00    +0.000 HD
ATOM     28  H   UNL     1      48.448   2.791   4.785  0.00  0.00    +0.000 HD
ENDBRANCH  20  24
ENDBRANCH  15  16
ENDBRANCH   1  15
TORSDOF 6
ENDMDL
MODEL 4
REMARK VINA RESULT:    -7.288      1.754      2.369
REMARK INTER + INTRA:         -10.598
REMARK INTER:                  -9.844
REMARK INTRA:                  -0.754
REMARK UNBOUND:                -0.754
REMARK  Name = 
REMARK  7 active torsions:
REMARK  status: ('A' for Active; 'I' for Inactive)
REMARK    1  A    between atoms: C_1  and  C_2
REMARK    2  A    between atoms: C_5  and  O_6
REMARK    3  A    between atoms: O_6  and  C_7
REMARK    4  A    between atoms: C_11  and  C_12
REMARK    5  A    between atoms: C_12  and  C_13
REMARK    6  A    between atoms: C_13  and  N_14
REMARK    7  A    between atoms: C_18  and  C_19
REMARK                            x       y       z     vdW  Elec       q    Type
REMARK                         _______ _______ _______ _____ _____    ______ ____
ROOT
ATOM      1  C   UNL     1      44.343   6.350  11.476  0.00  0.00    +0.000 C 
ENDROOT
BRANCH   1   6
ATOM      2  C   UNL     1      47.307   6.627  13.841  0.00  0.00    +0.000 A 
ATOM      3  C   UNL     1      47.422   5.311  14.286  0.00  0.00    +0.000 A 
ATOM      4  C   UNL     1      46.624   4.312  13.732  0.00  0.00    +0.000 A 
ATOM      5  C   UNL     1      45.681   4.636  12.759  0.00  0.00    +0.000 A 
ATOM      6  C   UNL     1      45.512   5.967  12.355  0.00  0.00    +0.000 A 
ATOM      7  C   UNL     1      46.341   6.964  12.896  0.00  0.00    +0.000 A 
BRANCH   2   8
ATOM      8  O   UNL     1      48.183   7.517  14.405  0.00  0.00    +0.000 OA
BRANCH   8  13
ATOM      9  C   UNL     1      49.226   7.659  17.415  0.00  0.00    +0.000 C 
ATOM     10  C   UNL     1      50.089   7.386  16.201  0.00  0.00    +0.000 C 
ATOM     11  N   UNL     1      50.641   8.636  15.618  0.00  0.00    +0.000 NA
ATOM     12  C   UNL     1      50.655   7.972  14.294  0.00  0.00    +0.000 C 
ATOM     13  C   UNL     1      49.502   7.053  14.788  0.00  0.00    +0.000 C 
ATOM     14  H   UNL     1      51.549   8.923  15.977  0.00  0.00    +0.000 HD
ENDBRANCH   8  13
ENDBRANCH   2   8
ENDBRANCH   1   6
BRANCH   1  15
ATOM     15  C   UNL     1      43.683   5.056  10.989  0.00  0.00    +0.000 C 
BRANCH  15  16
ATOM     16  N   UNL     1      43.727   4.924   9.541  0.00  0.00    +0.000 N 
ATOM     17  C   UNL     1      44.592   3.959   9.032  0.00  0.00    +0.000 A 
ATOM     18  C   UNL     1      44.822   2.712   9.628  0.00  0.00    +0.000 A 
ATOM     19  N   UNL     1      45.642   1.756   9.125  0.00  0.00    +0.000 NA
ATOM     20  C   UNL     1      46.227   2.088   7.944  0.00  0.00    +0.000 A 
ATOM     21  C   UNL     1      46.005   3.309   7.327  0.00  0.00    +0.000 A 
ATOM     22  N   UNL     1      45.195   4.265   7.861  0.00  0.00    +0.000 NA
ATOM     23  H   UNL     1      43.896   5.783   9.017  0.00  0.00    +0.000 HD
BRANCH  20  24
ATOM     24  C   UNL     1      47.133   1.081   7.328  0.00  0.00    +0.000 C 
ATOM     25  N   UNL     1      48.238   1.592   6.701  0.00  0.00    +0.000 N 
ATOM     26  O   UNL     1      46.908  -0.121   7.377  0.00  0.00    +0.000 OA
ATOM     27  H   UNL     1      48.388   2.594   6.679  0.00  0.00    +0.000 HD
ATOM     28  H   UNL     1      48.896   0.967   6.259  0.00  0.00    +0.000 HD
ENDBRANCH  20  24
ENDBRANCH  15  16
ENDBRANCH   1  15
TORSDOF 6
ENDMDL
MODEL 5
REMARK VINA RESULT:    -6.616      2.880      4.954
REMARK INTER + INTRA:          -9.691
REMARK INTER:                  -8.968
REMARK INTRA:                  -0.722
REMARK UNBOUND:                -0.754
REMARK  Name = 
REMARK  7 active torsions:
REMARK  status: ('A' for Active; 'I' for Inactive)
REMARK    1  A    between atoms: C_1  and  C_2
REMARK    2  A    between atoms: C_5  and  O_6
REMARK    3  A    between atoms: O_6  and  C_7
REMARK    4  A    between atoms: C_11  and  C_12
REMARK    5  A    between atoms: C_12  and  C_13
REMARK    6  A    between atoms: C_13  and  N_14
REMARK    7  A    between atoms: C_18  and  C_19
REMARK                            x       y       z     vdW  Elec       q    Type
REMARK                         _______ _______ _______ _____ _____    ______ ____
ROOT
ATOM      1  C   UNL     1      48.023   8.739  14.948  0.00  0.00    +0.000 C 
ENDROOT
BRANCH   1   6
ATOM      2  C   UNL     1      49.689   5.914  16.871  0.00  0.00    +0.000 A 
ATOM      3  C   UNL     1      49.916   6.523  18.104  0.00  0.00    +0.000 A 
ATOM      4  C   UNL     1      49.423   7.802  18.355  0.00  0.00    +0.000 A 
ATOM      5  C   UNL     1      48.735   8.489  17.357  0.00  0.00    +0.000 A 
ATOM      6  C   UNL     1      48.562   7.911  16.092  0.00  0.00    +0.000 A 
ATOM      7  C   UNL     1      49.036   6.610  15.857  0.00  0.00    +0.000 A 
BRANCH   2   8
ATOM      8  O   UNL     1      50.161   4.633  16.752  0.00  0.00    +0.000 OA
BRANCH   8  13
ATOM      9  C   UNL     1      51.504   1.797  17.321  0.00  0.00    +0.000 C 
ATOM     10  C   UNL     1      50.025   2.105  17.438  0.00  0.00    +0.000 C 
ATOM     11  N   UNL     1      49.302   1.861  16.164  0.00  0.00    +0.000 NA
ATOM     12  C   UNL     1      48.335   2.914  16.551  0.00  0.00    +0.000 C 
ATOM     13  C   UNL     1      49.448   3.562  17.421  0.00  0.00    +0.000 C 
ATOM     14  H   UNL     1      48.916   0.926  16.052  0.00  0.00    +0.000 HD
ENDBRANCH   8  13
ENDBRANCH   2   8
ENDBRANCH   1   6
BRANCH   1  15
ATOM     15  C   UNL     1      47.749   7.792  13.776  0.00  0.00    +0.000 C 
BRANCH  15  16
ATOM     16  N   UNL     1      46.357   7.822  13.354  0.00  0.00    +0.000 N 
ATOM     17  C   UNL     1      45.848   6.647  12.808  0.00  0.00    +0.000 A 
ATOM     18  C   UNL     1      46.179   5.361  13.254  0.00  0.00    +0.000 A 
ATOM     19  N   UNL     1      45.668   4.212  12.745  0.00  0.00    +0.000 NA
ATOM     20  C   UNL     1      44.756   4.398  11.755  0.00  0.00    +0.000 A 
ATOM     21  C   UNL     1      44.401   5.660  11.305  0.00  0.00    +0.000 A 
ATOM     22  N   UNL     1      44.944   6.801  11.814  0.00  0.00    +0.000 NA
ATOM     23  H   UNL     1      46.095   8.582  12.727  0.00  0.00    +0.000 HD
BRANCH  20  24
ATOM     24  C   UNL     1      44.145   3.180  11.156  0.00  0.00    +0.000 C 
ATOM     25  N   UNL     1      44.931   2.514  10.254  0.00  0.00    +0.000 N 
ATOM     26  O   UNL     1      43.020   2.800  11.448  0.00  0.00    +0.000 OA
ATOM     27  H   UNL     1      45.857   2.863  10.035  0.00  0.00    +0.000 HD
ATOM     28  H   UNL     1      44.579   1.680   9.807  0.00  0.00    +0.000 HD
ENDBRANCH  20  24
ENDBRANCH  15  16
ENDBRANCH   1  15
TORSDOF 6
ENDMDL
MODEL 6
REMARK VINA RESULT:    -6.566      3.011      7.552
REMARK INTER + INTRA:          -9.624
REMARK INTER:                  -8.911
REMARK INTRA:                  -0.712
REMARK UNBOUND:                -0.754
REMARK  Name = 
REMARK  7 active torsions:
REMARK  status: ('A' for Active; 'I' for Inactive)
REMARK    1  A    between atoms: C_1  and  C_2
REMARK    2  A    between atoms: C_5  and  O_6
REMARK    3  A    between atoms: O_6  and  C_7
REMARK    4  A    between atoms: C_11  and  C_12
REMARK    5  A    between atoms: C_12  and  C_13
REMARK    6  A    between atoms: C_13  and  N_14
REMARK    7  A    between atoms: C_18  and  C_19
REMARK                            x       y       z     vdW  Elec       q    Type
REMARK                         _______ _______ _______ _____ _____    ______ ____
ROOT
ATOM      1  C   UNL     1      49.014   8.053  12.404  0.00  0.00    +0.000 C 
ENDROOT
BRANCH   1   6
ATOM      2  C   UNL     1      45.629   6.606  11.454  0.00  0.00    +0.000 A 
ATOM      3  C   UNL     1      44.769   7.594  11.930  0.00  0.00    +0.000 A 
ATOM      4  C   UNL     1      45.284   8.782  12.445  0.00  0.00    +0.000 A 
ATOM      5  C   UNL     1      46.663   8.966  12.522  0.00  0.00    +0.000 A 
ATOM      6  C   UNL     1      47.535   7.949  12.110  0.00  0.00    +0.000 A 
ATOM      7  C   UNL     1      47.008   6.766  11.563  0.00  0.00    +0.000 A 
BRANCH   2   8
ATOM      8  O   UNL     1      45.018   5.507  10.909  0.00  0.00    +0.000 OA
BRANCH   8  13
ATOM      9  C   UNL     1      44.443   2.646   9.622  0.00  0.00    +0.000 C 
ATOM     10  C   UNL     1      44.329   2.983  11.095  0.00  0.00    +0.000 C 
ATOM     11  N   UNL     1      42.965   3.445  11.456  0.00  0.00    +0.000 NA
ATOM     12  C   UNL     1      43.564   4.258  12.539  0.00  0.00    +0.000 C 
ATOM     13  C   UNL     1      44.882   4.310  11.717  0.00  0.00    +0.000 C 
ATOM     14  H   UNL     1      42.321   2.716  11.756  0.00  0.00    +0.000 HD
ENDBRANCH   8  13
ENDBRANCH   2   8
ENDBRANCH   1   6
BRANCH   1  15
ATOM     15  C   UNL     1      49.171   8.387  13.891  0.00  0.00    +0.000 C 
BRANCH  15  16
ATOM     16  N   UNL     1      50.034   7.442  14.582  0.00  0.00    +0.000 N 
ATOM     17  C   UNL     1      49.401   6.472  15.354  0.00  0.00    +0.000 A 
ATOM     18  C   UNL     1      48.199   5.844  15.001  0.00  0.00    +0.000 A 
ATOM     19  N   UNL     1      47.589   4.878  15.734  0.00  0.00    +0.000 NA
ATOM     20  C   UNL     1      48.261   4.527  16.862  0.00  0.00    +0.000 A 
ATOM     21  C   UNL     1      49.458   5.122  17.225  0.00  0.00    +0.000 A 
ATOM     22  N   UNL     1      50.042   6.107  16.487  0.00  0.00    +0.000 NA
ATOM     23  H   UNL     1      50.772   7.847  15.157  0.00  0.00    +0.000 HD
BRANCH  20  24
ATOM     24  C   UNL     1      47.654   3.465  17.710  0.00  0.00    +0.000 C 
ATOM     25  N   UNL     1      48.331   3.180  18.865  0.00  0.00    +0.000 N 
ATOM     26  O   UNL     1      46.622   2.886  17.399  0.00  0.00    +0.000 OA
ATOM     27  H   UNL     1      49.185   3.678  19.087  0.00  0.00    +0.000 HD
ATOM     28  H   UNL     1      47.978   2.468  19.489  0.00  0.00    +0.000 HD
ENDBRANCH  20  24
ENDBRANCH  15  16
ENDBRANCH   1  15
TORSDOF 6
ENDMDL
MODEL 7
REMARK VINA RESULT:    -6.268      2.948      4.636
REMARK INTER + INTRA:          -9.221
REMARK INTER:                  -8.223
REMARK INTRA:                  -0.998
REMARK UNBOUND:                -0.754
REMARK  Name = 
REMARK  7 active torsions:
REMARK  status: ('A' for Active; 'I' for Inactive)
REMARK    1  A    between atoms: C_1  and  C_2
REMARK    2  A    between atoms: C_5  and  O_6
REMARK    3  A    between atoms: O_6  and  C_7
REMARK    4  A    between atoms: C_11  and  C_12
REMARK    5  A    between atoms: C_12  and  C_13
REMARK    6  A    between atoms: C_13  and  N_14
REMARK    7  A    between atoms: C_18  and  C_19
REMARK                            x       y       z     vdW  Elec       q    Type
REMARK                         _______ _______ _______ _____ _____    ______ ____
ROOT
ATOM      1  C   UNL     1      48.498   8.692  13.116  0.00  0.00    +0.000 C 
ENDROOT
BRANCH   1   6
ATOM      2  C   UNL     1      49.036   6.556  16.214  0.00  0.00    +0.000 A 
ATOM      3  C   UNL     1      50.427   6.572  16.316  0.00  0.00    +0.000 A 
ATOM      4  C   UNL     1      51.182   7.370  15.460  0.00  0.00    +0.000 A 
ATOM      5  C   UNL     1      50.549   8.124  14.473  0.00  0.00    +0.000 A 
ATOM      6  C   UNL     1      49.157   8.061  14.320  0.00  0.00    +0.000 A 
ATOM      7  C   UNL     1      48.400   7.277  15.207  0.00  0.00    +0.000 A 
BRANCH   2   8
ATOM      8  O   UNL     1      48.388   5.789  17.146  0.00  0.00    +0.000 OA
BRANCH   8  13
ATOM      9  C   UNL     1      47.087   3.812  15.007  0.00  0.00    +0.000 C 
ATOM     10  C   UNL     1      47.771   3.387  16.290  0.00  0.00    +0.000 C 
ATOM     11  N   UNL     1      46.818   3.294  17.425  0.00  0.00    +0.000 NA
ATOM     12  C   UNL     1      47.931   3.624  18.344  0.00  0.00    +0.000 C 
ATOM     13  C   UNL     1      48.632   4.359  17.167  0.00  0.00    +0.000 C 
ATOM     14  H   UNL     1      46.388   2.382  17.562  0.00  0.00    +0.000 HD
ENDBRANCH   8  13
ENDBRANCH   2   8
ENDBRANCH   1   6
BRANCH   1  15
ATOM     15  C   UNL     1      46.984   8.510  13.264  0.00  0.00    +0.000 C 
BRANCH  15  16
ATOM     16  N   UNL     1      46.339   8.186  12.001  0.00  0.00    +0.000 N 
ATOM     17  C   UNL     1      45.769   6.919  11.903  0.00  0.00    +0.000 A 
ATOM     18  C   UNL     1      45.108   6.268  12.953  0.00  0.00    +0.000 A 
ATOM     19  N   UNL     1      44.526   5.045  12.859  0.00  0.00    +0.000 NA
ATOM     20  C   UNL     1      44.605   4.485  11.623  0.00  0.00    +0.000 A 
ATOM     21  C   UNL     1      45.240   5.116  10.564  0.00  0.00    +0.000 A 
ATOM     22  N   UNL     1      45.838   6.333  10.687  0.00  0.00    +0.000 NA
ATOM     23  H   UNL     1      46.900   8.327  11.162  0.00  0.00    +0.000 HD
BRANCH  20  24
ATOM     24  C   UNL     1      43.978   3.147  11.443  0.00  0.00    +0.000 C 
ATOM     25  N   UNL     1      43.722   2.460  12.599  0.00  0.00    +0.000 N 
ATOM     26  O   UNL     1      43.710   2.692  10.339  0.00  0.00    +0.000 OA
ATOM     27  H   UNL     1      43.962   2.870  13.494  0.00  0.00    +0.000 HD
ATOM     28  H   UNL     1      43.300   1.544  12.552  0.00  0.00    +0.000 HD
ENDBRANCH  20  24
ENDBRANCH  15  16
ENDBRANCH   1  15
TORSDOF 6
ENDMDL
MODEL 8
REMARK VINA RESULT:    -5.940      3.966      6.517
REMARK INTER + INTRA:          -8.778
REMARK INTER:                  -8.385
REMARK INTRA:                  -0.393
REMARK UNBOUND:                -0.754
REMARK  Name = 
REMARK  7 active torsions:
REMARK  status: ('A' for Active; 'I' for Inactive)
REMARK    1  A    between atoms: C_1  and  C_2
REMARK    2  A    between atoms: C_5  and  O_6
REMARK    3  A    between atoms: O_6  and  C_7
REMARK    4  A    between atoms: C_11  and  C_12
REMARK    5  A    between atoms: C_12  and  C_13
REMARK    6  A    between atoms: C_13  and  N_14
REMARK    7  A    between atoms: C_18  and  C_19
REMARK                            x       y       z     vdW  Elec       q    Type
REMARK                         _______ _______ _______ _____ _____    ______ ____
ROOT
ATOM      1  C   UNL     1      47.765   2.858  16.960  0.00  0.00    +0.000 C 
ENDROOT
BRANCH   1   6
ATOM      2  C   UNL     1      51.305   3.624  18.115  0.00  0.00    +0.000 A 
ATOM      3  C   UNL     1      51.063   4.536  19.142  0.00  0.00    +0.000 A 
ATOM      4  C   UNL     1      49.758   4.810  19.542  0.00  0.00    +0.000 A 
ATOM      5  C   UNL     1      48.688   4.201  18.888  0.00  0.00    +0.000 A 
ATOM      6  C   UNL     1      48.920   3.335  17.810  0.00  0.00    +0.000 A 
ATOM      7  C   UNL     1      50.240   3.041  17.433  0.00  0.00    +0.000 A 
BRANCH   2   8
ATOM      8  O   UNL     1      52.625   3.379  17.845  0.00  0.00    +0.000 OA
BRANCH   8  13
ATOM      9  C   UNL     1      55.772   2.891  17.666  0.00  0.00    +0.000 C 
ATOM     10  C   UNL     1      54.754   1.874  18.137  0.00  0.00    +0.000 C 
ATOM     11  N   UNL     1      54.242   1.039  17.020  0.00  0.00    +0.000 NA
ATOM     12  C   UNL     1      52.969   0.888  17.761  0.00  0.00    +0.000 C 
ATOM     13  C   UNL     1      53.267   2.239  18.471  0.00  0.00    +0.000 C 
ATOM     14  H   UNL     1      54.756   0.178  16.845  0.00  0.00    +0.000 HD
ENDBRANCH   8  13
ENDBRANCH   2   8
ENDBRANCH   1   6
BRANCH   1  15
ATOM     15  C   UNL     1      47.509   3.919  15.884  0.00  0.00    +0.000 C 
BRANCH  15  16
ATOM     16  N   UNL     1      47.349   3.336  14.560  0.00  0.00    +0.000 N 
ATOM     17  C   UNL     1      46.424   3.949  13.720  0.00  0.00    +0.000 A 
ATOM     18  C   UNL     1      46.210   5.332  13.657  0.00  0.00    +0.000 A 
ATOM     19  N   UNL     1      45.329   5.940  12.823  0.00  0.00    +0.000 NA
ATOM     20  C   UNL     1      44.663   5.088  11.999  0.00  0.00    +0.000 A 
ATOM     21  C   UNL     1      44.867   3.718  12.032  0.00  0.00    +0.000 A 
ATOM     22  N   UNL     1      45.740   3.126  12.894  0.00  0.00    +0.000 NA
ATOM     23  H   UNL     1      47.162   2.334  14.531  0.00  0.00    +0.000 HD
BRANCH  20  24
ATOM     24  C   UNL     1      43.687   5.687  11.048  0.00  0.00    +0.000 C 
ATOM     25  N   UNL     1      43.387   7.004  11.269  0.00  0.00    +0.000 N 
ATOM     26  O   UNL     1      43.188   5.048  10.132  0.00  0.00    +0.000 OA
ATOM     27  H   UNL     1      43.819   7.499  12.041  0.00  0.00    +0.000 HD
ATOM     28  H   UNL     1      42.730   7.475  10.664  0.00  0.00    +0.000 HD
ENDBRANCH  20  24
ENDBRANCH  15  16
ENDBRANCH   1  15
TORSDOF 6
ENDMDL
