MODEL 1
REMARK VINA RESULT:    -8.534      0.000      0.000
REMARK INTER + INTRA:         -11.960
REMARK INTER:                 -11.028
REMARK INTRA:                  -0.931
REMARK UNBOUND:                -0.931
REMARK  Name = 
REMARK  5 active torsions:
REMARK  status: ('A' for Active; 'I' for Inactive)
REMARK    1  A    between atoms: C_2  and  C_4
REMARK    2  A    between atoms: N_8  and  C_9
REMARK    3  A    between atoms: C_9  and  C_10
REMARK    4  A    between atoms: C_10  and  C_11
REMARK    5  A    between atoms: C_15  and  N_16
REMARK                            x       y       z     vdW  Elec       q    Type
REMARK                         _______ _______ _______ _____ _____    ______ ____
ROOT
ATOM      1  C   UNL     1      43.067   4.679  10.881  0.00  0.00    +0.000 C 
ENDROOT
BRANCH   1   6
ATOM      2  C   UNL     1      46.444   2.478   7.748  0.00  0.00    +0.000 A 
ATOM      3  C   UNL     1      45.617   1.948   8.731  0.00  0.00    +0.000 A 
ATOM      4  C   UNL     1      44.810   2.811   9.470  0.00  0.00    +0.000 A 
ATOM      5  C   UNL     1      44.840   4.183   9.225  0.00  0.00    +0.000 A 
ATOM      6  N   UNL     1      44.061   5.082   9.913  0.00  0.00    +0.000 N 
ATOM      7  N   UNL     1      45.658   4.706   8.291  0.00  0.00    +0.000 NA
ATOM      8  C   UNL     1      46.447   3.853   7.582  0.00  0.00    +0.000 A 
ATOM      9  H   UNL     1      44.162   6.043   9.613  0.00  0.00    +0.000 HD
BRANCH   2  11
ATOM     10  N   UNL     1      48.349   2.250   6.263  0.00  0.00    +0.000 N 
ATOM     11  C   UNL     1      47.312   1.632   6.905  0.00  0.00    +0.000 C 
ATOM     12  O   UNL     1      47.133   0.425   6.811  0.00  0.00    +0.000 OA
ATOM     13  H   UNL     1      48.996   1.649   5.770  0.00  0.00    +0.000 HD
ATOM     14  H   UNL     1      48.668   3.176   6.509  0.00  0.00    +0.000 HD
ENDBRANCH   2  11
ENDBRANCH   1   6
BRANCH   1  15
ATOM     15  C   UNL     1      43.157   5.467  12.189  0.00  0.00    +0.000 C 
BRANCH  15  16
ATOM     16  C   UNL     1      44.560   5.341  12.739  0.00  0.00    +0.000 A 
ATOM     17  C   UNL     1      45.104   4.090  13.033  0.00  0.00    +0.000 A 
ATOM     18  C   UNL     1      46.439   3.990  13.405  0.00  0.00    +0.000 A 
ATOM     19  C   UNL     1      47.243   5.136  13.468  0.00  0.00    +0.000 A 
ATOM     20  C   UNL     1      46.741   6.412  13.176  0.00  0.00    +0.000 A 
ATOM     21  C   UNL     1      45.380   6.482  12.834  0.00  0.00    +0.000 A 
BRANCH  20  22
ATOM     22  N   UNL     1      47.548   7.535  13.180  0.00  0.00    +0.000 N 
ATOM     23  C   UNL     1      49.008   7.439  13.021  0.00  0.00    +0.000 C 
ATOM     24  C   UNL     1      49.465   8.066  11.703  0.00  0.00    +0.000 C 
ATOM     25  S   UNL     1      49.070   9.848  11.635  0.00  0.00    +0.000 S 
ATOM     26  C   UNL     1      47.288   9.717  12.029  0.00  0.00    +0.000 C 
ATOM     27  C   UNL     1      47.009   8.898  13.297  0.00  0.00    +0.000 C 
ENDBRANCH  20  22
ENDBRANCH  15  16
ENDBRANCH   1  15
TORSDOF 5
ENDMDL
MODEL 2
REMARK VINA RESULT:    -8.212      2.510      3.318
REMARK INTER + INTRA:         -11.544
REMARK INTER:                 -10.663
REMARK INTRA:                  -0.882
REMARK UNBOUND:                -0.931
REMARK  Name = 
REMARK  5 active torsions:
REMARK  status: ('A' for Active; 'I' for Inactive)
REMARK    1  A    between atoms: C_2  and  C_4
REMARK    2  A    between atoms: N_8  and  C_9
REMARK    3  A    between atoms: C_9  and  C_10
REMARK    4  A    between atoms: C_10  and  C_11
REMARK    5  A    between atoms: C_15  and  N_16
REMARK                            x       y       z     vdW  Elec       q    Type
REMARK                         _______ _______ _______ _____ _____    ______ ____
ROOT
ATOM      1  C   UNL     1      43.411   4.899  11.052  0.00  0.00    +0.000 C 
ENDROOT
BRANCH   1   6
ATOM      2  C   UNL     1      46.483   2.718   7.607  0.00  0.00    +0.000 A 
ATOM      3  C   UNL     1      46.151   4.047   7.836  0.00  0.00    +0.000 A 
ATOM      4  C   UNL     1      45.237   4.351   8.843  0.00  0.00    +0.000 A 
ATOM      5  C   UNL     1      44.666   3.332   9.603  0.00  0.00    +0.000 A 
ATOM      6  N   UNL     1      43.768   3.568  10.615  0.00  0.00    +0.000 N 
ATOM      7  N   UNL     1      44.964   2.039   9.371  0.00  0.00    +0.000 NA
ATOM      8  C   UNL     1      45.852   1.756   8.378  0.00  0.00    +0.000 A 
ATOM      9  H   UNL     1      43.455   2.739  11.104  0.00  0.00    +0.000 HD
BRANCH   2  11
ATOM     10  N   UNL     1      47.426   2.987   5.388  0.00  0.00    +0.000 N 
ATOM     11  C   UNL     1      47.459   2.312   6.577  0.00  0.00    +0.000 C 
ATOM     12  O   UNL     1      48.285   1.433   6.788  0.00  0.00    +0.000 OA
ATOM     13  H   UNL     1      48.162   2.773   4.728  0.00  0.00    +0.000 HD
ATOM     14  H   UNL     1      46.938   3.863   5.273  0.00  0.00    +0.000 HD
ENDBRANCH   2  11
ENDBRANCH   1   6
BRANCH   1  15
ATOM     15  C   UNL     1      43.727   5.145  12.529  0.00  0.00    +0.000 C 
BRANCH  15  16
ATOM     16  C   UNL     1      45.185   5.529  12.659  0.00  0.00    +0.000 A 
ATOM     17  C   UNL     1      45.778   6.400  11.745  0.00  0.00    +0.000 A 
ATOM     18  C   UNL     1      47.077   6.845  11.963  0.00  0.00    +0.000 A 
ATOM     19  C   UNL     1      47.782   6.437  13.103  0.00  0.00    +0.000 A 
ATOM     20  C   UNL     1      47.223   5.569  14.050  0.00  0.00    +0.000 A 
ATOM     21  C   UNL     1      45.921   5.112  13.784  0.00  0.00    +0.000 A 
BRANCH  20  22
ATOM     22  N   UNL     1      47.895   5.213  15.205  0.00  0.00    +0.000 N 
ATOM     23  C   UNL     1      48.955   6.061  15.775  0.00  0.00    +0.000 C 
ATOM     24  C   UNL     1      48.534   6.645  17.124  0.00  0.00    +0.000 C 
ATOM     25  S   UNL     1      48.226   5.331  18.356  0.00  0.00    +0.000 S 
ATOM     26  C   UNL     1      47.048   4.341  17.367  0.00  0.00    +0.000 C 
ATOM     27  C   UNL     1      47.575   3.997  15.966  0.00  0.00    +0.000 C 
ENDBRANCH  20  22
ENDBRANCH  15  16
ENDBRANCH   1  15
TORSDOF 5
ENDMDL
MODEL 3
REMARK VINA RESULT:    -7.923      1.724      2.360
REMARK INTER + INTRA:         -11.170
REMARK INTER:                 -10.282
REMARK INTRA:                  -0.889
REMARK UNBOUND:                -0.931
REMARK  Name = 
REMARK  5 active torsions:
REMARK  status: ('A' for Active; 'I' for Inactive)
REMARK    1  A    between atoms: C_2  and  C_4
REMARK    2  A    between atoms: N_8  and  C_9
REMARK    3  A    between atoms: C_9  and  C_10
REMARK    4  A    between atoms: C_10  and  C_11
REMARK    5  A    between atoms: C_15  and  N_16
REMARK                            x       y       z     vdW  Elec       q    Type
REMARK                         _______ _______ _______ _____ _____    ______ ____
ROOT
ATOM      1  C   UNL     1      43.355   3.653  11.132  0.00  0.00    +0.000 C 
ENDROOT
BRANCH   1   6
ATOM      2  C   UNL     1      46.531   2.508   7.302  0.00  0.00    +0.000 A 
ATOM      3  C   UNL     1      45.902   3.696   7.655  0.00  0.00    +0.000 A 
ATOM      4  C   UNL     1      45.041   3.704   8.750  0.00  0.00    +0.000 A 
ATOM      5  C   UNL     1      44.817   2.535   9.476  0.00  0.00    +0.000 A 
ATOM      6  N   UNL     1      43.989   2.482  10.570  0.00  0.00    +0.000 N 
ATOM      7  N   UNL     1      45.404   1.374   9.125  0.00  0.00    +0.000 NA
ATOM      8  C   UNL     1      46.236   1.379   8.047  0.00  0.00    +0.000 A 
ATOM      9  H   UNL     1      43.940   1.576  11.019  0.00  0.00    +0.000 HD
BRANCH   2  11
ATOM     10  N   UNL     1      47.366   3.369   5.194  0.00  0.00    +0.000 N 
ATOM     11  C   UNL     1      47.475   2.419   6.171  0.00  0.00    +0.000 C 
ATOM     12  O   UNL     1      48.339   1.553   6.125  0.00  0.00    +0.000 OA
ATOM     13  H   UNL     1      48.080   3.361   4.476  0.00  0.00    +0.000 HD
ATOM     14  H   UNL     1      46.843   4.223   5.320  0.00  0.00    +0.000 HD
ENDBRANCH   2  11
ENDBRANCH   1   6
BRANCH   1  15
ATOM     15  C   UNL     1      43.978   4.088  12.460  0.00  0.00    +0.000 C 
BRANCH  15  16
ATOM     16  C   UNL     1      44.825   5.319  12.220  0.00  0.00    +0.000 A 
ATOM     17  C   UNL     1      44.288   6.447  11.600  0.00  0.00    +0.000 A 
ATOM     18  C   UNL     1      45.043   7.611  11.515  0.00  0.00    +0.000 A 
ATOM     19  C   UNL     1      46.330   7.660  12.066  0.00  0.00    +0.000 A 
ATOM     20  C   UNL     1      46.907   6.553  12.704  0.00  0.00    +0.000 A 
ATOM     21  C   UNL     1      46.130   5.383  12.745  0.00  0.00    +0.000 A 
BRANCH  20  22
ATOM     22  N   UNL     1      48.153   6.619  13.301  0.00  0.00    +0.000 N 
ATOM     23  C   UNL     1      49.335   7.106  12.572  0.00  0.00    +0.000 C 
ATOM     24  C   UNL     1      49.843   8.425  13.156  0.00  0.00    +0.000 C 
ATOM     25  S   UNL     1      50.372   8.229  14.893  0.00  0.00    +0.000 S 
ATOM     26  C   UNL     1      48.837   7.465  15.530  0.00  0.00    +0.000 C 
ATOM     27  C   UNL     1      48.379   6.252  14.706  0.00  0.00    +0.000 C 
ENDBRANCH  20  22
ENDBRANCH  15  16
ENDBRANCH   1  15
TORSDOF 5
ENDMDL
MODEL 4
REMARK VINA RESULT:    -6.980      1.396      2.326
REMARK INTER + INTRA:          -9.952
REMARK INTER:                  -9.545
REMARK INTRA:                  -0.407
REMARK UNBOUND:                -0.931
REMARK  Name = 
REMARK  5 active torsions:
REMARK  status: ('A' for Active; 'I' for Inactive)
REMARK    1  A    between atoms: C_2  and  C_4
REMARK    2  A    between atoms: N_8  and  C_9
REMARK    3  A    between atoms: C_9  and  C_10
REMARK    4  A    between atoms: C_10  and  C_11
REMARK    5  A    between atoms: C_15  and  N_16
REMARK                            x       y       z     vdW  Elec       q    Type
REMARK                         _______ _______ _______ _____ _____    ______ ____
ROOT
ATOM      1  C   UNL     1      43.220   4.517  10.988  0.00  0.00    +0.000 C 
ENDROOT
BRANCH   1   6
ATOM      2  C   UNL     1      46.435   2.346   7.669  0.00  0.00    +0.000 A 
ATOM      3  C   UNL     1      45.703   1.816   8.725  0.00  0.00    +0.000 A 
ATOM      4  C   UNL     1      44.922   2.672   9.500  0.00  0.00    +0.000 A 
ATOM      5  C   UNL     1      44.882   4.036   9.217  0.00  0.00    +0.000 A 
ATOM      6  N   UNL     1      44.124   4.926   9.937  0.00  0.00    +0.000 N 
ATOM      7  N   UNL     1      45.608   4.560   8.210  0.00  0.00    +0.000 NA
ATOM      8  C   UNL     1      46.374   3.714   7.467  0.00  0.00    +0.000 A 
ATOM      9  H   UNL     1      44.166   5.881   9.605  0.00  0.00    +0.000 HD
BRANCH   2  11
ATOM     10  N   UNL     1      48.311   2.120   6.148  0.00  0.00    +0.000 N 
ATOM     11  C   UNL     1      47.269   1.507   6.786  0.00  0.00    +0.000 C 
ATOM     12  O   UNL     1      47.058   0.308   6.655  0.00  0.00    +0.000 OA
ATOM     13  H   UNL     1      48.936   1.518   5.626  0.00  0.00    +0.000 HD
ATOM     14  H   UNL     1      48.658   3.028   6.419  0.00  0.00    +0.000 HD
ENDBRANCH   2  11
ENDBRANCH   1   6
BRANCH   1  15
ATOM     15  C   UNL     1      43.357   5.365  12.255  0.00  0.00    +0.000 C 
BRANCH  15  16
ATOM     16  C   UNL     1      43.993   6.688  11.889  0.00  0.00    +0.000 A 
ATOM     17  C   UNL     1      43.259   7.678  11.237  0.00  0.00    +0.000 A 
ATOM     18  C   UNL     1      43.822   8.933  11.035  0.00  0.00    +0.000 A 
ATOM     19  C   UNL     1      45.114   9.211  11.501  0.00  0.00    +0.000 A 
ATOM     20  C   UNL     1      45.885   8.248  12.168  0.00  0.00    +0.000 A 
ATOM     21  C   UNL     1      45.299   6.982  12.327  0.00  0.00    +0.000 A 
BRANCH  20  22
ATOM     22  N   UNL     1      47.136   8.540  12.681  0.00  0.00    +0.000 N 
ATOM     23  C   UNL     1      47.382   8.602  14.131  0.00  0.00    +0.000 C 
ATOM     24  C   UNL     1      48.311   7.476  14.586  0.00  0.00    +0.000 C 
ATOM     25  S   UNL     1      49.952   7.600  13.792  0.00  0.00    +0.000 S 
ATOM     26  C   UNL     1      49.379   7.684  12.058  0.00  0.00    +0.000 C 
ATOM     27  C   UNL     1      48.311   8.762  11.826  0.00  0.00    +0.000 C 
ENDBRANCH  20  22
ENDBRANCH  15  16
ENDBRANCH   1  15
TORSDOF 5
ENDMDL
MODEL 5
REMARK VINA RESULT:    -6.724      3.935      7.358
REMARK INTER + INTRA:          -9.621
REMARK INTER:                  -9.106
REMARK INTRA:                  -0.514
REMARK UNBOUND:                -0.931
REMARK  Name = 
REMARK  5 active torsions:
REMARK  status: ('A' for Active; 'I' for Inactive)
REMARK    1  A    between atoms: C_2  and  C_4
REMARK    2  A    between atoms: N_8  and  C_9
REMARK    3  A    between atoms: C_9  and  C_10
REMARK    4  A    between atoms: C_10  and  C_11
REMARK    5  A    between atoms: C_15  and  N_16
REMARK                            x       y       z     vdW  Elec       q    Type
REMARK                         _______ _______ _______ _____ _____    ______ ____
ROOT
ATOM      1  C   UNL     1      47.294   6.646  12.065  0.00  0.00    +0.000 C 
ENDROOT
BRANCH   1   6
ATOM      2  C   UNL     1      47.896   4.367  16.593  0.00  0.00    +0.000 A 
ATOM      3  C   UNL     1      47.105   4.045  15.497  0.00  0.00    +0.000 A 
ATOM      4  C   UNL     1      47.114   4.889  14.387  0.00  0.00    +0.000 A 
ATOM      5  C   UNL     1      47.905   6.037  14.385  0.00  0.00    +0.000 A 
ATOM      6  N   UNL     1      47.964   6.901  13.319  0.00  0.00    +0.000 N 
ATOM      7  N   UNL     1      48.656   6.368  15.454  0.00  0.00    +0.000 NA
ATOM      8  C   UNL     1      48.630   5.540  16.534  0.00  0.00    +0.000 A 
ATOM      9  H   UNL     1      48.600   7.679  13.441  0.00  0.00    +0.000 HD
BRANCH   2  11
ATOM     10  N   UNL     1      47.048   2.503  17.894  0.00  0.00    +0.000 N 
ATOM     11  C   UNL     1      47.962   3.516  17.797  0.00  0.00    +0.000 C 
ATOM     12  O   UNL     1      48.818   3.686  18.655  0.00  0.00    +0.000 OA
ATOM     13  H   UNL     1      47.165   1.864  18.670  0.00  0.00    +0.000 HD
ATOM     14  H   UNL     1      46.502   2.185  17.107  0.00  0.00    +0.000 HD
ENDBRANCH   2  11
ENDBRANCH   1   6
BRANCH   1  15
ATOM     15  C   UNL     1      45.782   6.871  12.141  0.00  0.00    +0.000 C 
BRANCH  15  16
ATOM     16  C   UNL     1      45.079   5.568  11.830  0.00  0.00    +0.000 A 
ATOM     17  C   UNL     1      44.065   5.086  12.658  0.00  0.00    +0.000 A 
ATOM     18  C   UNL     1      43.342   3.962  12.278  0.00  0.00    +0.000 A 
ATOM     19  C   UNL     1      43.616   3.323  11.062  0.00  0.00    +0.000 A 
ATOM     20  C   UNL     1      44.621   3.776  10.196  0.00  0.00    +0.000 A 
ATOM     21  C   UNL     1      45.354   4.895  10.624  0.00  0.00    +0.000 A 
BRANCH  20  22
ATOM     22  N   UNL     1      44.851   3.182   8.968  0.00  0.00    +0.000 N 
ATOM     23  C   UNL     1      45.198   3.976   7.778  0.00  0.00    +0.000 C 
ATOM     24  C   UNL     1      46.627   3.689   7.315  0.00  0.00    +0.000 C 
ATOM     25  S   UNL     1      46.835   1.941   6.830  0.00  0.00    +0.000 S 
ATOM     26  C   UNL     1      46.190   1.183   8.363  0.00  0.00    +0.000 C 
ATOM     27  C   UNL     1      44.812   1.726   8.772  0.00  0.00    +0.000 C 
ENDBRANCH  20  22
ENDBRANCH  15  16
ENDBRANCH   1  15
TORSDOF 5
ENDMDL
MODEL 6
REMARK VINA RESULT:    -6.509      3.987      7.328
REMARK INTER + INTRA:          -9.344
REMARK INTER:                  -8.360
REMARK INTRA:                  -0.984
REMARK UNBOUND:                -0.931
REMARK  Name = 
REMARK  5 active torsions:
REMARK  status: ('A' for Active; 'I' for Inactive)
REMARK    1  A    between atoms: C_2  and  C_4
REMARK    2  A    between atoms: N_8  and  C_9
REMARK    3  A    between atoms: C_9  and  C_10
REMARK    4  A    between atoms: C_10  and  C_11
REMARK    5  A    between atoms: C_15  and  N_16
REMARK                            x       y       z     vdW  Elec       q    Type
REMARK                         _______ _______ _______ _____ _____    ______ ____
ROOT
ATOM      1  C   UNL     1      48.889   7.659  12.690  0.00  0.00    +0.000 C 
ENDROOT
BRANCH   1   6
ATOM      2  C   UNL     1      47.875   4.548  16.609  0.00  0.00    +0.000 A 
ATOM      3  C   UNL     1      47.247   4.719  15.381  0.00  0.00    +0.000 A 
ATOM      4  C   UNL     1      47.731   5.690  14.506  0.00  0.00    +0.000 A 
ATOM      5  C   UNL     1      48.825   6.476  14.864  0.00  0.00    +0.000 A 
ATOM      6  N   UNL     1      49.353   7.440  14.040  0.00  0.00    +0.000 N 
ATOM      7  N   UNL     1      49.424   6.332  16.062  0.00  0.00    +0.000 NA
ATOM      8  C   UNL     1      48.935   5.386  16.911  0.00  0.00    +0.000 A 
ATOM      9  H   UNL     1      50.165   7.915  14.414  0.00  0.00    +0.000 HD
BRANCH   2  11
ATOM     10  N   UNL     1      48.215   3.365  18.699  0.00  0.00    +0.000 N 
ATOM     11  C   UNL     1      47.441   3.528  17.583  0.00  0.00    +0.000 C 
ATOM     12  O   UNL     1      46.417   2.879  17.418  0.00  0.00    +0.000 OA
ATOM     13  H   UNL     1      47.856   2.738  19.408  0.00  0.00    +0.000 HD
ATOM     14  H   UNL     1      48.910   4.039  18.983  0.00  0.00    +0.000 HD
ENDBRANCH   2  11
ENDBRANCH   1   6
BRANCH   1  15
ATOM     15  C   UNL     1      48.333   9.068  12.472  0.00  0.00    +0.000 C 
BRANCH  15  16
ATOM     16  C   UNL     1      46.859   8.966  12.147  0.00  0.00    +0.000 A 
ATOM     17  C   UNL     1      46.106  10.108  11.873  0.00  0.00    +0.000 A 
ATOM     18  C   UNL     1      44.791   9.979  11.443  0.00  0.00    +0.000 A 
ATOM     19  C   UNL     1      44.226   8.709  11.268  0.00  0.00    +0.000 A 
ATOM     20  C   UNL     1      44.947   7.535  11.525  0.00  0.00    +0.000 A 
ATOM     21  C   UNL     1      46.263   7.700  11.988  0.00  0.00    +0.000 A 
BRANCH  20  22
ATOM     22  N   UNL     1      44.410   6.281  11.295  0.00  0.00    +0.000 N 
ATOM     23  C   UNL     1      45.251   5.140  10.898  0.00  0.00    +0.000 C 
ATOM     24  C   UNL     1      45.290   4.071  11.992  0.00  0.00    +0.000 C 
ATOM     25  S   UNL     1      43.629   3.382  12.313  0.00  0.00    +0.000 S 
ATOM     26  C   UNL     1      42.759   4.965  12.597  0.00  0.00    +0.000 C 
ATOM     27  C   UNL     1      42.981   5.986  11.472  0.00  0.00    +0.000 C 
ENDBRANCH  20  22
ENDBRANCH  15  16
ENDBRANCH   1  15
TORSDOF 5
ENDMDL
MODEL 7
REMARK VINA RESULT:    -6.026      3.706      5.760
REMARK INTER + INTRA:          -8.719
REMARK INTER:                  -7.980
REMARK INTRA:                  -0.739
REMARK UNBOUND:                -0.931
REMARK  Name = 
REMARK  5 active torsions:
REMARK  status: ('A' for Active; 'I' for Inactive)
REMARK    1  A    between atoms: C_2  and  C_4
REMARK    2  A    between atoms: N_8  and  C_9
REMARK    3  A    between atoms: C_9  and  C_10
REMARK    4  A    between atoms: C_10  and  C_11
REMARK    5  A    between atoms: C_15  and  N_16
REMARK                            x       y       z     vdW  Elec       q    Type
REMARK                         _______ _______ _______ _____ _____    ______ ____
ROOT
ATOM      1  C   UNL     1      46.983   8.629  12.746  0.00  0.00    +0.000 C 
ENDROOT
BRANCH   1   6
ATOM      2  C   UNL     1      44.412   4.456  11.318  0.00  0.00    +0.000 A 
ATOM      3  C   UNL     1      45.326   5.253  10.640  0.00  0.00    +0.000 A 
ATOM      4  C   UNL     1      45.849   6.375  11.281  0.00  0.00    +0.000 A 
ATOM      5  C   UNL     1      45.455   6.688  12.581  0.00  0.00    +0.000 A 
ATOM      6  N   UNL     1      45.943   7.772  13.268  0.00  0.00    +0.000 N 
ATOM      7  N   UNL     1      44.552   5.934  13.236  0.00  0.00    +0.000 NA
ATOM      8  C   UNL     1      44.042   4.845  12.594  0.00  0.00    +0.000 A 
ATOM      9  H   UNL     1      45.594   7.865  14.213  0.00  0.00    +0.000 HD
BRANCH   2  11
ATOM     10  N   UNL     1      44.179   2.948   9.432  0.00  0.00    +0.000 N 
ATOM     11  C   UNL     1      43.829   3.238  10.721  0.00  0.00    +0.000 C 
ATOM     12  O   UNL     1      43.090   2.502  11.362  0.00  0.00    +0.000 OA
ATOM     13  H   UNL     1      43.857   2.061   9.067  0.00  0.00    +0.000 HD
ATOM     14  H   UNL     1      44.962   3.385   8.969  0.00  0.00    +0.000 HD
ENDBRANCH   2  11
ENDBRANCH   1   6
BRANCH   1  15
ATOM     15  C   UNL     1      48.390   8.127  13.078  0.00  0.00    +0.000 C 
BRANCH  15  16
ATOM     16  C   UNL     1      48.570   8.137  14.580  0.00  0.00    +0.000 A 
ATOM     17  C   UNL     1      48.455   9.322  15.307  0.00  0.00    +0.000 A 
ATOM     18  C   UNL     1      48.487   9.284  16.696  0.00  0.00    +0.000 A 
ATOM     19  C   UNL     1      48.614   8.061  17.366  0.00  0.00    +0.000 A 
ATOM     20  C   UNL     1      48.726   6.845  16.677  0.00  0.00    +0.000 A 
ATOM     21  C   UNL     1      48.722   6.921  15.275  0.00  0.00    +0.000 A 
BRANCH  20  22
ATOM     22  N   UNL     1      48.791   5.632  17.339  0.00  0.00    +0.000 N 
ATOM     23  C   UNL     1      47.688   4.660  17.283  0.00  0.00    +0.000 C 
ATOM     24  C   UNL     1      48.102   3.393  16.532  0.00  0.00    +0.000 C 
ATOM     25  S   UNL     1      49.481   2.538  17.371  0.00  0.00    +0.000 S 
ATOM     26  C   UNL     1      50.622   3.963  17.480  0.00  0.00    +0.000 C 
ATOM     27  C   UNL     1      49.974   5.209  18.103  0.00  0.00    +0.000 C 
ENDBRANCH  20  22
ENDBRANCH  15  16
ENDBRANCH   1  15
TORSDOF 5
ENDMDL
MODEL 8
REMARK VINA RESULT:    -5.941      4.633      8.381
REMARK INTER + INTRA:          -8.608
REMARK INTER:                  -7.563
REMARK INTRA:                  -1.045
REMARK UNBOUND:                -0.931
REMARK  Name = 
REMARK  5 active torsions:
REMARK  status: ('A' for Active; 'I' for Inactive)
REMARK    1  A    between atoms: C_2  and  C_4
REMARK    2  A    between atoms: N_8  and  C_9
REMARK    3  A    between atoms: C_9  and  C_10
REMARK    4  A    between atoms: C_10  and  C_11
REMARK    5  A    between atoms: C_15  and  N_16
REMARK                            x       y       z     vdW  Elec       q    Type
REMARK                         _______ _______ _______ _____ _____    ______ ____
ROOT
ATOM      1  C   UNL     1      50.117   8.327  13.338  0.00  0.00    +0.000 C 
ENDROOT
BRANCH   1   6
ATOM      2  C   UNL     1      48.806   6.526  17.931  0.00  0.00    +0.000 A 
ATOM      3  C   UNL     1      48.295   7.570  17.170  0.00  0.00    +0.000 A 
ATOM      4  C   UNL     1      48.889   7.865  15.944  0.00  0.00    +0.000 A 
ATOM      5  C   UNL     1      49.980   7.122  15.496  0.00  0.00    +0.000 A 
ATOM      6  N   UNL     1      50.600   7.357  14.294  0.00  0.00    +0.000 N 
ATOM      7  N   UNL     1      50.496   6.124  16.240  0.00  0.00    +0.000 NA
ATOM      8  C   UNL     1      49.912   5.853  17.440  0.00  0.00    +0.000 A 
ATOM      9  H   UNL     1      51.361   6.724  14.080  0.00  0.00    +0.000 HD
BRANCH   2  11
ATOM     10  N   UNL     1      46.991   5.539  19.203  0.00  0.00    +0.000 N 
ATOM     11  C   UNL     1      48.222   6.134  19.229  0.00  0.00    +0.000 C 
ATOM     12  O   UNL     1      48.826   6.302  20.280  0.00  0.00    +0.000 OA
ATOM     13  H   UNL     1      46.644   5.183  20.084  0.00  0.00    +0.000 HD
ATOM     14  H   UNL     1      46.584   5.167  18.358  0.00  0.00    +0.000 HD
ENDBRANCH   2  11
ENDBRANCH   1   6
BRANCH   1  15
ATOM     15  C   UNL     1      49.378   7.686  12.161  0.00  0.00    +0.000 C 
BRANCH  15  16
ATOM     16  C   UNL     1      47.889   7.813  12.393  0.00  0.00    +0.000 A 
ATOM     17  C   UNL     1      47.238   9.033  12.211  0.00  0.00    +0.000 A 
ATOM     18  C   UNL     1      45.852   9.093  12.295  0.00  0.00    +0.000 A 
ATOM     19  C   UNL     1      45.108   7.932  12.544  0.00  0.00    +0.000 A 
ATOM     20  C   UNL     1      45.720   6.684  12.726  0.00  0.00    +0.000 A 
ATOM     21  C   UNL     1      47.123   6.664  12.666  0.00  0.00    +0.000 A 
BRANCH  20  22
ATOM     22  N   UNL     1      44.983   5.528  12.912  0.00  0.00    +0.000 N 
ATOM     23  C   UNL     1      43.512   5.542  12.925  0.00  0.00    +0.000 C 
ATOM     24  C   UNL     1      42.938   4.791  11.723  0.00  0.00    +0.000 C 
ATOM     25  S   UNL     1      43.423   3.030  11.739  0.00  0.00    +0.000 S 
ATOM     26  C   UNL     1      45.227   3.276  11.902  0.00  0.00    +0.000 C 
ATOM     27  C   UNL     1      45.608   4.206  13.063  0.00  0.00    +0.000 C 
ENDBRANCH  20  22
ENDBRANCH  15  16
ENDBRANCH   1  15
TORSDOF 5
ENDMDL
