MODEL 1
REMARK VINA RESULT:    -7.888      0.000      0.000
REMARK INTER + INTRA:          -9.737
REMARK INTER:                  -9.271
REMARK INTRA:                  -0.466
REMARK UNBOUND:                -0.466
REMARK  Name = 
REMARK  3 active torsions:
REMARK  status: ('A' for Active; 'I' for Inactive)
REMARK    1  A    between atoms: C_3  and  C_4
REMARK    2  A    between atoms: C_4  and  N_5
REMARK    3  A    between atoms: C_13  and  C_14
REMARK                            x       y       z     vdW  Elec       q    Type
REMARK                         _______ _______ _______ _____ _____    ______ ____
ROOT
ATOM      1  C   UNL     1      43.415   4.620  12.798  0.00  0.00    +0.000 A 
ATOM      2  C   UNL     1      43.397   3.672  11.774  0.00  0.00    +0.000 A 
ATOM      3  C   UNL     1      44.380   3.701  10.782  0.00  0.00    +0.000 A 
ATOM      4  C   UNL     1      45.393   4.671  10.857  0.00  0.00    +0.000 A 
ATOM      5  C   UNL     1      45.370   5.697  11.818  0.00  0.00    +0.000 A 
ATOM      6  C   UNL     1      44.385   5.632  12.811  0.00  0.00    +0.000 A 
ENDROOT
BRANCH   5   7
ATOM      7  C   UNL     1      46.247   6.922  11.561  0.00  0.00    +0.000 C 
ATOM      8  C   UNL     1      47.580   6.946  12.333  0.00  0.00    +0.000 C 
ATOM      9  C   UNL     1      47.428   7.513  13.740  0.00  0.00    +0.000 C 
ATOM     10  N   UNL     1      46.838   8.851  13.724  0.00  0.00    +0.000 NA
ATOM     11  C   UNL     1      45.518   8.833  13.092  0.00  0.00    +0.000 C 
ATOM     12  C   UNL     1      45.576   8.304  11.660  0.00  0.00    +0.000 C 
ATOM     13  H   UNL     1      47.449   9.482  13.204  0.00  0.00    +0.000 HD
ENDBRANCH   5   7
BRANCH   3  14
ATOM     14  C   UNL     1      44.267   2.862   9.531  0.00  0.00    +0.000 C 
BRANCH  14  15
ATOM     15  N   UNL     1      44.807   3.526   8.352  0.00  0.00    +0.000 N 
ATOM     16  C   UNL     1      45.835   2.763   7.753  0.00  0.00    +0.000 A 
ATOM     17  C   UNL     1      46.477   3.278   6.642  0.00  0.00    +0.000 A 
ATOM     18  C   UNL     1      47.446   2.484   6.068  0.00  0.00    +0.000 A 
ATOM     19  N   UNL     1      47.781   1.266   6.526  0.00  0.00    +0.000 NA
ATOM     20  C   UNL     1      47.091   0.850   7.594  0.00  0.00    +0.000 A 
ATOM     21  N   UNL     1      46.136   1.538   8.227  0.00  0.00    +0.000 NA
ATOM     22  H   UNL     1      45.145   4.459   8.565  0.00  0.00    +0.000 HD
ENDBRANCH  14  15
ENDBRANCH   3  14
TORSDOF 3
ENDMDL
MODEL 2
REMARK VINA RESULT:    -7.174      1.829      2.181
REMARK INTER + INTRA:          -8.898
REMARK INTER:                  -8.425
REMARK INTRA:                  -0.473
REMARK UNBOUND:                -0.466
REMARK  Name = 
REMARK  3 active torsions:
REMARK  status: ('A' for Active; 'I' for Inactive)
REMARK    1  A    between atoms: C_3  and  C_4
REMARK    2  A    between atoms: C_4  and  N_5
REMARK    3  A    between atoms: C_13  and  C_14
REMARK                            x       y       z     vdW  Elec       q    Type
REMARK                         _______ _______ _______ _____ _____    ______ ____
ROOT
ATOM      1  C   UNL     1      43.603   5.383  12.503  0.00  0.00    +0.000 A 
ATOM      2  C   UNL     1      43.340   4.550  11.415  0.00  0.00    +0.000 A 
ATOM      3  C   UNL     1      44.248   3.544  11.074  0.00  0.00    +0.000 A 
ATOM      4  C   UNL     1      45.398   3.371  11.862  0.00  0.00    +0.000 A 
ATOM      5  C   UNL     1      45.732   4.263  12.895  0.00  0.00    +0.000 A 
ATOM      6  C   UNL     1      44.795   5.250  13.228  0.00  0.00    +0.000 A 
ENDROOT
BRANCH   5   7
ATOM      7  C   UNL     1      47.175   4.250  13.398  0.00  0.00    +0.000 C 
ATOM      8  C   UNL     1      47.384   3.582  14.770  0.00  0.00    +0.000 C 
ATOM      9  C   UNL     1      47.129   4.540  15.928  0.00  0.00    +0.000 C 
ATOM     10  N   UNL     1      47.955   5.744  15.828  0.00  0.00    +0.000 NA
ATOM     11  C   UNL     1      47.693   6.455  14.577  0.00  0.00    +0.000 C 
ATOM     12  C   UNL     1      47.951   5.578  13.354  0.00  0.00    +0.000 C 
ATOM     13  H   UNL     1      48.941   5.478  15.861  0.00  0.00    +0.000 HD
ENDBRANCH   5   7
BRANCH   3  14
ATOM     14  C   UNL     1      44.134   2.784   9.773  0.00  0.00    +0.000 C 
BRANCH  14  15
ATOM     15  N   UNL     1      44.722   3.498   8.648  0.00  0.00    +0.000 N 
ATOM     16  C   UNL     1      45.729   2.732   8.017  0.00  0.00    +0.000 A 
ATOM     17  C   UNL     1      46.411   3.288   6.951  0.00  0.00    +0.000 A 
ATOM     18  C   UNL     1      47.357   2.493   6.343  0.00  0.00    +0.000 A 
ATOM     19  N   UNL     1      47.635   1.235   6.728  0.00  0.00    +0.000 NA
ATOM     20  C   UNL     1      46.910   0.783   7.757  0.00  0.00    +0.000 A 
ATOM     21  N   UNL     1      45.972   1.468   8.417  0.00  0.00    +0.000 NA
ATOM     22  H   UNL     1      45.093   4.401   8.924  0.00  0.00    +0.000 HD
ENDBRANCH  14  15
ENDBRANCH   3  14
TORSDOF 3
ENDMDL
MODEL 3
REMARK VINA RESULT:    -6.847      3.479      7.245
REMARK INTER + INTRA:          -8.513
REMARK INTER:                  -8.329
REMARK INTRA:                  -0.184
REMARK UNBOUND:                -0.466
REMARK  Name = 
REMARK  3 active torsions:
REMARK  status: ('A' for Active; 'I' for Inactive)
REMARK    1  A    between atoms: C_3  and  C_4
REMARK    2  A    between atoms: C_4  and  N_5
REMARK    3  A    between atoms: C_13  and  C_14
REMARK                            x       y       z     vdW  Elec       q    Type
REMARK                         _______ _______ _______ _____ _____    ______ ____
ROOT
ATOM      1  C   UNL     1      45.791   7.976  12.277  0.00  0.00    +0.000 A 
ATOM      2  C   UNL     1      46.634   7.237  13.108  0.00  0.00    +0.000 A 
ATOM      3  C   UNL     1      46.649   5.843  13.022  0.00  0.00    +0.000 A 
ATOM      4  C   UNL     1      45.832   5.212  12.069  0.00  0.00    +0.000 A 
ATOM      5  C   UNL     1      44.901   5.929  11.298  0.00  0.00    +0.000 A 
ATOM      6  C   UNL     1      44.921   7.327  11.390  0.00  0.00    +0.000 A 
ENDROOT
BRANCH   5   7
ATOM      7  C   UNL     1      43.785   5.133  10.621  0.00  0.00    +0.000 C 
ATOM      8  C   UNL     1      42.875   4.340  11.578  0.00  0.00    +0.000 C 
ATOM      9  C   UNL     1      43.454   2.974  11.933  0.00  0.00    +0.000 C 
ATOM     10  N   UNL     1      43.736   2.178  10.739  0.00  0.00    +0.000 NA
ATOM     11  C   UNL     1      44.687   2.866   9.865  0.00  0.00    +0.000 C 
ATOM     12  C   UNL     1      44.177   4.239   9.432  0.00  0.00    +0.000 C 
ATOM     13  H   UNL     1      42.867   2.019  10.228  0.00  0.00    +0.000 HD
ENDBRANCH   5   7
BRANCH   3  14
ATOM     14  C   UNL     1      47.352   4.994  14.055  0.00  0.00    +0.000 C 
BRANCH  14  15
ATOM     15  N   UNL     1      47.453   5.650  15.352  0.00  0.00    +0.000 N 
ATOM     16  C   UNL     1      47.835   4.741  16.364  0.00  0.00    +0.000 A 
ATOM     17  C   UNL     1      47.938   5.204  17.663  0.00  0.00    +0.000 A 
ATOM     18  C   UNL     1      48.349   4.292  18.611  0.00  0.00    +0.000 A 
ATOM     19  N   UNL     1      48.649   3.011  18.335  0.00  0.00    +0.000 NA
ATOM     20  C   UNL     1      48.534   2.665  17.047  0.00  0.00    +0.000 A 
ATOM     21  N   UNL     1      48.144   3.467  16.052  0.00  0.00    +0.000 NA
ATOM     22  H   UNL     1      46.589   6.116  15.610  0.00  0.00    +0.000 HD
ENDBRANCH  14  15
ENDBRANCH   3  14
TORSDOF 3
ENDMDL
MODEL 4
REMARK VINA RESULT:    -6.466      3.363      7.638
REMARK INTER + INTRA:          -8.065
REMARK INTER:                  -7.483
REMARK INTRA:                  -0.582
REMARK UNBOUND:                -0.466
REMARK  Name = 
REMARK  3 active torsions:
REMARK  status: ('A' for Active; 'I' for Inactive)
REMARK    1  A    between atoms: C_3  and  C_4
REMARK    2  A    between atoms: C_4  and  N_5
REMARK    3  A    between atoms: C_13  and  C_14
REMARK                            x       y       z     vdW  Elec       q    Type
REMARK                         _______ _______ _______ _____ _____    ______ ____
ROOT
ATOM      1  C   UNL     1      46.001   8.264  12.762  0.00  0.00    +0.000 A 
ATOM      2  C   UNL     1      47.220   8.165  13.433  0.00  0.00    +0.000 A 
ATOM      3  C   UNL     1      47.678   6.917  13.862  0.00  0.00    +0.000 A 
ATOM      4  C   UNL     1      46.909   5.776  13.577  0.00  0.00    +0.000 A 
ATOM      5  C   UNL     1      45.632   5.866  12.997  0.00  0.00    +0.000 A 
ATOM      6  C   UNL     1      45.207   7.127  12.558  0.00  0.00    +0.000 A 
ENDROOT
BRANCH   5   7
ATOM      7  C   UNL     1      44.716   4.649  13.117  0.00  0.00    +0.000 C 
ATOM      8  C   UNL     1      45.177   3.403  12.338  0.00  0.00    +0.000 C 
ATOM      9  C   UNL     1      44.730   3.430  10.881  0.00  0.00    +0.000 C 
ATOM     10  N   UNL     1      43.280   3.584  10.761  0.00  0.00    +0.000 NA
ATOM     11  C   UNL     1      42.832   4.821  11.401  0.00  0.00    +0.000 C 
ATOM     12  C   UNL     1      43.212   4.871  12.880  0.00  0.00    +0.000 C 
ATOM     13  H   UNL     1      42.820   2.790  11.209  0.00  0.00    +0.000 HD
ENDBRANCH   5   7
BRANCH   3  14
ATOM     14  C   UNL     1      48.856   6.786  14.798  0.00  0.00    +0.000 C 
BRANCH  14  15
ATOM     15  N   UNL     1      48.503   7.030  16.190  0.00  0.00    +0.000 N 
ATOM     16  C   UNL     1      48.550   5.841  16.953  0.00  0.00    +0.000 A 
ATOM     17  C   UNL     1      48.203   5.900  18.291  0.00  0.00    +0.000 A 
ATOM     18  C   UNL     1      48.299   4.726  19.004  0.00  0.00    +0.000 A 
ATOM     19  N   UNL     1      48.706   3.560  18.473  0.00  0.00    +0.000 NA
ATOM     20  C   UNL     1      49.035   3.610  17.177  0.00  0.00    +0.000 A 
ATOM     21  N   UNL     1      48.978   4.692  16.394  0.00  0.00    +0.000 NA
ATOM     22  H   UNL     1      47.591   7.466  16.279  0.00  0.00    +0.000 HD
ENDBRANCH  14  15
ENDBRANCH   3  14
TORSDOF 3
ENDMDL
MODEL 5
REMARK VINA RESULT:    -6.313      4.475      7.576
REMARK INTER + INTRA:          -7.886
REMARK INTER:                  -7.505
REMARK INTRA:                  -0.381
REMARK UNBOUND:                -0.466
REMARK  Name = 
REMARK  3 active torsions:
REMARK  status: ('A' for Active; 'I' for Inactive)
REMARK    1  A    between atoms: C_3  and  C_4
REMARK    2  A    between atoms: C_4  and  N_5
REMARK    3  A    between atoms: C_13  and  C_14
REMARK                            x       y       z     vdW  Elec       q    Type
REMARK                         _______ _______ _______ _____ _____    ______ ____
ROOT
ATOM      1  C   UNL     1      47.530   6.678  13.278  0.00  0.00    +0.000 A 
ATOM      2  C   UNL     1      47.971   6.219  14.519  0.00  0.00    +0.000 A 
ATOM      3  C   UNL     1      47.451   5.036  15.050  0.00  0.00    +0.000 A 
ATOM      4  C   UNL     1      46.511   4.311  14.298  0.00  0.00    +0.000 A 
ATOM      5  C   UNL     1      45.977   4.807  13.096  0.00  0.00    +0.000 A 
ATOM      6  C   UNL     1      46.531   5.985  12.579  0.00  0.00    +0.000 A 
ENDROOT
BRANCH   5   7
ATOM      7  C   UNL     1      44.683   4.175  12.586  0.00  0.00    +0.000 C 
ATOM      8  C   UNL     1      44.783   3.506  11.202  0.00  0.00    +0.000 C 
ATOM      9  C   UNL     1      44.592   4.499  10.061  0.00  0.00    +0.000 C 
ATOM     10  N   UNL     1      43.324   5.220  10.176  0.00  0.00    +0.000 NA
ATOM     11  C   UNL     1      43.254   5.954  11.440  0.00  0.00    +0.000 C 
ATOM     12  C   UNL     1      43.406   5.032  12.648  0.00  0.00    +0.000 C 
ATOM     13  H   UNL     1      42.553   4.552  10.134  0.00  0.00    +0.000 HD
ENDBRANCH   5   7
BRANCH   3  14
ATOM     14  C   UNL     1      47.709   4.630  16.482  0.00  0.00    +0.000 C 
BRANCH  14  15
ATOM     15  N   UNL     1      48.968   5.150  16.999  0.00  0.00    +0.000 N 
ATOM     16  C   UNL     1      49.898   4.113  17.235  0.00  0.00    +0.000 A 
ATOM     17  C   UNL     1      51.133   4.441  17.764  0.00  0.00    +0.000 A 
ATOM     18  C   UNL     1      52.022   3.404  17.943  0.00  0.00    +0.000 A 
ATOM     19  N   UNL     1      51.750   2.125  17.631  0.00  0.00    +0.000 NA
ATOM     20  C   UNL     1      50.536   1.913  17.110  0.00  0.00    +0.000 A 
ATOM     21  N   UNL     1      49.601   2.843  16.896  0.00  0.00    +0.000 NA
ATOM     22  H   UNL     1      48.834   5.697  17.843  0.00  0.00    +0.000 HD
ENDBRANCH  14  15
ENDBRANCH   3  14
TORSDOF 3
ENDMDL
MODEL 6
REMARK VINA RESULT:    -5.961      4.337      6.836
REMARK INTER + INTRA:          -7.473
REMARK INTER:                  -6.981
REMARK INTRA:                  -0.492
REMARK UNBOUND:                -0.466
REMARK  Name = 
REMARK  3 active torsions:
REMARK  status: ('A' for Active; 'I' for Inactive)
REMARK    1  A    between atoms: C_3  and  C_4
REMARK    2  A    between atoms: C_4  and  N_5
REMARK    3  A    between atoms: C_13  and  C_14
REMARK                            x       y       z     vdW  Elec       q    Type
REMARK                         _______ _______ _______ _____ _____    ______ ____
ROOT
ATOM      1  C   UNL     1      49.810   7.231  15.352  0.00  0.00    +0.000 A 
ATOM      2  C   UNL     1      48.879   6.903  14.366  0.00  0.00    +0.000 A 
ATOM      3  C   UNL     1      47.943   5.893  14.601  0.00  0.00    +0.000 A 
ATOM      4  C   UNL     1      47.939   5.247  15.848  0.00  0.00    +0.000 A 
ATOM      5  C   UNL     1      48.932   5.489  16.814  0.00  0.00    +0.000 A 
ATOM      6  C   UNL     1      49.845   6.521  16.560  0.00  0.00    +0.000 A 
ENDROOT
BRANCH   5   7
ATOM      7  C   UNL     1      49.094   4.459  17.931  0.00  0.00    +0.000 C 
ATOM      8  C   UNL     1      50.530   4.292  18.463  0.00  0.00    +0.000 C 
ATOM      9  C   UNL     1      51.351   3.318  17.626  0.00  0.00    +0.000 C 
ATOM     10  N   UNL     1      50.703   2.011  17.522  0.00  0.00    +0.000 NA
ATOM     11  C   UNL     1      49.377   2.132  16.916  0.00  0.00    +0.000 C 
ATOM     12  C   UNL     1      48.468   3.071  17.707  0.00  0.00    +0.000 C 
ATOM     13  H   UNL     1      50.608   1.608  18.456  0.00  0.00    +0.000 HD
ENDBRANCH   5   7
BRANCH   3  14
ATOM     14  C   UNL     1      47.084   5.337  13.490  0.00  0.00    +0.000 C 
BRANCH  14  15
ATOM     15  N   UNL     1      45.770   5.963  13.424  0.00  0.00    +0.000 N 
ATOM     16  C   UNL     1      44.851   5.164  12.706  0.00  0.00    +0.000 A 
ATOM     17  C   UNL     1      43.565   5.640  12.523  0.00  0.00    +0.000 A 
ATOM     18  C   UNL     1      42.693   4.813  11.850  0.00  0.00    +0.000 A 
ATOM     19  N   UNL     1      43.027   3.598  11.382  0.00  0.00    +0.000 NA
ATOM     20  C   UNL     1      44.287   3.221  11.625  0.00  0.00    +0.000 A 
ATOM     21  N   UNL     1      45.212   3.943  12.264  0.00  0.00    +0.000 NA
ATOM     22  H   UNL     1      45.813   6.893  13.020  0.00  0.00    +0.000 HD
ENDBRANCH  14  15
ENDBRANCH   3  14
TORSDOF 3
ENDMDL
MODEL 7
REMARK VINA RESULT:    -5.718      3.962      5.979
REMARK INTER + INTRA:          -7.186
REMARK INTER:                  -6.688
REMARK INTRA:                  -0.498
REMARK UNBOUND:                -0.466
REMARK  Name = 
REMARK  3 active torsions:
REMARK  status: ('A' for Active; 'I' for Inactive)
REMARK    1  A    between atoms: C_3  and  C_4
REMARK    2  A    between atoms: C_4  and  N_5
REMARK    3  A    between atoms: C_13  and  C_14
REMARK                            x       y       z     vdW  Elec       q    Type
REMARK                         _______ _______ _______ _____ _____    ______ ____
ROOT
ATOM      1  C   UNL     1      47.661   4.467  18.197  0.00  0.00    +0.000 A 
ATOM      2  C   UNL     1      47.142   3.959  17.006  0.00  0.00    +0.000 A 
ATOM      3  C   UNL     1      47.513   4.530  15.786  0.00  0.00    +0.000 A 
ATOM      4  C   UNL     1      48.435   5.589  15.784  0.00  0.00    +0.000 A 
ATOM      5  C   UNL     1      48.888   6.182  16.976  0.00  0.00    +0.000 A 
ATOM      6  C   UNL     1      48.516   5.578  18.183  0.00  0.00    +0.000 A 
ENDROOT
BRANCH   5   7
ATOM      7  C   UNL     1      49.531   7.565  16.874  0.00  0.00    +0.000 C 
ATOM      8  C   UNL     1      49.124   8.558  17.979  0.00  0.00    +0.000 C 
ATOM      9  C   UNL     1      47.823   9.285  17.658  0.00  0.00    +0.000 C 
ATOM     10  N   UNL     1      47.890   9.973  16.369  0.00  0.00    +0.000 NA
ATOM     11  C   UNL     1      48.168   9.029  15.286  0.00  0.00    +0.000 C 
ATOM     12  C   UNL     1      49.475   8.271  15.508  0.00  0.00    +0.000 C 
ATOM     13  H   UNL     1      48.632  10.674  16.400  0.00  0.00    +0.000 HD
ENDBRANCH   5   7
BRANCH   3  14
ATOM     14  C   UNL     1      46.799   4.184  14.500  0.00  0.00    +0.000 C 
BRANCH  14  15
ATOM     15  N   UNL     1      45.991   5.283  13.988  0.00  0.00    +0.000 N 
ATOM     16  C   UNL     1      44.983   4.820  13.113  0.00  0.00    +0.000 A 
ATOM     17  C   UNL     1      44.152   5.748  12.512  0.00  0.00    +0.000 A 
ATOM     18  C   UNL     1      43.161   5.251  11.696  0.00  0.00    +0.000 A 
ATOM     19  N   UNL     1      42.969   3.940  11.467  0.00  0.00    +0.000 NA
ATOM     20  C   UNL     1      43.812   3.122  12.107  0.00  0.00    +0.000 A 
ATOM     21  N   UNL     1      44.806   3.498  12.918  0.00  0.00    +0.000 NA
ATOM     22  H   UNL     1      46.557   5.987  13.527  0.00  0.00    +0.000 HD
ENDBRANCH  14  15
ENDBRANCH   3  14
TORSDOF 3
ENDMDL
MODEL 8
REMARK VINA RESULT:    -5.678      3.084      7.240
REMARK INTER + INTRA:          -7.139
REMARK INTER:                  -6.880
REMARK INTRA:                  -0.259
REMARK UNBOUND:                -0.466
REMARK  Name = 
REMARK  3 active torsions:
REMARK  status: ('A' for Active; 'I' for Inactive)
REMARK    1  A    between atoms: C_3  and  C_4
REMARK    2  A    between atoms: C_4  and  N_5
REMARK    3  A    between atoms: C_13  and  C_14
REMARK                            x       y       z     vdW  Elec       q    Type
REMARK                         _______ _______ _______ _____ _____    ______ ____
ROOT
ATOM      1  C   UNL     1      45.357   8.794  12.153  0.00  0.00    +0.000 A 
ATOM      2  C   UNL     1      46.523   8.256  12.699  0.00  0.00    +0.000 A 
ATOM      3  C   UNL     1      46.796   6.894  12.554  0.00  0.00    +0.000 A 
ATOM      4  C   UNL     1      45.899   6.096  11.824  0.00  0.00    +0.000 A 
ATOM      5  C   UNL     1      44.671   6.595  11.356  0.00  0.00    +0.000 A 
ATOM      6  C   UNL     1      44.432   7.967  11.499  0.00  0.00    +0.000 A 
ENDROOT
BRANCH   5   7
ATOM      7  C   UNL     1      43.600   5.576  10.965  0.00  0.00    +0.000 C 
ATOM      8  C   UNL     1      42.756   5.033  12.133  0.00  0.00    +0.000 C 
ATOM      9  C   UNL     1      43.426   3.860  12.839  0.00  0.00    +0.000 C 
ATOM     10  N   UNL     1      43.744   2.777  11.908  0.00  0.00    +0.000 NA
ATOM     11  C   UNL     1      44.637   3.245  10.848  0.00  0.00    +0.000 C 
ATOM     12  C   UNL     1      44.034   4.408  10.063  0.00  0.00    +0.000 C 
ATOM     13  H   UNL     1      42.880   2.430  11.489  0.00  0.00    +0.000 HD
ENDBRANCH   5   7
BRANCH   3  14
ATOM     14  C   UNL     1      47.906   6.222  13.327  0.00  0.00    +0.000 C 
BRANCH  14  15
ATOM     15  N   UNL     1      49.098   7.052  13.441  0.00  0.00    +0.000 N 
ATOM     16  C   UNL     1      49.657   6.982  14.737  0.00  0.00    +0.000 A 
ATOM     17  C   UNL     1      50.776   7.745  15.016  0.00  0.00    +0.000 A 
ATOM     18  C   UNL     1      51.308   7.618  16.280  0.00  0.00    +0.000 A 
ATOM     19  N   UNL     1      50.804   6.806  17.225  0.00  0.00    +0.000 NA
ATOM     20  C   UNL     1      49.732   6.097  16.852  0.00  0.00    +0.000 A 
ATOM     21  N   UNL     1      49.137   6.145  15.657  0.00  0.00    +0.000 NA
ATOM     22  H   UNL     1      48.913   8.018  13.192  0.00  0.00    +0.000 HD
ENDBRANCH  14  15
ENDBRANCH   3  14
TORSDOF 3
ENDMDL
MODEL 9
REMARK VINA RESULT:    -5.571      4.696      6.832
REMARK INTER + INTRA:          -7.015
REMARK INTER:                  -6.501
REMARK INTRA:                  -0.513
REMARK UNBOUND:                -0.466
REMARK  Name = 
REMARK  3 active torsions:
REMARK  status: ('A' for Active; 'I' for Inactive)
REMARK    1  A    between atoms: C_3  and  C_4
REMARK    2  A    between atoms: C_4  and  N_5
REMARK    3  A    between atoms: C_13  and  C_14
REMARK                            x       y       z     vdW  Elec       q    Type
REMARK                         _______ _______ _______ _____ _____    ______ ____
ROOT
ATOM      1  C   UNL     1      48.268   2.991  18.154  0.00  0.00    +0.000 A 
ATOM      2  C   UNL     1      47.928   2.864  16.807  0.00  0.00    +0.000 A 
ATOM      3  C   UNL     1      47.701   4.007  16.035  0.00  0.00    +0.000 A 
ATOM      4  C   UNL     1      47.855   5.270  16.630  0.00  0.00    +0.000 A 
ATOM      5  C   UNL     1      48.094   5.418  18.008  0.00  0.00    +0.000 A 
ATOM      6  C   UNL     1      48.336   4.257  18.753  0.00  0.00    +0.000 A 
ENDROOT
BRANCH   5   7
ATOM      7  C   UNL     1      47.823   6.789  18.626  0.00  0.00    +0.000 C 
ATOM      8  C   UNL     1      48.488   7.976  17.903  0.00  0.00    +0.000 C 
ATOM      9  C   UNL     1      49.926   8.202  18.357  0.00  0.00    +0.000 C 
ATOM     10  N   UNL     1      50.014   8.388  19.806  0.00  0.00    +0.000 NA
ATOM     11  C   UNL     1      49.486   7.222  20.515  0.00  0.00    +0.000 C 
ATOM     12  C   UNL     1      48.033   6.934  20.143  0.00  0.00    +0.000 C 
ATOM     13  H   UNL     1      49.475   9.213  20.072  0.00  0.00    +0.000 HD
ENDBRANCH   5   7
BRANCH   3  14
ATOM     14  C   UNL     1      47.097   3.921  14.654  0.00  0.00    +0.000 C 
BRANCH  14  15
ATOM     15  N   UNL     1      46.329   5.107  14.297  0.00  0.00    +0.000 N 
ATOM     16  C   UNL     1      45.301   4.800  13.377  0.00  0.00    +0.000 A 
ATOM     17  C   UNL     1      44.504   5.830  12.911  0.00  0.00    +0.000 A 
ATOM     18  C   UNL     1      43.492   5.481  12.044  0.00  0.00    +0.000 A 
ATOM     19  N   UNL     1      43.250   4.220  11.647  0.00  0.00    +0.000 NA
ATOM     20  C   UNL     1      44.064   3.294  12.166  0.00  0.00    +0.000 A 
ATOM     21  N   UNL     1      45.074   3.523  13.011  0.00  0.00    +0.000 NA
ATOM     22  H   UNL     1      46.920   5.844  13.928  0.00  0.00    +0.000 HD
ENDBRANCH  14  15
ENDBRANCH   3  14
TORSDOF 3
ENDMDL
