MODEL 1
REMARK VINA RESULT:    -8.815      0.000      0.000
REMARK INTER + INTRA:         -12.961
REMARK INTER:                 -11.907
REMARK INTRA:                  -1.054
REMARK UNBOUND:                -1.054
REMARK  Name = 
REMARK  6 active torsions:
REMARK  status: ('A' for Active; 'I' for Inactive)
REMARK    1  A    between atoms: C_2  and  C_3
REMARK    2  A    between atoms: C_6  and  N_7
REMARK    3  A    between atoms: N_7  and  C_8
REMARK    4  A    between atoms: C_8  and  C_9
REMARK    5  A    between atoms: C_13  and  C_14
REMARK    6  A    between atoms: C_25  and  C_26
REMARK                            x       y       z     vdW  Elec       q    Type
REMARK                         _______ _______ _______ _____ _____    ______ ____
ROOT
ATOM      1  C   UNL     1      43.804   5.473  11.286  0.00  0.00    +0.000 C 
ATOM      2  C   UNL     1      42.498   4.911  11.824  0.00  0.00    +0.000 C 
ATOM      3  C   UNL     1      42.636   6.385  11.661  0.00  0.00    +0.000 C 
ENDROOT
BRANCH   1   4
ATOM      4  C   UNL     1      45.005   5.681  12.203  0.00  0.00    +0.000 A 
ATOM      5  C   UNL     1      45.371   4.704  13.144  0.00  0.00    +0.000 A 
ATOM      6  C   UNL     1      46.611   4.742  13.778  0.00  0.00    +0.000 A 
ATOM      7  C   UNL     1      47.508   5.771  13.489  0.00  0.00    +0.000 A 
ATOM      8  C   UNL     1      47.163   6.803  12.604  0.00  0.00    +0.000 A 
ATOM      9  C   UNL     1      45.888   6.757  12.012  0.00  0.00    +0.000 A 
BRANCH   8  10
ATOM     10  C   UNL     1      48.126   7.846  12.200  0.00  0.00    +0.000 A 
ATOM     11  C   UNL     1      47.741   9.196  12.082  0.00  0.00    +0.000 A 
ATOM     12  C   UNL     1      48.632  10.168  11.621  0.00  0.00    +0.000 A 
ATOM     13  C   UNL     1      49.934   9.814  11.282  0.00  0.00    +0.000 A 
ATOM     14  C   UNL     1      50.337   8.487  11.400  0.00  0.00    +0.000 A 
ATOM     15 CL   UNL     1      51.944   8.039  10.976  0.00  0.00    +0.000 Cl
ATOM     16  C   UNL     1      49.445   7.512  11.847  0.00  0.00    +0.000 A 
ENDBRANCH   8  10
ENDBRANCH   1   4
BRANCH   1  17
ATOM     17  N   UNL     1      44.123   5.279   9.865  0.00  0.00    +0.000 N 
ATOM     18  H   UNL     1      43.575   5.803   9.188  0.00  0.00    +0.000 HD
BRANCH  17  22
ATOM     19  C   UNL     1      45.901   1.821   8.340  0.00  0.00    +0.000 A 
ATOM     20  N   UNL     1      45.131   1.749   9.457  0.00  0.00    +0.000 NA
ATOM     21  C   UNL     1      44.596   2.902   9.917  0.00  0.00    +0.000 A 
ATOM     22  C   UNL     1      44.788   4.158   9.347  0.00  0.00    +0.000 A 
ATOM     23  C   UNL     1      45.576   4.182   8.195  0.00  0.00    +0.000 A 
ATOM     24  C   UNL     1      46.155   3.009   7.673  0.00  0.00    +0.000 A 
BRANCH  24  25
ATOM     25  C   UNL     1      47.005   3.106   6.443  0.00  0.00    +0.000 C 
ATOM     26  F   UNL     1      46.676   2.266   5.433  0.00  0.00    +0.000 F 
ATOM     27  F   UNL     1      46.980   4.357   5.901  0.00  0.00    +0.000 F 
ATOM     28  F   UNL     1      48.318   2.855   6.714  0.00  0.00    +0.000 F 
ENDBRANCH  24  25
BRANCH  19  30
ATOM     29  N   UNL     1      46.797  -0.512   7.604  0.00  0.00    +0.000 NA
ATOM     30  C   UNL     1      46.406   0.539   7.923  0.00  0.00    +0.000 C 
ENDBRANCH  19  30
ENDBRANCH  17  22
ENDBRANCH   1  17
TORSDOF 6
ENDMDL
MODEL 2
REMARK VINA RESULT:    -8.623      2.332      3.502
REMARK INTER + INTRA:         -12.701
REMARK INTER:                 -11.580
REMARK INTRA:                  -1.121
REMARK UNBOUND:                -1.054
REMARK  Name = 
REMARK  6 active torsions:
REMARK  status: ('A' for Active; 'I' for Inactive)
REMARK    1  A    between atoms: C_2  and  C_3
REMARK    2  A    between atoms: C_6  and  N_7
REMARK    3  A    between atoms: N_7  and  C_8
REMARK    4  A    between atoms: C_8  and  C_9
REMARK    5  A    between atoms: C_13  and  C_14
REMARK    6  A    between atoms: C_25  and  C_26
REMARK                            x       y       z     vdW  Elec       q    Type
REMARK                         _______ _______ _______ _____ _____    ______ ____
ROOT
ATOM      1  C   UNL     1      44.020   5.414  11.456  0.00  0.00    +0.000 C 
ATOM      2  C   UNL     1      43.013   5.050  12.536  0.00  0.00    +0.000 C 
ATOM      3  C   UNL     1      43.046   6.448  12.022  0.00  0.00    +0.000 C 
ENDROOT
BRANCH   1   4
ATOM      4  C   UNL     1      45.467   5.740  11.810  0.00  0.00    +0.000 A 
ATOM      5  C   UNL     1      46.221   6.623  11.018  0.00  0.00    +0.000 A 
ATOM      6  C   UNL     1      47.426   7.152  11.475  0.00  0.00    +0.000 A 
ATOM      7  C   UNL     1      47.907   6.797  12.735  0.00  0.00    +0.000 A 
ATOM      8  C   UNL     1      47.221   5.871  13.536  0.00  0.00    +0.000 A 
ATOM      9  C   UNL     1      46.030   5.325  13.028  0.00  0.00    +0.000 A 
BRANCH   8  10
ATOM     10  C   UNL     1      47.650   5.554  14.912  0.00  0.00    +0.000 A 
ATOM     11  C   UNL     1      48.582   6.359  15.596  0.00  0.00    +0.000 A 
ATOM     12  C   UNL     1      49.047   6.011  16.867  0.00  0.00    +0.000 A 
ATOM     13  C   UNL     1      48.579   4.858  17.488  0.00  0.00    +0.000 A 
ATOM     14  C   UNL     1      47.652   4.054  16.833  0.00  0.00    +0.000 A 
ATOM     15 CL   UNL     1      47.072   2.622  17.592  0.00  0.00    +0.000 Cl
ATOM     16  C   UNL     1      47.195   4.391  15.559  0.00  0.00    +0.000 A 
ENDBRANCH   8  10
ENDBRANCH   1   4
BRANCH   1  17
ATOM     17  N   UNL     1      43.803   4.911  10.092  0.00  0.00    +0.000 N 
ATOM     18  H   UNL     1      42.895   5.081   9.671  0.00  0.00    +0.000 HD
BRANCH  17  22
ATOM     19  C   UNL     1      45.818   1.700   8.339  0.00  0.00    +0.000 A 
ATOM     20  N   UNL     1      45.051   1.496   9.442  0.00  0.00    +0.000 NA
ATOM     21  C   UNL     1      44.437   2.574   9.978  0.00  0.00    +0.000 A 
ATOM     22  C   UNL     1      44.545   3.878   9.500  0.00  0.00    +0.000 A 
ATOM     23  C   UNL     1      45.333   4.038   8.360  0.00  0.00    +0.000 A 
ATOM     24  C   UNL     1      45.993   2.947   7.760  0.00  0.00    +0.000 A 
BRANCH  24  25
ATOM     25  C   UNL     1      46.838   3.189   6.548  0.00  0.00    +0.000 C 
ATOM     26  F   UNL     1      46.489   2.493   5.439  0.00  0.00    +0.000 F 
ATOM     27  F   UNL     1      46.832   4.501   6.173  0.00  0.00    +0.000 F 
ATOM     28  F   UNL     1      48.147   2.883   6.774  0.00  0.00    +0.000 F 
ENDBRANCH  24  25
BRANCH  19  30
ATOM     29  N   UNL     1      46.869  -0.497   7.411  0.00  0.00    +0.000 NA
ATOM     30  C   UNL     1      46.411   0.488   7.836  0.00  0.00    +0.000 C 
ENDBRANCH  19  30
ENDBRANCH  17  22
ENDBRANCH   1  17
TORSDOF 6
ENDMDL
MODEL 3
REMARK VINA RESULT:    -7.412      5.090      8.124
REMARK INTER + INTRA:         -11.066
REMARK INTER:                  -9.958
REMARK INTRA:                  -1.108
REMARK UNBOUND:                -1.054
REMARK  Name = 
REMARK  6 active torsions:
REMARK  status: ('A' for Active; 'I' for Inactive)
REMARK    1  A    between atoms: C_2  and  C_3
REMARK    2  A    between atoms: C_6  and  N_7
REMARK    3  A    between atoms: N_7  and  C_8
REMARK    4  A    between atoms: C_8  and  C_9
REMARK    5  A    between atoms: C_13  and  C_14
REMARK    6  A    between atoms: C_25  and  C_26
REMARK                            x       y       z     vdW  Elec       q    Type
REMARK                         _______ _______ _______ _____ _____    ______ ____
ROOT
ATOM      1  C   UNL     1      48.418   7.731  13.128  0.00  0.00    +0.000 C 
ATOM      2  C   UNL     1      49.570   7.029  12.428  0.00  0.00    +0.000 C 
ATOM      3  C   UNL     1      49.259   8.440  12.066  0.00  0.00    +0.000 C 
ENDROOT
BRANCH   1   4
ATOM      4  C   UNL     1      46.978   7.524  12.670  0.00  0.00    +0.000 A 
ATOM      5  C   UNL     1      46.050   8.578  12.712  0.00  0.00    +0.000 A 
ATOM      6  C   UNL     1      44.832   8.495  12.040  0.00  0.00    +0.000 A 
ATOM      7  C   UNL     1      44.515   7.344  11.318  0.00  0.00    +0.000 A 
ATOM      8  C   UNL     1      45.382   6.241  11.299  0.00  0.00    +0.000 A 
ATOM      9  C   UNL     1      46.584   6.342  12.021  0.00  0.00    +0.000 A 
BRANCH   8  10
ATOM     10  C   UNL     1      45.122   5.052  10.464  0.00  0.00    +0.000 A 
ATOM     11  C   UNL     1      44.342   3.979  10.936  0.00  0.00    +0.000 A 
ATOM     12  C   UNL     1      44.164   2.819  10.176  0.00  0.00    +0.000 A 
ATOM     13  C   UNL     1      44.752   2.715   8.919  0.00  0.00    +0.000 A 
ATOM     14  C   UNL     1      45.519   3.768   8.431  0.00  0.00    +0.000 A 
ATOM     15 CL   UNL     1      46.255   3.644   6.879  0.00  0.00    +0.000 Cl
ATOM     16  C   UNL     1      45.708   4.921   9.193  0.00  0.00    +0.000 A 
ENDBRANCH   8  10
ENDBRANCH   1   4
BRANCH   1  17
ATOM     17  N   UNL     1      48.580   8.121  14.535  0.00  0.00    +0.000 N 
ATOM     18  H   UNL     1      48.992   9.031  14.723  0.00  0.00    +0.000 HD
BRANCH  17  22
ATOM     19  C   UNL     1      48.608   5.596  17.863  0.00  0.00    +0.000 A 
ATOM     20  N   UNL     1      48.985   6.895  17.996  0.00  0.00    +0.000 NA
ATOM     21  C   UNL     1      48.974   7.661  16.883  0.00  0.00    +0.000 A 
ATOM     22  C   UNL     1      48.627   7.219  15.609  0.00  0.00    +0.000 A 
ATOM     23  C   UNL     1      48.236   5.883  15.521  0.00  0.00    +0.000 A 
ATOM     24  C   UNL     1      48.227   5.041  16.652  0.00  0.00    +0.000 A 
BRANCH  24  25
ATOM     25  C   UNL     1      47.813   3.611  16.486  0.00  0.00    +0.000 C 
ATOM     26  F   UNL     1      46.771   3.207  17.253  0.00  0.00    +0.000 F 
ATOM     27  F   UNL     1      47.454   3.326  15.202  0.00  0.00    +0.000 F 
ATOM     28  F   UNL     1      48.833   2.753  16.776  0.00  0.00    +0.000 F 
ENDBRANCH  24  25
BRANCH  19  30
ATOM     29  N   UNL     1      48.630   4.294  20.120  0.00  0.00    +0.000 NA
ATOM     30  C   UNL     1      48.636   4.873  19.107  0.00  0.00    +0.000 C 
ENDBRANCH  19  30
ENDBRANCH  17  22
ENDBRANCH   1  17
TORSDOF 6
ENDMDL
MODEL 4
REMARK VINA RESULT:    -6.950      4.714      7.720
REMARK INTER + INTRA:         -10.442
REMARK INTER:                 -10.188
REMARK INTRA:                  -0.254
REMARK UNBOUND:                -1.054
REMARK  Name = 
REMARK  6 active torsions:
REMARK  status: ('A' for Active; 'I' for Inactive)
REMARK    1  A    between atoms: C_2  and  C_3
REMARK    2  A    between atoms: C_6  and  N_7
REMARK    3  A    between atoms: N_7  and  C_8
REMARK    4  A    between atoms: C_8  and  C_9
REMARK    5  A    between atoms: C_13  and  C_14
REMARK    6  A    between atoms: C_25  and  C_26
REMARK                            x       y       z     vdW  Elec       q    Type
REMARK                         _______ _______ _______ _____ _____    ______ ____
ROOT
ATOM      1  C   UNL     1      46.103   7.421  11.964  0.00  0.00    +0.000 C 
ATOM      2  C   UNL     1      45.714   8.839  11.579  0.00  0.00    +0.000 C 
ATOM      3  C   UNL     1      45.233   8.286  12.876  0.00  0.00    +0.000 C 
ENDROOT
BRANCH   1   4
ATOM      4  C   UNL     1      45.336   6.221  11.417  0.00  0.00    +0.000 A 
ATOM      5  C   UNL     1      43.961   6.072  11.662  0.00  0.00    +0.000 A 
ATOM      6  C   UNL     1      43.195   5.156  10.943  0.00  0.00    +0.000 A 
ATOM      7  C   UNL     1      43.797   4.361   9.968  0.00  0.00    +0.000 A 
ATOM      8  C   UNL     1      45.178   4.429   9.732  0.00  0.00    +0.000 A 
ATOM      9  C   UNL     1      45.929   5.334  10.502  0.00  0.00    +0.000 A 
BRANCH   8  10
ATOM     10  C   UNL     1      45.826   3.677   8.639  0.00  0.00    +0.000 A 
ATOM     11  C   UNL     1      46.287   4.322   7.475  0.00  0.00    +0.000 A 
ATOM     12  C   UNL     1      46.826   3.598   6.408  0.00  0.00    +0.000 A 
ATOM     13  C   UNL     1      46.929   2.213   6.489  0.00  0.00    +0.000 A 
ATOM     14  C   UNL     1      46.487   1.558   7.634  0.00  0.00    +0.000 A 
ATOM     15 CL   UNL     1      46.605  -0.157   7.739  0.00  0.00    +0.000 Cl
ATOM     16  C   UNL     1      45.937   2.277   8.696  0.00  0.00    +0.000 A 
ENDBRANCH   8  10
ENDBRANCH   1   4
BRANCH   1  17
ATOM     17  N   UNL     1      47.492   7.152  12.359  0.00  0.00    +0.000 N 
ATOM     18  H   UNL     1      48.150   6.917  11.621  0.00  0.00    +0.000 HD
BRANCH  17  22
ATOM     19  C   UNL     1      48.592   6.226  16.281  0.00  0.00    +0.000 A 
ATOM     20  N   UNL     1      48.856   7.461  15.778  0.00  0.00    +0.000 NA
ATOM     21  C   UNL     1      48.495   7.699  14.497  0.00  0.00    +0.000 A 
ATOM     22  C   UNL     1      47.892   6.774  13.649  0.00  0.00    +0.000 A 
ATOM     23  C   UNL     1      47.630   5.524  14.211  0.00  0.00    +0.000 A 
ATOM     24  C   UNL     1      47.983   5.224  15.542  0.00  0.00    +0.000 A 
BRANCH  24  25
ATOM     25  C   UNL     1      47.689   3.857  16.079  0.00  0.00    +0.000 C 
ATOM     26  F   UNL     1      46.699   3.788  17.002  0.00  0.00    +0.000 F 
ATOM     27  F   UNL     1      47.332   2.985  15.093  0.00  0.00    +0.000 F 
ATOM     28  F   UNL     1      48.783   3.302  16.675  0.00  0.00    +0.000 F 
ENDBRANCH  24  25
BRANCH  19  30
ATOM     29  N   UNL     1      49.320   5.992  18.771  0.00  0.00    +0.000 NA
ATOM     30  C   UNL     1      48.997   6.081  17.654  0.00  0.00    +0.000 C 
ENDBRANCH  19  30
ENDBRANCH  17  22
ENDBRANCH   1  17
TORSDOF 6
ENDMDL
MODEL 5
REMARK VINA RESULT:    -6.932      3.399      5.628
REMARK INTER + INTRA:         -10.416
REMARK INTER:                  -9.909
REMARK INTRA:                  -0.508
REMARK UNBOUND:                -1.054
REMARK  Name = 
REMARK  6 active torsions:
REMARK  status: ('A' for Active; 'I' for Inactive)
REMARK    1  A    between atoms: C_2  and  C_3
REMARK    2  A    between atoms: C_6  and  N_7
REMARK    3  A    between atoms: N_7  and  C_8
REMARK    4  A    between atoms: C_8  and  C_9
REMARK    5  A    between atoms: C_13  and  C_14
REMARK    6  A    between atoms: C_25  and  C_26
REMARK                            x       y       z     vdW  Elec       q    Type
REMARK                         _______ _______ _______ _____ _____    ______ ____
ROOT
ATOM      1  C   UNL     1      48.076   8.274  12.506  0.00  0.00    +0.000 C 
ATOM      2  C   UNL     1      48.959   9.030  11.526  0.00  0.00    +0.000 C 
ATOM      3  C   UNL     1      49.088   7.548  11.619  0.00  0.00    +0.000 C 
ENDROOT
BRANCH   1   4
ATOM      4  C   UNL     1      48.444   8.181  13.983  0.00  0.00    +0.000 A 
ATOM      5  C   UNL     1      48.304   9.292  14.832  0.00  0.00    +0.000 A 
ATOM      6  C   UNL     1      48.357   9.153  16.217  0.00  0.00    +0.000 A 
ATOM      7  C   UNL     1      48.563   7.893  16.781  0.00  0.00    +0.000 A 
ATOM      8  C   UNL     1      48.771   6.765  15.974  0.00  0.00    +0.000 A 
ATOM      9  C   UNL     1      48.752   6.947  14.580  0.00  0.00    +0.000 A 
BRANCH   8  10
ATOM     10  C   UNL     1      48.889   5.406  16.538  0.00  0.00    +0.000 A 
ATOM     11  C   UNL     1      47.762   4.578  16.702  0.00  0.00    +0.000 A 
ATOM     12  C   UNL     1      47.864   3.324  17.311  0.00  0.00    +0.000 A 
ATOM     13  C   UNL     1      49.100   2.866  17.758  0.00  0.00    +0.000 A 
ATOM     14  C   UNL     1      50.227   3.666  17.598  0.00  0.00    +0.000 A 
ATOM     15 CL   UNL     1      51.758   3.109  18.153  0.00  0.00    +0.000 Cl
ATOM     16  C   UNL     1      50.126   4.924  17.001  0.00  0.00    +0.000 A 
ENDBRANCH   8  10
ENDBRANCH   1   4
BRANCH   1  17
ATOM     17  N   UNL     1      46.645   8.137  12.205  0.00  0.00    +0.000 N 
ATOM     18  H   UNL     1      46.036   8.905  12.471  0.00  0.00    +0.000 HD
BRANCH  17  22
ATOM     19  C   UNL     1      44.514   4.582  11.679  0.00  0.00    +0.000 A 
ATOM     20  N   UNL     1      44.527   5.189  12.895  0.00  0.00    +0.000 NA
ATOM     21  C   UNL     1      45.248   6.327  13.012  0.00  0.00    +0.000 A 
ATOM     22  C   UNL     1      45.992   6.913  11.991  0.00  0.00    +0.000 A 
ATOM     23  C   UNL     1      45.940   6.262  10.759  0.00  0.00    +0.000 A 
ATOM     24  C   UNL     1      45.202   5.074  10.582  0.00  0.00    +0.000 A 
BRANCH  24  25
ATOM     25  C   UNL     1      45.202   4.416   9.237  0.00  0.00    +0.000 C 
ATOM     26  F   UNL     1      44.018   4.423   8.578  0.00  0.00    +0.000 F 
ATOM     27  F   UNL     1      46.098   4.990   8.384  0.00  0.00    +0.000 F 
ATOM     28  F   UNL     1      45.567   3.104   9.316  0.00  0.00    +0.000 F 
ENDBRANCH  24  25
BRANCH  19  30
ATOM     29  N   UNL     1      43.047   2.429  11.664  0.00  0.00    +0.000 NA
ATOM     30  C   UNL     1      43.704   3.392  11.655  0.00  0.00    +0.000 C 
ENDBRANCH  19  30
ENDBRANCH  17  22
ENDBRANCH   1  17
TORSDOF 6
ENDMDL
MODEL 6
REMARK VINA RESULT:    -6.882      5.127      7.826
REMARK INTER + INTRA:         -10.350
REMARK INTER:                 -10.314
REMARK INTRA:                  -0.036
REMARK UNBOUND:                -1.054
REMARK  Name = 
REMARK  6 active torsions:
REMARK  status: ('A' for Active; 'I' for Inactive)
REMARK    1  A    between atoms: C_2  and  C_3
REMARK    2  A    between atoms: C_6  and  N_7
REMARK    3  A    between atoms: N_7  and  C_8
REMARK    4  A    between atoms: C_8  and  C_9
REMARK    5  A    between atoms: C_13  and  C_14
REMARK    6  A    between atoms: C_25  and  C_26
REMARK                            x       y       z     vdW  Elec       q    Type
REMARK                         _______ _______ _______ _____ _____    ______ ____
ROOT
ATOM      1  C   UNL     1      46.216   7.119  12.149  0.00  0.00    +0.000 C 
ATOM      2  C   UNL     1      46.124   8.563  11.682  0.00  0.00    +0.000 C 
ATOM      3  C   UNL     1      45.346   8.142  12.881  0.00  0.00    +0.000 C 
ENDROOT
BRANCH   1   4
ATOM      4  C   UNL     1      45.378   6.026  11.492  0.00  0.00    +0.000 A 
ATOM      5  C   UNL     1      43.982   6.000  11.643  0.00  0.00    +0.000 A 
ATOM      6  C   UNL     1      43.183   5.198  10.830  0.00  0.00    +0.000 A 
ATOM      7  C   UNL     1      43.772   4.395   9.853  0.00  0.00    +0.000 A 
ATOM      8  C   UNL     1      45.167   4.340   9.707  0.00  0.00    +0.000 A 
ATOM      9  C   UNL     1      45.945   5.131  10.570  0.00  0.00    +0.000 A 
BRANCH   8  10
ATOM     10  C   UNL     1      45.813   3.581   8.619  0.00  0.00    +0.000 A 
ATOM     11  C   UNL     1      46.269   4.219   7.449  0.00  0.00    +0.000 A 
ATOM     12  C   UNL     1      46.806   3.488   6.385  0.00  0.00    +0.000 A 
ATOM     13  C   UNL     1      46.912   2.103   6.476  0.00  0.00    +0.000 A 
ATOM     14  C   UNL     1      46.475   1.456   7.627  0.00  0.00    +0.000 A 
ATOM     15 CL   UNL     1      46.596  -0.258   7.744  0.00  0.00    +0.000 Cl
ATOM     16  C   UNL     1      45.926   2.182   8.685  0.00  0.00    +0.000 A 
ENDBRANCH   8  10
ENDBRANCH   1   4
BRANCH   1  17
ATOM     17  N   UNL     1      47.458   6.662  12.786  0.00  0.00    +0.000 N 
ATOM     18  H   UNL     1      48.280   6.574  12.196  0.00  0.00    +0.000 HD
BRANCH  17  22
ATOM     19  C   UNL     1      47.662   4.325  16.243  0.00  0.00    +0.000 A 
ATOM     20  N   UNL     1      46.891   3.923  15.199  0.00  0.00    +0.000 NA
ATOM     21  C   UNL     1      46.847   4.727  14.113  0.00  0.00    +0.000 A 
ATOM     22  C   UNL     1      47.516   5.943  13.989  0.00  0.00    +0.000 A 
ATOM     23  C   UNL     1      48.304   6.310  15.080  0.00  0.00    +0.000 A 
ATOM     24  C   UNL     1      48.386   5.507  16.235  0.00  0.00    +0.000 A 
BRANCH  24  25
ATOM     25  C   UNL     1      49.237   5.967  17.378  0.00  0.00    +0.000 C 
ATOM     26  F   UNL     1      48.577   6.250  18.528  0.00  0.00    +0.000 F 
ATOM     27  F   UNL     1      50.183   5.045  17.717  0.00  0.00    +0.000 F 
ATOM     28  F   UNL     1      49.930   7.100  17.069  0.00  0.00    +0.000 F 
ENDBRANCH  24  25
BRANCH  19  30
ATOM     29  N   UNL     1      47.675   2.626  18.218  0.00  0.00    +0.000 NA
ATOM     30  C   UNL     1      47.655   3.392  17.338  0.00  0.00    +0.000 C 
ENDBRANCH  19  30
ENDBRANCH  17  22
ENDBRANCH   1  17
TORSDOF 6
ENDMDL
MODEL 7
REMARK VINA RESULT:    -6.579      5.902      8.789
REMARK INTER + INTRA:          -9.940
REMARK INTER:                  -9.076
REMARK INTRA:                  -0.863
REMARK UNBOUND:                -1.054
REMARK  Name = 
REMARK  6 active torsions:
REMARK  status: ('A' for Active; 'I' for Inactive)
REMARK    1  A    between atoms: C_2  and  C_3
REMARK    2  A    between atoms: C_6  and  N_7
REMARK    3  A    between atoms: N_7  and  C_8
REMARK    4  A    between atoms: C_8  and  C_9
REMARK    5  A    between atoms: C_13  and  C_14
REMARK    6  A    between atoms: C_25  and  C_26
REMARK                            x       y       z     vdW  Elec       q    Type
REMARK                         _______ _______ _______ _____ _____    ______ ____
ROOT
ATOM      1  C   UNL     1      48.618   8.104  12.600  0.00  0.00    +0.000 C 
ATOM      2  C   UNL     1      49.718   7.454  11.775  0.00  0.00    +0.000 C 
ATOM      3  C   UNL     1      49.264   8.828  11.418  0.00  0.00    +0.000 C 
ENDROOT
BRANCH   1   4
ATOM      4  C   UNL     1      47.150   7.787  12.340  0.00  0.00    +0.000 A 
ATOM      5  C   UNL     1      46.161   8.772  12.496  0.00  0.00    +0.000 A 
ATOM      6  C   UNL     1      44.874   8.589  11.993  0.00  0.00    +0.000 A 
ATOM      7  C   UNL     1      44.549   7.405  11.331  0.00  0.00    +0.000 A 
ATOM      8  C   UNL     1      45.484   6.367  11.206  0.00  0.00    +0.000 A 
ATOM      9  C   UNL     1      46.761   6.567  11.760  0.00  0.00    +0.000 A 
BRANCH   8  10
ATOM     10  C   UNL     1      45.203   5.147  10.424  0.00  0.00    +0.000 A 
ATOM     11  C   UNL     1      44.442   4.090  10.960  0.00  0.00    +0.000 A 
ATOM     12  C   UNL     1      44.246   2.903  10.249  0.00  0.00    +0.000 A 
ATOM     13  C   UNL     1      44.797   2.753   8.980  0.00  0.00    +0.000 A 
ATOM     14  C   UNL     1      45.545   3.789   8.430  0.00  0.00    +0.000 A 
ATOM     15 CL   UNL     1      46.234   3.609   6.863  0.00  0.00    +0.000 Cl
ATOM     16  C   UNL     1      45.753   4.970   9.142  0.00  0.00    +0.000 A 
ENDBRANCH   8  10
ENDBRANCH   1   4
BRANCH   1  17
ATOM     17  N   UNL     1      48.933   8.555  13.963  0.00  0.00    +0.000 N 
ATOM     18  H   UNL     1      49.583   9.330  14.060  0.00  0.00    +0.000 HD
BRANCH  17  22
ATOM     19  C   UNL     1      48.640   6.095  17.326  0.00  0.00    +0.000 A 
ATOM     20  N   UNL     1      48.808   5.542  16.096  0.00  0.00    +0.000 NA
ATOM     21  C   UNL     1      48.878   6.384  15.041  0.00  0.00    +0.000 A 
ATOM     22  C   UNL     1      48.772   7.771  15.115  0.00  0.00    +0.000 A 
ATOM     23  C   UNL     1      48.612   8.295  16.398  0.00  0.00    +0.000 A 
ATOM     24  C   UNL     1      48.535   7.461  17.531  0.00  0.00    +0.000 A 
BRANCH  24  25
ATOM     25  C   UNL     1      48.346   8.086  18.879  0.00  0.00    +0.000 C 
ATOM     26  F   UNL     1      49.273   7.764  19.813  0.00  0.00    +0.000 F 
ATOM     27  F   UNL     1      48.348   9.449  18.817  0.00  0.00    +0.000 F 
ATOM     28  F   UNL     1      47.143   7.751  19.428  0.00  0.00    +0.000 F 
ENDBRANCH  24  25
BRANCH  19  30
ATOM     29  N   UNL     1      48.549   4.304  19.216  0.00  0.00    +0.000 NA
ATOM     30  C   UNL     1      48.597   5.116  18.380  0.00  0.00    +0.000 C 
ENDBRANCH  19  30
ENDBRANCH  17  22
ENDBRANCH   1  17
TORSDOF 6
ENDMDL
MODEL 8
REMARK VINA RESULT:    -6.453      5.087      7.189
REMARK INTER + INTRA:          -9.770
REMARK INTER:                  -8.753
REMARK INTRA:                  -1.017
REMARK UNBOUND:                -1.054
REMARK  Name = 
REMARK  6 active torsions:
REMARK  status: ('A' for Active; 'I' for Inactive)
REMARK    1  A    between atoms: C_2  and  C_3
REMARK    2  A    between atoms: C_6  and  N_7
REMARK    3  A    between atoms: N_7  and  C_8
REMARK    4  A    between atoms: C_8  and  C_9
REMARK    5  A    between atoms: C_13  and  C_14
REMARK    6  A    between atoms: C_25  and  C_26
REMARK                            x       y       z     vdW  Elec       q    Type
REMARK                         _______ _______ _______ _____ _____    ______ ____
ROOT
ATOM      1  C   UNL     1      48.807   7.663  15.471  0.00  0.00    +0.000 C 
ATOM      2  C   UNL     1      48.026   8.967  15.479  0.00  0.00    +0.000 C 
ATOM      3  C   UNL     1      49.514   9.018  15.454  0.00  0.00    +0.000 C 
ENDROOT
BRANCH   1   4
ATOM      4  C   UNL     1      49.072   6.898  16.764  0.00  0.00    +0.000 A 
ATOM      5  C   UNL     1      48.285   7.120  17.906  0.00  0.00    +0.000 A 
ATOM      6  C   UNL     1      48.320   6.243  18.989  0.00  0.00    +0.000 A 
ATOM      7  C   UNL     1      49.157   5.127  18.951  0.00  0.00    +0.000 A 
ATOM      8  C   UNL     1      50.008   4.899  17.859  0.00  0.00    +0.000 A 
ATOM      9  C   UNL     1      49.978   5.825  16.802  0.00  0.00    +0.000 A 
BRANCH   8  10
ATOM     10  C   UNL     1      50.828   3.677  17.745  0.00  0.00    +0.000 A 
ATOM     11  C   UNL     1      50.287   2.472  17.254  0.00  0.00    +0.000 A 
ATOM     12  C   UNL     1      51.042   1.296  17.224  0.00  0.00    +0.000 A 
ATOM     13  C   UNL     1      52.360   1.304  17.670  0.00  0.00    +0.000 A 
ATOM     14  C   UNL     1      52.915   2.485  18.150  0.00  0.00    +0.000 A 
ATOM     15 CL   UNL     1      54.543   2.501  18.710  0.00  0.00    +0.000 Cl
ATOM     16  C   UNL     1      52.160   3.658  18.194  0.00  0.00    +0.000 A 
ENDBRANCH   8  10
ENDBRANCH   1   4
BRANCH   1  17
ATOM     17  N   UNL     1      48.807   6.849  14.248  0.00  0.00    +0.000 N 
ATOM     18  H   UNL     1      49.493   7.079  13.535  0.00  0.00    +0.000 HD
BRANCH  17  22
ATOM     19  C   UNL     1      45.483   4.584  13.122  0.00  0.00    +0.000 A 
ATOM     20  N   UNL     1      46.282   4.155  14.134  0.00  0.00    +0.000 NA
ATOM     21  C   UNL     1      47.354   4.918  14.444  0.00  0.00    +0.000 A 
ATOM     22  C   UNL     1      47.713   6.097  13.795  0.00  0.00    +0.000 A 
ATOM     23  C   UNL     1      46.858   6.505  12.771  0.00  0.00    +0.000 A 
ATOM     24  C   UNL     1      45.726   5.748  12.409  0.00  0.00    +0.000 A 
BRANCH  24  25
ATOM     25  C   UNL     1      44.858   6.232  11.290  0.00  0.00    +0.000 C 
ATOM     26  F   UNL     1      44.835   5.452  10.182  0.00  0.00    +0.000 F 
ATOM     27  F   UNL     1      43.555   6.364  11.670  0.00  0.00    +0.000 F 
ATOM     28  F   UNL     1      45.235   7.469  10.856  0.00  0.00    +0.000 F 
ENDBRANCH  24  25
BRANCH  19  30
ATOM     29  N   UNL     1      43.467   2.997  12.669  0.00  0.00    +0.000 NA
ATOM     30  C   UNL     1      44.362   3.713  12.885  0.00  0.00    +0.000 C 
ENDBRANCH  19  30
ENDBRANCH  17  22
ENDBRANCH   1  17
TORSDOF 6
ENDMDL
MODEL 9
REMARK VINA RESULT:    -6.451      5.563      8.301
REMARK INTER + INTRA:          -9.768
REMARK INTER:                  -8.271
REMARK INTRA:                  -1.497
REMARK UNBOUND:                -1.054
REMARK  Name = 
REMARK  6 active torsions:
REMARK  status: ('A' for Active; 'I' for Inactive)
REMARK    1  A    between atoms: C_2  and  C_3
REMARK    2  A    between atoms: C_6  and  N_7
REMARK    3  A    between atoms: N_7  and  C_8
REMARK    4  A    between atoms: C_8  and  C_9
REMARK    5  A    between atoms: C_13  and  C_14
REMARK    6  A    between atoms: C_25  and  C_26
REMARK                            x       y       z     vdW  Elec       q    Type
REMARK                         _______ _______ _______ _____ _____    ______ ____
ROOT
ATOM      1  C   UNL     1      49.221   9.048  15.706  0.00  0.00    +0.000 C 
ATOM      2  C   UNL     1      50.397   9.974  15.971  0.00  0.00    +0.000 C 
ATOM      3  C   UNL     1      49.022  10.546  15.942  0.00  0.00    +0.000 C 
ENDROOT
BRANCH   1   4
ATOM      4  C   UNL     1      48.847   8.641  14.285  0.00  0.00    +0.000 A 
ATOM      5  C   UNL     1      49.603   9.084  13.186  0.00  0.00    +0.000 A 
ATOM      6  C   UNL     1      49.457   8.501  11.929  0.00  0.00    +0.000 A 
ATOM      7  C   UNL     1      48.540   7.466  11.745  0.00  0.00    +0.000 A 
ATOM      8  C   UNL     1      47.718   7.034  12.796  0.00  0.00    +0.000 A 
ATOM      9  C   UNL     1      47.861   7.670  14.041  0.00  0.00    +0.000 A 
BRANCH   8  10
ATOM     10  C   UNL     1      46.812   5.876  12.660  0.00  0.00    +0.000 A 
ATOM     11  C   UNL     1      46.955   4.732  13.469  0.00  0.00    +0.000 A 
ATOM     12  C   UNL     1      46.150   3.605  13.283  0.00  0.00    +0.000 A 
ATOM     13  C   UNL     1      45.172   3.605  12.292  0.00  0.00    +0.000 A 
ATOM     14  C   UNL     1      45.009   4.729  11.489  0.00  0.00    +0.000 A 
ATOM     15 CL   UNL     1      43.807   4.734  10.257  0.00  0.00    +0.000 Cl
ATOM     16  C   UNL     1      45.821   5.850  11.664  0.00  0.00    +0.000 A 
ENDBRANCH   8  10
ENDBRANCH   1   4
BRANCH   1  17
ATOM     17  N   UNL     1      48.815   8.106  16.758  0.00  0.00    +0.000 N 
ATOM     18  H   UNL     1      48.476   8.499  17.631  0.00  0.00    +0.000 HD
BRANCH  17  22
ATOM     19  C   UNL     1      50.225   4.196  17.176  0.00  0.00    +0.000 A 
ATOM     20  N   UNL     1      51.100   5.236  17.185  0.00  0.00    +0.000 NA
ATOM     21  C   UNL     1      50.590   6.478  17.027  0.00  0.00    +0.000 A 
ATOM     22  C   UNL     1      49.242   6.773  16.837  0.00  0.00    +0.000 A 
ATOM     23  C   UNL     1      48.380   5.676  16.846  0.00  0.00    +0.000 A 
ATOM     24  C   UNL     1      48.859   4.361  17.009  0.00  0.00    +0.000 A 
BRANCH  24  25
ATOM     25  C   UNL     1      47.881   3.227  16.991  0.00  0.00    +0.000 C 
ATOM     26  F   UNL     1      47.786   2.514  18.140  0.00  0.00    +0.000 F 
ATOM     27  F   UNL     1      46.613   3.647  16.716  0.00  0.00    +0.000 F 
ATOM     28  F   UNL     1      48.179   2.316  16.021  0.00  0.00    +0.000 F 
ENDBRANCH  24  25
BRANCH  19  30
ATOM     29  N   UNL     1      51.359   1.876  17.517  0.00  0.00    +0.000 NA
ATOM     30  C   UNL     1      50.865   2.922  17.369  0.00  0.00    +0.000 C 
ENDBRANCH  19  30
ENDBRANCH  17  22
ENDBRANCH   1  17
TORSDOF 6
ENDMDL
