MODEL 1
REMARK VINA RESULT:    -7.830      0.000      0.000
REMARK INTER + INTRA:         -11.323
REMARK INTER:                 -10.576
REMARK INTRA:                  -0.747
REMARK UNBOUND:                -0.747
REMARK  Name = 
REMARK  6 active torsions:
REMARK  status: ('A' for Active; 'I' for Inactive)
REMARK    1  A    between atoms: C_2  and  C_3
REMARK    2  A    between atoms: C_6  and  N_7
REMARK    3  A    between atoms: N_7  and  C_8
REMARK    4  A    between atoms: C_8  and  C_9
REMARK    5  A    between atoms: C_12  and  O_13
REMARK    6  A    between atoms: O_13  and  C_14
REMARK                            x       y       z     vdW  Elec       q    Type
REMARK                         _______ _______ _______ _____ _____    ______ ____
ROOT
ATOM      1  C   UNL     1      43.900   4.889  11.289  0.00  0.00    +0.000 C 
ATOM      2  C   UNL     1      42.589   5.211  12.005  0.00  0.00    +0.000 C 
ATOM      3  C   UNL     1      43.227   6.242  11.136  0.00  0.00    +0.000 C 
ENDROOT
BRANCH   1   4
ATOM      4  C   UNL     1      45.156   4.845  12.147  0.00  0.00    +0.000 A 
ATOM      5  C   UNL     1      45.823   6.021  12.524  0.00  0.00    +0.000 A 
ATOM      6  C   UNL     1      46.833   6.001  13.488  0.00  0.00    +0.000 A 
ATOM      7  C   UNL     1      47.206   4.800  14.091  0.00  0.00    +0.000 A 
ATOM      8  C   UNL     1      46.672   3.607  13.616  0.00  0.00    +0.000 A 
ATOM      9  C   UNL     1      45.652   3.633  12.661  0.00  0.00    +0.000 A 
BRANCH   7  10
ATOM     10  O   UNL     1      48.127   4.901  15.087  0.00  0.00    +0.000 OA
BRANCH  10  11
ATOM     11  C   UNL     1      47.826   4.298  16.342  0.00  0.00    +0.000 C 
ATOM     12  F   UNL     1      46.510   4.224  16.634  0.00  0.00    +0.000 F 
ATOM     13  F   UNL     1      48.338   3.048  16.357  0.00  0.00    +0.000 F 
ATOM     14  F   UNL     1      48.424   5.010  17.324  0.00  0.00    +0.000 F 
ENDBRANCH  10  11
ENDBRANCH   7  10
ENDBRANCH   1   4
BRANCH   1  15
ATOM     15  N   UNL     1      43.825   3.822  10.301  0.00  0.00    +0.000 N 
ATOM     16  H   UNL     1      42.918   3.448  10.039  0.00  0.00    +0.000 HD
BRANCH  15  20
ATOM     17  C   UNL     1      46.603   2.622   7.537  0.00  0.00    +0.000 A 
ATOM     18  C   UNL     1      45.978   1.742   8.399  0.00  0.00    +0.000 A 
ATOM     19  N   UNL     1      45.062   2.146   9.314  0.00  0.00    +0.000 NA
ATOM     20  C   UNL     1      44.769   3.465   9.353  0.00  0.00    +0.000 A 
ATOM     21  C   UNL     1      45.417   4.345   8.484  0.00  0.00    +0.000 A 
ATOM     22  N   UNL     1      46.340   3.951   7.558  0.00  0.00    +0.000 NA
BRANCH  17  24
ATOM     23  N   UNL     1      48.312   1.722   5.805  0.00  0.00    +0.000 NA
ATOM     24  C   UNL     1      47.559   2.152   6.577  0.00  0.00    +0.000 C 
ENDBRANCH  17  24
ENDBRANCH  15  20
ENDBRANCH   1  15
TORSDOF 6
ENDMDL
MODEL 2
REMARK VINA RESULT:    -7.497      1.865      2.482
REMARK INTER + INTRA:         -10.874
REMARK INTER:                 -10.588
REMARK INTRA:                  -0.286
REMARK UNBOUND:                -0.747
REMARK  Name = 
REMARK  6 active torsions:
REMARK  status: ('A' for Active; 'I' for Inactive)
REMARK    1  A    between atoms: C_2  and  C_3
REMARK    2  A    between atoms: C_6  and  N_7
REMARK    3  A    between atoms: N_7  and  C_8
REMARK    4  A    between atoms: C_8  and  C_9
REMARK    5  A    between atoms: C_12  and  O_13
REMARK    6  A    between atoms: O_13  and  C_14
REMARK                            x       y       z     vdW  Elec       q    Type
REMARK                         _______ _______ _______ _____ _____    ______ ____
ROOT
ATOM      1  C   UNL     1      43.897   4.972  11.311  0.00  0.00    +0.000 C 
ATOM      2  C   UNL     1      43.188   3.841  12.055  0.00  0.00    +0.000 C 
ATOM      3  C   UNL     1      42.619   5.219  12.091  0.00  0.00    +0.000 C 
ENDROOT
BRANCH   1   4
ATOM      4  C   UNL     1      45.186   5.495  11.928  0.00  0.00    +0.000 A 
ATOM      5  C   UNL     1      45.781   4.854  13.025  0.00  0.00    +0.000 A 
ATOM      6  C   UNL     1      47.068   5.191  13.448  0.00  0.00    +0.000 A 
ATOM      7  C   UNL     1      47.787   6.187  12.787  0.00  0.00    +0.000 A 
ATOM      8  C   UNL     1      47.156   6.942  11.805  0.00  0.00    +0.000 A 
ATOM      9  C   UNL     1      45.873   6.592  11.377  0.00  0.00    +0.000 A 
BRANCH   7  10
ATOM     10  O   UNL     1      49.067   6.371  13.211  0.00  0.00    +0.000 OA
BRANCH  10  11
ATOM     11  C   UNL     1      49.286   7.223  14.333  0.00  0.00    +0.000 C 
ATOM     12  F   UNL     1      48.274   8.074  14.603  0.00  0.00    +0.000 F 
ATOM     13  F   UNL     1      49.504   6.457  15.424  0.00  0.00    +0.000 F 
ATOM     14  F   UNL     1      50.395   7.963  14.109  0.00  0.00    +0.000 F 
ENDBRANCH  10  11
ENDBRANCH   7  10
ENDBRANCH   1   4
BRANCH   1  15
ATOM     15  N   UNL     1      43.957   4.825   9.863  0.00  0.00    +0.000 N 
ATOM     16  H   UNL     1      43.523   5.528   9.273  0.00  0.00    +0.000 HD
BRANCH  15  20
ATOM     17  C   UNL     1      46.630   2.715   7.585  0.00  0.00    +0.000 A 
ATOM     18  C   UNL     1      46.527   4.091   7.533  0.00  0.00    +0.000 A 
ATOM     19  N   UNL     1      45.637   4.784   8.287  0.00  0.00    +0.000 NA
ATOM     20  C   UNL     1      44.843   4.069   9.114  0.00  0.00    +0.000 A 
ATOM     21  C   UNL     1      44.949   2.678   9.147  0.00  0.00    +0.000 A 
ATOM     22  N   UNL     1      45.840   1.969   8.395  0.00  0.00    +0.000 NA
BRANCH  17  24
ATOM     23  N   UNL     1      48.357   1.493   6.082  0.00  0.00    +0.000 NA
ATOM     24  C   UNL     1      47.592   2.022   6.777  0.00  0.00    +0.000 C 
ENDBRANCH  17  24
ENDBRANCH  15  20
ENDBRANCH   1  15
TORSDOF 6
ENDMDL
MODEL 3
REMARK VINA RESULT:    -7.441      1.501      1.882
REMARK INTER + INTRA:         -10.798
REMARK INTER:                 -10.142
REMARK INTRA:                  -0.656
REMARK UNBOUND:                -0.747
REMARK  Name = 
REMARK  6 active torsions:
REMARK  status: ('A' for Active; 'I' for Inactive)
REMARK    1  A    between atoms: C_2  and  C_3
REMARK    2  A    between atoms: C_6  and  N_7
REMARK    3  A    between atoms: N_7  and  C_8
REMARK    4  A    between atoms: C_8  and  C_9
REMARK    5  A    between atoms: C_12  and  O_13
REMARK    6  A    between atoms: O_13  and  C_14
REMARK                            x       y       z     vdW  Elec       q    Type
REMARK                         _______ _______ _______ _____ _____    ______ ____
ROOT
ATOM      1  C   UNL     1      43.932   5.028  11.300  0.00  0.00    +0.000 C 
ATOM      2  C   UNL     1      42.791   5.144  12.310  0.00  0.00    +0.000 C 
ATOM      3  C   UNL     1      43.014   6.237  11.320  0.00  0.00    +0.000 C 
ENDROOT
BRANCH   1   4
ATOM      4  C   UNL     1      45.343   5.233  11.833  0.00  0.00    +0.000 A 
ATOM      5  C   UNL     1      46.138   6.304  11.396  0.00  0.00    +0.000 A 
ATOM      6  C   UNL     1      47.333   6.626  12.041  0.00  0.00    +0.000 A 
ATOM      7  C   UNL     1      47.766   5.877  13.134  0.00  0.00    +0.000 A 
ATOM      8  C   UNL     1      47.078   4.719  13.480  0.00  0.00    +0.000 A 
ATOM      9  C   UNL     1      45.876   4.408  12.840  0.00  0.00    +0.000 A 
BRANCH   7  10
ATOM     10  O   UNL     1      48.889   6.332  13.754  0.00  0.00    +0.000 OA
BRANCH  10  11
ATOM     11  C   UNL     1      48.733   7.117  14.933  0.00  0.00    +0.000 C 
ATOM     12  F   UNL     1      49.861   7.717  15.368  0.00  0.00    +0.000 F 
ATOM     13  F   UNL     1      47.804   8.069  14.701  0.00  0.00    +0.000 F 
ATOM     14  F   UNL     1      48.281   6.322  15.930  0.00  0.00    +0.000 F 
ENDBRANCH  10  11
ENDBRANCH   7  10
ENDBRANCH   1   4
BRANCH   1  15
ATOM     15  N   UNL     1      43.817   3.928  10.352  0.00  0.00    +0.000 N 
ATOM     16  H   UNL     1      42.898   3.563  10.122  0.00  0.00    +0.000 HD
BRANCH  15  20
ATOM     17  C   UNL     1      46.520   2.578   7.583  0.00  0.00    +0.000 A 
ATOM     18  C   UNL     1      45.942   1.752   8.528  0.00  0.00    +0.000 A 
ATOM     19  N   UNL     1      45.051   2.206   9.445  0.00  0.00    +0.000 NA
ATOM     20  C   UNL     1      44.734   3.519   9.399  0.00  0.00    +0.000 A 
ATOM     21  C   UNL     1      45.335   4.344   8.446  0.00  0.00    +0.000 A 
ATOM     22  N   UNL     1      46.232   3.900   7.519  0.00  0.00    +0.000 NA
BRANCH  17  24
ATOM     23  N   UNL     1      48.244   1.660   5.875  0.00  0.00    +0.000 NA
ATOM     24  C   UNL     1      47.451   2.055   6.626  0.00  0.00    +0.000 C 
ENDBRANCH  17  24
ENDBRANCH  15  20
ENDBRANCH   1  15
TORSDOF 6
ENDMDL
MODEL 4
REMARK VINA RESULT:    -7.245      5.019      7.229
REMARK INTER + INTRA:         -10.534
REMARK INTER:                  -9.848
REMARK INTRA:                  -0.686
REMARK UNBOUND:                -0.747
REMARK  Name = 
REMARK  6 active torsions:
REMARK  status: ('A' for Active; 'I' for Inactive)
REMARK    1  A    between atoms: C_2  and  C_3
REMARK    2  A    between atoms: C_6  and  N_7
REMARK    3  A    between atoms: N_7  and  C_8
REMARK    4  A    between atoms: C_8  and  C_9
REMARK    5  A    between atoms: C_12  and  O_13
REMARK    6  A    between atoms: O_13  and  C_14
REMARK                            x       y       z     vdW  Elec       q    Type
REMARK                         _______ _______ _______ _____ _____    ______ ____
ROOT
ATOM      1  C   UNL     1      44.214   4.778  11.664  0.00  0.00    +0.000 C 
ATOM      2  C   UNL     1      42.694   4.653  11.748  0.00  0.00    +0.000 C 
ATOM      3  C   UNL     1      43.555   3.718  12.528  0.00  0.00    +0.000 C 
ENDROOT
BRANCH   1   4
ATOM      4  C   UNL     1      44.872   4.299  10.378  0.00  0.00    +0.000 A 
ATOM      5  C   UNL     1      44.735   2.972   9.941  0.00  0.00    +0.000 A 
ATOM      6  C   UNL     1      45.141   2.588   8.662  0.00  0.00    +0.000 A 
ATOM      7  C   UNL     1      45.703   3.522   7.792  0.00  0.00    +0.000 A 
ATOM      8  C   UNL     1      45.994   4.798   8.262  0.00  0.00    +0.000 A 
ATOM      9  C   UNL     1      45.574   5.181   9.539  0.00  0.00    +0.000 A 
BRANCH   7  10
ATOM     10  O   UNL     1      45.972   3.072   6.537  0.00  0.00    +0.000 OA
BRANCH  10  11
ATOM     11  C   UNL     1      47.176   2.338   6.331  0.00  0.00    +0.000 C 
ATOM     12  F   UNL     1      48.170   2.625   7.198  0.00  0.00    +0.000 F 
ATOM     13  F   UNL     1      46.900   1.018   6.417  0.00  0.00    +0.000 F 
ATOM     14  F   UNL     1      47.634   2.592   5.084  0.00  0.00    +0.000 F 
ENDBRANCH  10  11
ENDBRANCH   7  10
ENDBRANCH   1   4
BRANCH   1  15
ATOM     15  N   UNL     1      44.767   6.024  12.177  0.00  0.00    +0.000 N 
ATOM     16  H   UNL     1      44.153   6.821  12.317  0.00  0.00    +0.000 HD
BRANCH  15  20
ATOM     17  C   UNL     1      48.245   6.736  14.224  0.00  0.00    +0.000 A 
ATOM     18  C   UNL     1      47.513   7.741  13.624  0.00  0.00    +0.000 A 
ATOM     19  N   UNL     1      46.364   7.499  12.944  0.00  0.00    +0.000 NA
ATOM     20  C   UNL     1      45.946   6.215  12.878  0.00  0.00    +0.000 A 
ATOM     21  C   UNL     1      46.703   5.208  13.479  0.00  0.00    +0.000 A 
ATOM     22  N   UNL     1      47.859   5.438  14.166  0.00  0.00    +0.000 NA
BRANCH  17  24
ATOM     23  N   UNL     1      50.420   7.234  15.549  0.00  0.00    +0.000 NA
ATOM     24  C   UNL     1      49.450   7.037  14.942  0.00  0.00    +0.000 C 
ENDBRANCH  17  24
ENDBRANCH  15  20
ENDBRANCH   1  15
TORSDOF 6
ENDMDL
MODEL 5
REMARK VINA RESULT:    -6.529      4.954      7.349
REMARK INTER + INTRA:          -9.567
REMARK INTER:                  -9.400
REMARK INTRA:                  -0.167
REMARK UNBOUND:                -0.747
REMARK  Name = 
REMARK  6 active torsions:
REMARK  status: ('A' for Active; 'I' for Inactive)
REMARK    1  A    between atoms: C_2  and  C_3
REMARK    2  A    between atoms: C_6  and  N_7
REMARK    3  A    between atoms: N_7  and  C_8
REMARK    4  A    between atoms: C_8  and  C_9
REMARK    5  A    between atoms: C_12  and  O_13
REMARK    6  A    between atoms: O_13  and  C_14
REMARK                            x       y       z     vdW  Elec       q    Type
REMARK                         _______ _______ _______ _____ _____    ______ ____
ROOT
ATOM      1  C   UNL     1      45.473   5.854  11.874  0.00  0.00    +0.000 C 
ATOM      2  C   UNL     1      44.862   7.248  11.739  0.00  0.00    +0.000 C 
ATOM      3  C   UNL     1      44.199   6.232  12.607  0.00  0.00    +0.000 C 
ENDROOT
BRANCH   1   4
ATOM      4  C   UNL     1      45.324   4.921  10.681  0.00  0.00    +0.000 A 
ATOM      5  C   UNL     1      45.707   5.321   9.391  0.00  0.00    +0.000 A 
ATOM      6  C   UNL     1      45.783   4.403   8.343  0.00  0.00    +0.000 A 
ATOM      7  C   UNL     1      45.467   3.061   8.559  0.00  0.00    +0.000 A 
ATOM      8  C   UNL     1      44.932   2.678   9.784  0.00  0.00    +0.000 A 
ATOM      9  C   UNL     1      44.870   3.599  10.833  0.00  0.00    +0.000 A 
BRANCH   7  10
ATOM     10  O   UNL     1      45.670   2.230   7.501  0.00  0.00    +0.000 OA
BRANCH  10  11
ATOM     11  C   UNL     1      46.978   2.165   6.940  0.00  0.00    +0.000 C 
ATOM     12  F   UNL     1      47.810   3.155   7.326  0.00  0.00    +0.000 F 
ATOM     13  F   UNL     1      47.536   0.981   7.275  0.00  0.00    +0.000 F 
ATOM     14  F   UNL     1      46.878   2.217   5.592  0.00  0.00    +0.000 F 
ENDBRANCH  10  11
ENDBRANCH   7  10
ENDBRANCH   1   4
BRANCH   1  15
ATOM     15  N   UNL     1      46.791   5.808  12.493  0.00  0.00    +0.000 N 
ATOM     16  H   UNL     1      47.515   6.443  12.172  0.00  0.00    +0.000 HD
BRANCH  15  20
ATOM     17  C   UNL     1      47.900   4.402  16.179  0.00  0.00    +0.000 A 
ATOM     18  C   UNL     1      48.304   5.631  15.696  0.00  0.00    +0.000 A 
ATOM     19  N   UNL     1      47.936   6.090  14.473  0.00  0.00    +0.000 NA
ATOM     20  C   UNL     1      47.139   5.290  13.729  0.00  0.00    +0.000 A 
ATOM     21  C   UNL     1      46.750   4.045  14.225  0.00  0.00    +0.000 A 
ATOM     22  N   UNL     1      47.112   3.573  15.453  0.00  0.00    +0.000 NA
BRANCH  17  24
ATOM     23  N   UNL     1      48.675   3.580  18.515  0.00  0.00    +0.000 NA
ATOM     24  C   UNL     1      48.304   3.959  17.482  0.00  0.00    +0.000 C 
ENDBRANCH  17  24
ENDBRANCH  15  20
ENDBRANCH   1  15
TORSDOF 6
ENDMDL
MODEL 6
REMARK VINA RESULT:    -6.122      4.661      7.141
REMARK INTER + INTRA:          -9.017
REMARK INTER:                  -8.206
REMARK INTRA:                  -0.811
REMARK UNBOUND:                -0.747
REMARK  Name = 
REMARK  6 active torsions:
REMARK  status: ('A' for Active; 'I' for Inactive)
REMARK    1  A    between atoms: C_2  and  C_3
REMARK    2  A    between atoms: C_6  and  N_7
REMARK    3  A    between atoms: N_7  and  C_8
REMARK    4  A    between atoms: C_8  and  C_9
REMARK    5  A    between atoms: C_12  and  O_13
REMARK    6  A    between atoms: O_13  and  C_14
REMARK                            x       y       z     vdW  Elec       q    Type
REMARK                         _______ _______ _______ _____ _____    ______ ____
ROOT
ATOM      1  C   UNL     1      46.447   7.404  12.478  0.00  0.00    +0.000 C 
ATOM      2  C   UNL     1      46.640   8.871  12.095  0.00  0.00    +0.000 C 
ATOM      3  C   UNL     1      45.649   8.507  13.149  0.00  0.00    +0.000 C 
ENDROOT
BRANCH   1   4
ATOM      4  C   UNL     1      45.700   6.528  11.483  0.00  0.00    +0.000 A 
ATOM      5  C   UNL     1      46.266   6.186  10.245  0.00  0.00    +0.000 A 
ATOM      6  C   UNL     1      45.689   5.209   9.432  0.00  0.00    +0.000 A 
ATOM      7  C   UNL     1      44.524   4.557   9.836  0.00  0.00    +0.000 A 
ATOM      8  C   UNL     1      43.862   4.993  10.978  0.00  0.00    +0.000 A 
ATOM      9  C   UNL     1      44.451   5.962  11.795  0.00  0.00    +0.000 A 
BRANCH   7  10
ATOM     10  O   UNL     1      44.098   3.553   9.023  0.00  0.00    +0.000 OA
BRANCH  10  11
ATOM     11  C   UNL     1      44.870   2.356   8.974  0.00  0.00    +0.000 C 
ATOM     12  F   UNL     1      45.642   2.135  10.059  0.00  0.00    +0.000 F 
ATOM     13  F   UNL     1      44.034   1.306   8.823  0.00  0.00    +0.000 F 
ATOM     14  F   UNL     1      45.684   2.405   7.895  0.00  0.00    +0.000 F 
ENDBRANCH  10  11
ENDBRANCH   7  10
ENDBRANCH   1   4
BRANCH   1  15
ATOM     15  N   UNL     1      47.609   6.757  13.073  0.00  0.00    +0.000 N 
ATOM     16  H   UNL     1      48.536   7.128  12.887  0.00  0.00    +0.000 HD
BRANCH  15  20
ATOM     17  C   UNL     1      47.838   4.384  16.406  0.00  0.00    +0.000 A 
ATOM     18  C   UNL     1      48.558   5.555  16.272  0.00  0.00    +0.000 A 
ATOM     19  N   UNL     1      48.480   6.335  15.165  0.00  0.00    +0.000 NA
ATOM     20  C   UNL     1      47.653   5.923  14.178  0.00  0.00    +0.000 A 
ATOM     21  C   UNL     1      46.942   4.731  14.322  0.00  0.00    +0.000 A 
ATOM     22  N   UNL     1      47.010   3.938  15.430  0.00  0.00    +0.000 NA
BRANCH  17  24
ATOM     23  N   UNL     1      48.080   2.960  18.562  0.00  0.00    +0.000 NA
ATOM     24  C   UNL     1      47.942   3.594  17.598  0.00  0.00    +0.000 C 
ENDBRANCH  17  24
ENDBRANCH  15  20
ENDBRANCH   1  15
TORSDOF 6
ENDMDL
MODEL 7
REMARK VINA RESULT:    -5.764      5.197      7.702
REMARK INTER + INTRA:          -8.533
REMARK INTER:                  -8.266
REMARK INTRA:                  -0.267
REMARK UNBOUND:                -0.747
REMARK  Name = 
REMARK  6 active torsions:
REMARK  status: ('A' for Active; 'I' for Inactive)
REMARK    1  A    between atoms: C_2  and  C_3
REMARK    2  A    between atoms: C_6  and  N_7
REMARK    3  A    between atoms: N_7  and  C_8
REMARK    4  A    between atoms: C_8  and  C_9
REMARK    5  A    between atoms: C_12  and  O_13
REMARK    6  A    between atoms: O_13  and  C_14
REMARK                            x       y       z     vdW  Elec       q    Type
REMARK                         _______ _______ _______ _____ _____    ______ ____
ROOT
ATOM      1  C   UNL     1      47.489   6.705  13.047  0.00  0.00    +0.000 C 
ATOM      2  C   UNL     1      48.889   6.620  12.440  0.00  0.00    +0.000 C 
ATOM      3  C   UNL     1      48.030   7.804  12.150  0.00  0.00    +0.000 C 
ENDROOT
BRANCH   1   4
ATOM      4  C   UNL     1      46.426   5.796  12.449  0.00  0.00    +0.000 A 
ATOM      5  C   UNL     1      45.744   6.148  11.274  0.00  0.00    +0.000 A 
ATOM      6  C   UNL     1      44.939   5.226  10.602  0.00  0.00    +0.000 A 
ATOM      7  C   UNL     1      44.791   3.930  11.096  0.00  0.00    +0.000 A 
ATOM      8  C   UNL     1      45.327   3.612  12.339  0.00  0.00    +0.000 A 
ATOM      9  C   UNL     1      46.142   4.534  13.001  0.00  0.00    +0.000 A 
BRANCH   7  10
ATOM     10  O   UNL     1      44.069   3.080  10.317  0.00  0.00    +0.000 OA
BRANCH  10  11
ATOM     11  C   UNL     1      44.723   2.468   9.209  0.00  0.00    +0.000 C 
ATOM     12  F   UNL     1      46.072   2.486   9.266  0.00  0.00    +0.000 F 
ATOM     13  F   UNL     1      44.316   1.183   9.120  0.00  0.00    +0.000 F 
ATOM     14  F   UNL     1      44.352   3.106   8.076  0.00  0.00    +0.000 F 
ENDBRANCH  10  11
ENDBRANCH   7  10
ENDBRANCH   1   4
BRANCH   1  15
ATOM     15  N   UNL     1      47.444   6.784  14.501  0.00  0.00    +0.000 N 
ATOM     16  H   UNL     1      46.578   7.053  14.958  0.00  0.00    +0.000 HD
BRANCH  15  20
ATOM     17  C   UNL     1      50.035   5.129  17.210  0.00  0.00    +0.000 A 
ATOM     18  C   UNL     1      50.252   6.361  16.625  0.00  0.00    +0.000 A 
ATOM     19  N   UNL     1      49.392   6.902  15.726  0.00  0.00    +0.000 NA
ATOM     20  C   UNL     1      48.289   6.185  15.419  0.00  0.00    +0.000 A 
ATOM     21  C   UNL     1      48.089   4.935  16.008  0.00  0.00    +0.000 A 
ATOM     22  N   UNL     1      48.945   4.380  16.914  0.00  0.00    +0.000 NA
BRANCH  17  24
ATOM     23  N   UNL     1      51.745   4.214  18.934  0.00  0.00    +0.000 NA
ATOM     24  C   UNL     1      50.965   4.597  18.163  0.00  0.00    +0.000 C 
ENDBRANCH  17  24
ENDBRANCH  15  20
ENDBRANCH   1  15
TORSDOF 6
ENDMDL
MODEL 8
REMARK VINA RESULT:    -5.656      4.716      7.439
REMARK INTER + INTRA:          -8.387
REMARK INTER:                  -7.626
REMARK INTRA:                  -0.761
REMARK UNBOUND:                -0.747
REMARK  Name = 
REMARK  6 active torsions:
REMARK  status: ('A' for Active; 'I' for Inactive)
REMARK    1  A    between atoms: C_2  and  C_3
REMARK    2  A    between atoms: C_6  and  N_7
REMARK    3  A    between atoms: N_7  and  C_8
REMARK    4  A    between atoms: C_8  and  C_9
REMARK    5  A    between atoms: C_12  and  O_13
REMARK    6  A    between atoms: O_13  and  C_14
REMARK                            x       y       z     vdW  Elec       q    Type
REMARK                         _______ _______ _______ _____ _____    ______ ____
ROOT
ATOM      1  C   UNL     1      47.635   7.875  12.676  0.00  0.00    +0.000 C 
ATOM      2  C   UNL     1      48.231   8.958  11.777  0.00  0.00    +0.000 C 
ATOM      3  C   UNL     1      47.416   9.349  12.963  0.00  0.00    +0.000 C 
ENDROOT
BRANCH   1   4
ATOM      4  C   UNL     1      46.446   7.103  12.123  0.00  0.00    +0.000 A 
ATOM      5  C   UNL     1      46.516   6.447  10.883  0.00  0.00    +0.000 A 
ATOM      6  C   UNL     1      45.518   5.559  10.479  0.00  0.00    +0.000 A 
ATOM      7  C   UNL     1      44.420   5.312  11.303  0.00  0.00    +0.000 A 
ATOM      8  C   UNL     1      44.253   6.071  12.457  0.00  0.00    +0.000 A 
ATOM      9  C   UNL     1      45.261   6.949  12.863  0.00  0.00    +0.000 A 
BRANCH   7  10
ATOM     10  O   UNL     1      43.556   4.357  10.865  0.00  0.00    +0.000 OA
BRANCH  10  11
ATOM     11  C   UNL     1      43.924   2.991  11.035  0.00  0.00    +0.000 C 
ATOM     12  F   UNL     1      45.070   2.794  11.721  0.00  0.00    +0.000 F 
ATOM     13  F   UNL     1      42.925   2.348  11.677  0.00  0.00    +0.000 F 
ATOM     14  F   UNL     1      44.074   2.424   9.816  0.00  0.00    +0.000 F 
ENDBRANCH  10  11
ENDBRANCH   7  10
ENDBRANCH   1   4
BRANCH   1  15
ATOM     15  N   UNL     1      48.604   7.040  13.373  0.00  0.00    +0.000 N 
ATOM     16  H   UNL     1      49.546   6.955  13.002  0.00  0.00    +0.000 HD
BRANCH  15  20
ATOM     17  C   UNL     1      48.473   5.670  17.233  0.00  0.00    +0.000 A 
ATOM     18  C   UNL     1      47.981   4.945  16.165  0.00  0.00    +0.000 A 
ATOM     19  N   UNL     1      48.023   5.405  14.890  0.00  0.00    +0.000 NA
ATOM     20  C   UNL     1      48.582   6.620  14.692  0.00  0.00    +0.000 A 
ATOM     21  C   UNL     1      49.064   7.347  15.781  0.00  0.00    +0.000 A 
ATOM     22  N   UNL     1      49.028   6.895  17.068  0.00  0.00    +0.000 NA
BRANCH  17  24
ATOM     23  N   UNL     1      48.382   4.763  19.662  0.00  0.00    +0.000 NA
ATOM     24  C   UNL     1      48.417   5.142  18.564  0.00  0.00    +0.000 C 
ENDBRANCH  17  24
ENDBRANCH  15  20
ENDBRANCH   1  15
TORSDOF 6
ENDMDL
MODEL 9
REMARK VINA RESULT:    -5.614      5.222      8.083
REMARK INTER + INTRA:          -8.331
REMARK INTER:                  -7.450
REMARK INTRA:                  -0.881
REMARK UNBOUND:                -0.747
REMARK  Name = 
REMARK  6 active torsions:
REMARK  status: ('A' for Active; 'I' for Inactive)
REMARK    1  A    between atoms: C_2  and  C_3
REMARK    2  A    between atoms: C_6  and  N_7
REMARK    3  A    between atoms: N_7  and  C_8
REMARK    4  A    between atoms: C_8  and  C_9
REMARK    5  A    between atoms: C_12  and  O_13
REMARK    6  A    between atoms: O_13  and  C_14
REMARK                            x       y       z     vdW  Elec       q    Type
REMARK                         _______ _______ _______ _____ _____    ______ ____
ROOT
ATOM      1  C   UNL     1      49.107   7.647  12.717  0.00  0.00    +0.000 C 
ATOM      2  C   UNL     1      49.923   7.656  11.425  0.00  0.00    +0.000 C 
ATOM      3  C   UNL     1      49.398   8.939  11.974  0.00  0.00    +0.000 C 
ENDROOT
BRANCH   1   4
ATOM      4  C   UNL     1      47.685   7.113  12.626  0.00  0.00    +0.000 A 
ATOM      5  C   UNL     1      47.397   5.762  12.876  0.00  0.00    +0.000 A 
ATOM      6  C   UNL     1      46.081   5.318  13.015  0.00  0.00    +0.000 A 
ATOM      7  C   UNL     1      45.020   6.215  12.896  0.00  0.00    +0.000 A 
ATOM      8  C   UNL     1      45.275   7.520  12.490  0.00  0.00    +0.000 A 
ATOM      9  C   UNL     1      46.595   7.963  12.365  0.00  0.00    +0.000 A 
BRANCH   7  10
ATOM     10  O   UNL     1      43.784   5.704  13.148  0.00  0.00    +0.000 OA
BRANCH  10  11
ATOM     11  C   UNL     1      43.065   5.125  12.062  0.00  0.00    +0.000 C 
ATOM     12  F   UNL     1      43.660   5.249  10.857  0.00  0.00    +0.000 F 
ATOM     13  F   UNL     1      42.881   3.810  12.315  0.00  0.00    +0.000 F 
ATOM     14  F   UNL     1      41.849   5.712  11.981  0.00  0.00    +0.000 F 
ENDBRANCH  10  11
ENDBRANCH   7  10
ENDBRANCH   1   4
BRANCH   1  15
ATOM     15  N   UNL     1      49.824   7.207  13.905  0.00  0.00    +0.000 N 
ATOM     16  H   UNL     1      50.834   7.106  13.869  0.00  0.00    +0.000 HD
BRANCH  15  20
ATOM     17  C   UNL     1      48.622   7.202  17.823  0.00  0.00    +0.000 A 
ATOM     18  C   UNL     1      49.070   6.066  17.177  0.00  0.00    +0.000 A 
ATOM     19  N   UNL     1      49.463   6.073  15.879  0.00  0.00    +0.000 NA
ATOM     20  C   UNL     1      49.408   7.254  15.225  0.00  0.00    +0.000 A 
ATOM     21  C   UNL     1      48.940   8.392  15.886  0.00  0.00    +0.000 A 
ATOM     22  N   UNL     1      48.543   8.398  17.191  0.00  0.00    +0.000 NA
BRANCH  17  24
ATOM     23  N   UNL     1      47.933   7.156  20.324  0.00  0.00    +0.000 NA
ATOM     24  C   UNL     1      48.225   7.152  19.200  0.00  0.00    +0.000 C 
ENDBRANCH  17  24
ENDBRANCH  15  20
ENDBRANCH   1  15
TORSDOF 6
ENDMDL
