MODEL 1
REMARK VINA RESULT:    -8.378      0.000      0.000
REMARK INTER + INTRA:         -12.436
REMARK INTER:                 -11.317
REMARK INTRA:                  -1.119
REMARK UNBOUND:                -1.119
REMARK  Name = 
REMARK  6 active torsions:
REMARK  status: ('A' for Active; 'I' for Inactive)
REMARK    1  A    between atoms: C_2  and  C_20
REMARK    2  A    between atoms: N_3  and  C_4
REMARK    3  A    between atoms: C_4  and  C_5
REMARK    4  A    between atoms: C_8  and  O_9
REMARK    5  A    between atoms: O_9  and  C_10
REMARK    6  A    between atoms: C_10  and  C_11
REMARK                            x       y       z     vdW  Elec       q    Type
REMARK                         _______ _______ _______ _____ _____    ______ ____
ROOT
ATOM      1  C   UNL     1      46.890   7.887  13.215  0.00  0.00    +0.000 C 
ENDROOT
BRANCH   1   2
ATOM      2  C   UNL     1      46.082   6.963  12.338  0.00  0.00    +0.000 A 
ATOM      3  C   UNL     1      46.491   6.680  11.029  0.00  0.00    +0.000 A 
ATOM      4  C   UNL     1      45.764   5.792  10.222  0.00  0.00    +0.000 A 
ATOM      5  C   UNL     1      44.606   5.187  10.712  0.00  0.00    +0.000 A 
ATOM      6  C   UNL     1      44.161   5.514  11.994  0.00  0.00    +0.000 A 
ATOM      7  C   UNL     1      44.891   6.391  12.804  0.00  0.00    +0.000 A 
BRANCH   5   8
ATOM      8  O   UNL     1      43.813   4.306  10.028  0.00  0.00    +0.000 OA
BRANCH   8   9
ATOM      9  C   UNL     1      44.233   3.976   8.709  0.00  0.00    +0.000 C 
BRANCH   9  10
ATOM     10  C   UNL     1      44.946   2.619   8.669  0.00  0.00    +0.000 C 
ATOM     11  O   UNL     1      44.513   1.666   9.324  0.00  0.00    +0.000 OA
ATOM     12  N   UNL     1      46.033   2.480   7.833  0.00  0.00    +0.000 N 
ATOM     13  C   UNL     1      46.641   3.495   6.997  0.00  0.00    +0.000 C 
ATOM     14  C   UNL     1      47.266   2.682   5.875  0.00  0.00    +0.000 C 
ATOM     15  C   UNL     1      47.738   1.414   6.578  0.00  0.00    +0.000 C 
ATOM     16  C   UNL     1      46.741   1.216   7.717  0.00  0.00    +0.000 C 
ENDBRANCH   9  10
ENDBRANCH   8   9
ENDBRANCH   5   8
ENDBRANCH   1   2
BRANCH   1  19
ATOM     17  O   UNL     1      49.366   6.692  13.623  0.00  0.00    +0.000 OA
ATOM     18  C   UNL     1      48.580   6.736  14.563  0.00  0.00    +0.000 C 
ATOM     19  N   UNL     1      47.307   7.237  14.430  0.00  0.00    +0.000 N 
ATOM     20  H   UNL     1      46.778   7.462  15.266  0.00  0.00    +0.000 HD
BRANCH  18  21
ATOM     21  C   UNL     1      48.933   6.206  15.886  0.00  0.00    +0.000 A 
ATOM     22  C   UNL     1      49.880   6.856  16.666  0.00  0.00    +0.000 A 
ATOM     23  S   UNL     1      50.198   6.072  18.149  0.00  0.00    +0.000 S 
ATOM     24  C   UNL     1      49.043   4.865  17.823  0.00  0.00    +0.000 A 
ATOM     25  N   UNL     1      48.796   3.872  18.715  0.00  0.00    +0.000 NA
ATOM     26  C   UNL     1      47.870   3.045  18.352  0.00  0.00    +0.000 A 
ATOM     27  N   UNL     1      47.170   3.125  17.177  0.00  0.00    +0.000 N 
ATOM     28  C   UNL     1      47.399   4.100  16.237  0.00  0.00    +0.000 A 
ATOM     29  O   UNL     1      46.773   4.128  15.182  0.00  0.00    +0.000 OA
ATOM     30  C   UNL     1      48.431   5.054  16.596  0.00  0.00    +0.000 A 
ATOM     31  H   UNL     1      46.458   2.444  16.952  0.00  0.00    +0.000 HD
ENDBRANCH  18  21
ENDBRANCH   1  19
TORSDOF 6
ENDMDL
MODEL 2
REMARK VINA RESULT:    -8.014      1.680      2.060
REMARK INTER + INTRA:         -11.944
REMARK INTER:                 -11.093
REMARK INTRA:                  -0.852
REMARK UNBOUND:                -1.119
REMARK  Name = 
REMARK  6 active torsions:
REMARK  status: ('A' for Active; 'I' for Inactive)
REMARK    1  A    between atoms: C_2  and  C_20
REMARK    2  A    between atoms: N_3  and  C_4
REMARK    3  A    between atoms: C_4  and  C_5
REMARK    4  A    between atoms: C_8  and  O_9
REMARK    5  A    between atoms: O_9  and  C_10
REMARK    6  A    between atoms: C_10  and  C_11
REMARK                            x       y       z     vdW  Elec       q    Type
REMARK                         _______ _______ _______ _____ _____    ______ ____
ROOT
ATOM      1  C   UNL     1      48.302   6.642  13.743  0.00  0.00    +0.000 C 
ENDROOT
BRANCH   1   2
ATOM      2  C   UNL     1      47.152   6.061  12.960  0.00  0.00    +0.000 A 
ATOM      3  C   UNL     1      46.403   4.995  13.474  0.00  0.00    +0.000 A 
ATOM      4  C   UNL     1      45.309   4.474  12.767  0.00  0.00    +0.000 A 
ATOM      5  C   UNL     1      44.958   5.007  11.526  0.00  0.00    +0.000 A 
ATOM      6  C   UNL     1      45.740   6.027  10.982  0.00  0.00    +0.000 A 
ATOM      7  C   UNL     1      46.825   6.555  11.690  0.00  0.00    +0.000 A 
BRANCH   5   8
ATOM      8  O   UNL     1      43.916   4.590  10.742  0.00  0.00    +0.000 OA
BRANCH   8   9
ATOM      9  C   UNL     1      44.225   4.317   9.380  0.00  0.00    +0.000 C 
BRANCH   9  10
ATOM     10  C   UNL     1      44.775   2.897   9.203  0.00  0.00    +0.000 C 
ATOM     11  O   UNL     1      44.295   1.957   9.842  0.00  0.00    +0.000 OA
ATOM     12  N   UNL     1      45.765   2.695   8.264  0.00  0.00    +0.000 N 
ATOM     13  C   UNL     1      46.410   3.690   7.432  0.00  0.00    +0.000 C 
ATOM     14  C   UNL     1      46.842   2.888   6.215  0.00  0.00    +0.000 C 
ATOM     15  C   UNL     1      47.226   1.535   6.804  0.00  0.00    +0.000 C 
ATOM     16  C   UNL     1      46.314   1.373   8.016  0.00  0.00    +0.000 C 
ENDBRANCH   9  10
ENDBRANCH   8   9
ENDBRANCH   5   8
ENDBRANCH   1   2
BRANCH   1  19
ATOM     17  O   UNL     1      50.198   6.356  15.755  0.00  0.00    +0.000 OA
ATOM     18  C   UNL     1      49.039   6.590  16.078  0.00  0.00    +0.000 C 
ATOM     19  N   UNL     1      48.023   6.669  15.155  0.00  0.00    +0.000 N 
ATOM     20  H   UNL     1      47.139   7.081  15.433  0.00  0.00    +0.000 HD
BRANCH  18  21
ATOM     21  C   UNL     1      48.651   6.751  17.485  0.00  0.00    +0.000 A 
ATOM     22  C   UNL     1      48.238   7.990  17.956  0.00  0.00    +0.000 A 
ATOM     23  S   UNL     1      47.873   8.001  19.624  0.00  0.00    +0.000 S 
ATOM     24  C   UNL     1      48.203   6.336  19.763  0.00  0.00    +0.000 A 
ATOM     25  N   UNL     1      48.064   5.691  20.950  0.00  0.00    +0.000 NA
ATOM     26  C   UNL     1      48.316   4.423  20.901  0.00  0.00    +0.000 A 
ATOM     27  N   UNL     1      48.692   3.745  19.772  0.00  0.00    +0.000 N 
ATOM     28  C   UNL     1      48.864   4.359  18.556  0.00  0.00    +0.000 A 
ATOM     29  O   UNL     1      49.228   3.728  17.569  0.00  0.00    +0.000 OA
ATOM     30  C   UNL     1      48.595   5.784  18.555  0.00  0.00    +0.000 A 
ATOM     31  H   UNL     1      48.876   2.752  19.803  0.00  0.00    +0.000 HD
ENDBRANCH  18  21
ENDBRANCH   1  19
TORSDOF 6
ENDMDL
MODEL 3
REMARK VINA RESULT:    -7.854      2.193      2.732
REMARK INTER + INTRA:         -11.728
REMARK INTER:                 -10.759
REMARK INTRA:                  -0.969
REMARK UNBOUND:                -1.119
REMARK  Name = 
REMARK  6 active torsions:
REMARK  status: ('A' for Active; 'I' for Inactive)
REMARK    1  A    between atoms: C_2  and  C_20
REMARK    2  A    between atoms: N_3  and  C_4
REMARK    3  A    between atoms: C_4  and  C_5
REMARK    4  A    between atoms: C_8  and  O_9
REMARK    5  A    between atoms: O_9  and  C_10
REMARK    6  A    between atoms: C_10  and  C_11
REMARK                            x       y       z     vdW  Elec       q    Type
REMARK                         _______ _______ _______ _____ _____    ______ ____
ROOT
ATOM      1  C   UNL     1      48.055   6.841  13.780  0.00  0.00    +0.000 C 
ENDROOT
BRANCH   1   2
ATOM      2  C   UNL     1      46.967   6.197  12.959  0.00  0.00    +0.000 A 
ATOM      3  C   UNL     1      46.230   5.120  13.468  0.00  0.00    +0.000 A 
ATOM      4  C   UNL     1      45.191   4.540  12.724  0.00  0.00    +0.000 A 
ATOM      5  C   UNL     1      44.886   5.024  11.452  0.00  0.00    +0.000 A 
ATOM      6  C   UNL     1      45.658   6.056  10.916  0.00  0.00    +0.000 A 
ATOM      7  C   UNL     1      46.687   6.642  11.661  0.00  0.00    +0.000 A 
BRANCH   5   8
ATOM      8  O   UNL     1      43.900   4.547  10.630  0.00  0.00    +0.000 OA
BRANCH   8   9
ATOM      9  C   UNL     1      44.274   4.295   9.281  0.00  0.00    +0.000 C 
BRANCH   9  10
ATOM     10  C   UNL     1      44.849   2.884   9.112  0.00  0.00    +0.000 C 
ATOM     11  O   UNL     1      44.381   1.938   9.754  0.00  0.00    +0.000 OA
ATOM     12  N   UNL     1      45.845   2.693   8.178  0.00  0.00    +0.000 N 
ATOM     13  C   UNL     1      46.476   3.695   7.343  0.00  0.00    +0.000 C 
ATOM     14  C   UNL     1      46.925   2.895   6.132  0.00  0.00    +0.000 C 
ATOM     15  C   UNL     1      47.330   1.551   6.728  0.00  0.00    +0.000 C 
ATOM     16  C   UNL     1      46.416   1.379   7.938  0.00  0.00    +0.000 C 
ENDBRANCH   9  10
ENDBRANCH   8   9
ENDBRANCH   5   8
ENDBRANCH   1   2
BRANCH   1  19
ATOM     17  O   UNL     1      50.162   6.399  15.537  0.00  0.00    +0.000 OA
ATOM     18  C   UNL     1      49.022   6.401  15.987  0.00  0.00    +0.000 C 
ATOM     19  N   UNL     1      47.917   6.534  15.180  0.00  0.00    +0.000 N 
ATOM     20  H   UNL     1      47.023   6.756  15.605  0.00  0.00    +0.000 HD
BRANCH  18  21
ATOM     21  C   UNL     1      48.760   6.210  17.419  0.00  0.00    +0.000 A 
ATOM     22  C   UNL     1      49.035   4.989  18.019  0.00  0.00    +0.000 A 
ATOM     23  S   UNL     1      48.624   4.933  19.676  0.00  0.00    +0.000 S 
ATOM     24  C   UNL     1      48.112   6.557  19.660  0.00  0.00    +0.000 A 
ATOM     25  N   UNL     1      47.651   7.157  20.787  0.00  0.00    +0.000 NA
ATOM     26  C   UNL     1      47.330   8.402  20.637  0.00  0.00    +0.000 A 
ATOM     27  N   UNL     1      47.431   9.096  19.461  0.00  0.00    +0.000 N 
ATOM     28  C   UNL     1      47.873   8.526  18.293  0.00  0.00    +0.000 A 
ATOM     29  O   UNL     1      47.926   9.169  17.249  0.00  0.00    +0.000 OA
ATOM     30  C   UNL     1      48.246   7.129  18.406  0.00  0.00    +0.000 A 
ATOM     31  H   UNL     1      47.161  10.069  19.410  0.00  0.00    +0.000 HD
ENDBRANCH  18  21
ENDBRANCH   1  19
TORSDOF 6
ENDMDL
MODEL 4
REMARK VINA RESULT:    -7.290      1.996      2.597
REMARK INTER + INTRA:         -10.966
REMARK INTER:                  -9.970
REMARK INTRA:                  -0.996
REMARK UNBOUND:                -1.119
REMARK  Name = 
REMARK  6 active torsions:
REMARK  status: ('A' for Active; 'I' for Inactive)
REMARK    1  A    between atoms: C_2  and  C_20
REMARK    2  A    between atoms: N_3  and  C_4
REMARK    3  A    between atoms: C_4  and  C_5
REMARK    4  A    between atoms: C_8  and  O_9
REMARK    5  A    between atoms: O_9  and  C_10
REMARK    6  A    between atoms: C_10  and  C_11
REMARK                            x       y       z     vdW  Elec       q    Type
REMARK                         _______ _______ _______ _____ _____    ______ ____
ROOT
ATOM      1  C   UNL     1      48.806   7.048  13.030  0.00  0.00    +0.000 C 
ENDROOT
BRANCH   1   2
ATOM      2  C   UNL     1      47.398   6.505  13.039  0.00  0.00    +0.000 A 
ATOM      3  C   UNL     1      46.329   7.284  12.578  0.00  0.00    +0.000 A 
ATOM      4  C   UNL     1      45.023   6.772  12.549  0.00  0.00    +0.000 A 
ATOM      5  C   UNL     1      44.768   5.476  12.996  0.00  0.00    +0.000 A 
ATOM      6  C   UNL     1      45.821   4.719  13.514  0.00  0.00    +0.000 A 
ATOM      7  C   UNL     1      47.126   5.224  13.534  0.00  0.00    +0.000 A 
BRANCH   5   8
ATOM      8  O   UNL     1      43.545   4.862  13.017  0.00  0.00    +0.000 OA
BRANCH   8   9
ATOM      9  C   UNL     1      42.947   4.609  11.751  0.00  0.00    +0.000 C 
BRANCH   9  10
ATOM     10  C   UNL     1      43.407   3.266  11.172  0.00  0.00    +0.000 C 
ATOM     11  O   UNL     1      42.921   2.208  11.583  0.00  0.00    +0.000 OA
ATOM     12  N   UNL     1      44.319   3.282  10.138  0.00  0.00    +0.000 N 
ATOM     13  C   UNL     1      44.958   4.437   9.541  0.00  0.00    +0.000 C 
ATOM     14  C   UNL     1      45.263   3.965   8.129  0.00  0.00    +0.000 C 
ATOM     15  C   UNL     1      45.614   2.492   8.317  0.00  0.00    +0.000 C 
ATOM     16  C   UNL     1      44.778   2.051   9.515  0.00  0.00    +0.000 C 
ENDBRANCH   9  10
ENDBRANCH   8   9
ENDBRANCH   5   8
ENDBRANCH   1   2
BRANCH   1  19
ATOM     17  O   UNL     1      48.301   8.941  15.000  0.00  0.00    +0.000 OA
ATOM     18  C   UNL     1      49.018   7.987  15.282  0.00  0.00    +0.000 C 
ATOM     19  N   UNL     1      49.384   7.046  14.348  0.00  0.00    +0.000 N 
ATOM     20  H   UNL     1      49.781   6.169  14.666  0.00  0.00    +0.000 HD
BRANCH  18  21
ATOM     21  C   UNL     1      49.577   7.817  16.628  0.00  0.00    +0.000 A 
ATOM     22  C   UNL     1      50.113   8.906  17.302  0.00  0.00    +0.000 A 
ATOM     23  S   UNL     1      50.760   8.512  18.833  0.00  0.00    +0.000 S 
ATOM     24  C   UNL     1      50.297   6.882  18.670  0.00  0.00    +0.000 A 
ATOM     25  N   UNL     1      50.540   5.983  19.658  0.00  0.00    +0.000 NA
ATOM     26  C   UNL     1      50.104   4.789  19.414  0.00  0.00    +0.000 A 
ATOM     27  N   UNL     1      49.447   4.418  18.271  0.00  0.00    +0.000 N 
ATOM     28  C   UNL     1      49.198   5.288  17.238  0.00  0.00    +0.000 A 
ATOM     29  O   UNL     1      48.630   4.917  16.215  0.00  0.00    +0.000 OA
ATOM     30  C   UNL     1      49.668   6.642  17.461  0.00  0.00    +0.000 A 
ATOM     31  H   UNL     1      49.134   3.466  18.141  0.00  0.00    +0.000 HD
ENDBRANCH  18  21
ENDBRANCH   1  19
TORSDOF 6
ENDMDL
MODEL 5
REMARK VINA RESULT:    -7.241      2.478      4.299
REMARK INTER + INTRA:         -10.901
REMARK INTER:                  -9.919
REMARK INTRA:                  -0.982
REMARK UNBOUND:                -1.119
REMARK  Name = 
REMARK  6 active torsions:
REMARK  status: ('A' for Active; 'I' for Inactive)
REMARK    1  A    between atoms: C_2  and  C_20
REMARK    2  A    between atoms: N_3  and  C_4
REMARK    3  A    between atoms: C_4  and  C_5
REMARK    4  A    between atoms: C_8  and  O_9
REMARK    5  A    between atoms: O_9  and  C_10
REMARK    6  A    between atoms: C_10  and  C_11
REMARK                            x       y       z     vdW  Elec       q    Type
REMARK                         _______ _______ _______ _____ _____    ______ ____
ROOT
ATOM      1  C   UNL     1      47.300   5.322  14.628  0.00  0.00    +0.000 C 
ENDROOT
BRANCH   1   2
ATOM      2  C   UNL     1      46.386   4.960  13.483  0.00  0.00    +0.000 A 
ATOM      3  C   UNL     1      46.066   3.622  13.220  0.00  0.00    +0.000 A 
ATOM      4  C   UNL     1      45.188   3.282  12.180  0.00  0.00    +0.000 A 
ATOM      5  C   UNL     1      44.629   4.279  11.380  0.00  0.00    +0.000 A 
ATOM      6  C   UNL     1      44.994   5.608  11.600  0.00  0.00    +0.000 A 
ATOM      7  C   UNL     1      45.862   5.950  12.643  0.00  0.00    +0.000 A 
BRANCH   5   8
ATOM      8  O   UNL     1      43.761   4.078  10.340  0.00  0.00    +0.000 OA
BRANCH   8   9
ATOM      9  C   UNL     1      44.342   4.004   9.043  0.00  0.00    +0.000 C 
BRANCH   9  10
ATOM     10  C   UNL     1      44.967   2.628   8.785  0.00  0.00    +0.000 C 
ATOM     11  O   UNL     1      44.477   1.614   9.291  0.00  0.00    +0.000 OA
ATOM     12  N   UNL     1      46.039   2.552   7.921  0.00  0.00    +0.000 N 
ATOM     13  C   UNL     1      46.706   3.645   7.243  0.00  0.00    +0.000 C 
ATOM     14  C   UNL     1      47.273   2.977   6.000  0.00  0.00    +0.000 C 
ATOM     15  C   UNL     1      47.666   1.589   6.493  0.00  0.00    +0.000 C 
ATOM     16  C   UNL     1      46.664   1.280   7.602  0.00  0.00    +0.000 C 
ENDBRANCH   9  10
ENDBRANCH   8   9
ENDBRANCH   5   8
ENDBRANCH   1   2
BRANCH   1  19
ATOM     17  O   UNL     1      49.767   6.272  15.482  0.00  0.00    +0.000 OA
ATOM     18  C   UNL     1      49.001   7.056  14.933  0.00  0.00    +0.000 C 
ATOM     19  N   UNL     1      47.732   6.693  14.550  0.00  0.00    +0.000 N 
ATOM     20  H   UNL     1      47.223   7.291  13.908  0.00  0.00    +0.000 HD
BRANCH  18  21
ATOM     21  C   UNL     1      49.375   8.456  14.695  0.00  0.00    +0.000 A 
ATOM     22  C   UNL     1      49.807   9.249  15.749  0.00  0.00    +0.000 A 
ATOM     23  S   UNL     1      50.152  10.860  15.297  0.00  0.00    +0.000 S 
ATOM     24  C   UNL     1      49.785  10.538  13.666  0.00  0.00    +0.000 A 
ATOM     25  N   UNL     1      49.895  11.505  12.719  0.00  0.00    +0.000 NA
ATOM     26  C   UNL     1      49.618  11.111  11.518  0.00  0.00    +0.000 A 
ATOM     27  N   UNL     1      49.242   9.838  11.183  0.00  0.00    +0.000 N 
ATOM     28  C   UNL     1      49.098   8.834  12.108  0.00  0.00    +0.000 A 
ATOM     29  O   UNL     1      48.733   7.709  11.778  0.00  0.00    +0.000 OA
ATOM     30  C   UNL     1      49.397   9.223  13.473  0.00  0.00    +0.000 A 
ATOM     31  H   UNL     1      49.037   9.595  10.223  0.00  0.00    +0.000 HD
ENDBRANCH  18  21
ENDBRANCH   1  19
TORSDOF 6
ENDMDL
MODEL 6
REMARK VINA RESULT:    -6.876      1.756      2.271
REMARK INTER + INTRA:         -10.408
REMARK INTER:                  -9.442
REMARK INTRA:                  -0.966
REMARK UNBOUND:                -1.119
REMARK  Name = 
REMARK  6 active torsions:
REMARK  status: ('A' for Active; 'I' for Inactive)
REMARK    1  A    between atoms: C_2  and  C_20
REMARK    2  A    between atoms: N_3  and  C_4
REMARK    3  A    between atoms: C_4  and  C_5
REMARK    4  A    between atoms: C_8  and  O_9
REMARK    5  A    between atoms: O_9  and  C_10
REMARK    6  A    between atoms: C_10  and  C_11
REMARK                            x       y       z     vdW  Elec       q    Type
REMARK                         _______ _______ _______ _____ _____    ______ ____
ROOT
ATOM      1  C   UNL     1      47.251   8.548  13.634  0.00  0.00    +0.000 C 
ENDROOT
BRANCH   1   2
ATOM      2  C   UNL     1      46.549   7.396  12.960  0.00  0.00    +0.000 A 
ATOM      3  C   UNL     1      45.405   7.613  12.181  0.00  0.00    +0.000 A 
ATOM      4  C   UNL     1      44.769   6.551  11.520  0.00  0.00    +0.000 A 
ATOM      5  C   UNL     1      45.263   5.253  11.643  0.00  0.00    +0.000 A 
ATOM      6  C   UNL     1      46.366   5.023  12.468  0.00  0.00    +0.000 A 
ATOM      7  C   UNL     1      47.007   6.082  13.119  0.00  0.00    +0.000 A 
BRANCH   5   8
ATOM      8  O   UNL     1      44.737   4.136  11.051  0.00  0.00    +0.000 OA
BRANCH   8   9
ATOM      9  C   UNL     1      44.285   4.291   9.710  0.00  0.00    +0.000 C 
BRANCH   9  10
ATOM     10  C   UNL     1      45.456   4.303   8.721  0.00  0.00    +0.000 C 
ATOM     11  O   UNL     1      46.071   5.349   8.494  0.00  0.00    +0.000 OA
ATOM     12  N   UNL     1      45.842   3.107   8.154  0.00  0.00    +0.000 N 
ATOM     13  C   UNL     1      45.233   1.805   8.337  0.00  0.00    +0.000 C 
ATOM     14  C   UNL     1      46.388   0.851   8.083  0.00  0.00    +0.000 C 
ATOM     15  C   UNL     1      47.183   1.544   6.982  0.00  0.00    +0.000 C 
ATOM     16  C   UNL     1      46.963   3.033   7.232  0.00  0.00    +0.000 C 
ENDBRANCH   9  10
ENDBRANCH   8   9
ENDBRANCH   5   8
ENDBRANCH   1   2
BRANCH   1  19
ATOM     17  O   UNL     1      49.691   9.141  14.824  0.00  0.00    +0.000 OA
ATOM     18  C   UNL     1      48.818   8.628  15.514  0.00  0.00    +0.000 C 
ATOM     19  N   UNL     1      47.610   8.229  14.991  0.00  0.00    +0.000 N 
ATOM     20  H   UNL     1      46.846   8.023  15.625  0.00  0.00    +0.000 HD
BRANCH  18  21
ATOM     21  C   UNL     1      49.027   8.356  16.942  0.00  0.00    +0.000 A 
ATOM     22  C   UNL     1      49.137   9.408  17.841  0.00  0.00    +0.000 A 
ATOM     23  S   UNL     1      49.425   8.906  19.448  0.00  0.00    +0.000 S 
ATOM     24  C   UNL     1      49.361   7.264  19.005  0.00  0.00    +0.000 A 
ATOM     25  N   UNL     1      49.514   6.282  19.931  0.00  0.00    +0.000 NA
ATOM     26  C   UNL     1      49.407   5.082  19.460  0.00  0.00    +0.000 A 
ATOM     27  N   UNL     1      49.161   4.779  18.147  0.00  0.00    +0.000 N 
ATOM     28  C   UNL     1      49.020   5.737  17.173  0.00  0.00    +0.000 A 
ATOM     29  O   UNL     1      48.828   5.432  16.001  0.00  0.00    +0.000 OA
ATOM     30  C   UNL     1      49.132   7.103  17.650  0.00  0.00    +0.000 A 
ATOM     31  H   UNL     1      49.092   3.818  17.842  0.00  0.00    +0.000 HD
ENDBRANCH  18  21
ENDBRANCH   1  19
TORSDOF 6
ENDMDL
MODEL 7
REMARK VINA RESULT:    -6.836      4.757      9.429
REMARK INTER + INTRA:         -10.354
REMARK INTER:                  -9.578
REMARK INTRA:                  -0.775
REMARK UNBOUND:                -1.119
REMARK  Name = 
REMARK  6 active torsions:
REMARK  status: ('A' for Active; 'I' for Inactive)
REMARK    1  A    between atoms: C_2  and  C_20
REMARK    2  A    between atoms: N_3  and  C_4
REMARK    3  A    between atoms: C_4  and  C_5
REMARK    4  A    between atoms: C_8  and  O_9
REMARK    5  A    between atoms: O_9  and  C_10
REMARK    6  A    between atoms: C_10  and  C_11
REMARK                            x       y       z     vdW  Elec       q    Type
REMARK                         _______ _______ _______ _____ _____    ______ ____
ROOT
ATOM      1  C   UNL     1      47.174   3.388  16.784  0.00  0.00    +0.000 C 
ENDROOT
BRANCH   1   2
ATOM      2  C   UNL     1      48.602   3.533  17.246  0.00  0.00    +0.000 A 
ATOM      3  C   UNL     1      49.041   4.718  17.850  0.00  0.00    +0.000 A 
ATOM      4  C   UNL     1      50.359   4.846  18.315  0.00  0.00    +0.000 A 
ATOM      5  C   UNL     1      51.259   3.790  18.169  0.00  0.00    +0.000 A 
ATOM      6  C   UNL     1      50.843   2.631  17.513  0.00  0.00    +0.000 A 
ATOM      7  C   UNL     1      49.527   2.497  17.058  0.00  0.00    +0.000 A 
BRANCH   5   8
ATOM      8  O   UNL     1      52.565   3.790  18.581  0.00  0.00    +0.000 OA
BRANCH   8   9
ATOM      9  C   UNL     1      53.452   2.947  17.855  0.00  0.00    +0.000 C 
BRANCH   9  10
ATOM     10  C   UNL     1      54.149   1.939  18.776  0.00  0.00    +0.000 C 
ATOM     11  O   UNL     1      54.142   2.102  20.000  0.00  0.00    +0.000 OA
ATOM     12  N   UNL     1      54.714   0.818  18.206  0.00  0.00    +0.000 N 
ATOM     13  C   UNL     1      54.783   0.483  16.798  0.00  0.00    +0.000 C 
ATOM     14  C   UNL     1      54.852  -1.036  16.813  0.00  0.00    +0.000 C 
ATOM     15  C   UNL     1      55.684  -1.339  18.055  0.00  0.00    +0.000 C 
ATOM     16  C   UNL     1      55.364  -0.198  19.016  0.00  0.00    +0.000 C 
ENDBRANCH   9  10
ENDBRANCH   8   9
ENDBRANCH   5   8
ENDBRANCH   1   2
BRANCH   1  19
ATOM     17  O   UNL     1      47.244   3.078  14.024  0.00  0.00    +0.000 OA
ATOM     18  C   UNL     1      46.817   4.133  14.479  0.00  0.00    +0.000 C 
ATOM     19  N   UNL     1      46.819   4.403  15.827  0.00  0.00    +0.000 N 
ATOM     20  H   UNL     1      46.261   5.175  16.174  0.00  0.00    +0.000 HD
BRANCH  18  21
ATOM     21  C   UNL     1      46.322   5.203  13.604  0.00  0.00    +0.000 A 
ATOM     22  C   UNL     1      47.101   6.328  13.371  0.00  0.00    +0.000 A 
ATOM     23  S   UNL     1      46.347   7.487  12.370  0.00  0.00    +0.000 S 
ATOM     24  C   UNL     1      44.973   6.502  12.171  0.00  0.00    +0.000 A 
ATOM     25  N   UNL     1      43.932   6.900  11.395  0.00  0.00    +0.000 NA
ATOM     26  C   UNL     1      42.971   6.037  11.306  0.00  0.00    +0.000 A 
ATOM     27  N   UNL     1      42.962   4.814  11.922  0.00  0.00    +0.000 N 
ATOM     28  C   UNL     1      43.983   4.379  12.731  0.00  0.00    +0.000 A 
ATOM     29  O   UNL     1      43.932   3.288  13.291  0.00  0.00    +0.000 OA
ATOM     30  C   UNL     1      45.087   5.310  12.866  0.00  0.00    +0.000 A 
ATOM     31  H   UNL     1      42.178   4.186  11.814  0.00  0.00    +0.000 HD
ENDBRANCH  18  21
ENDBRANCH   1  19
TORSDOF 6
ENDMDL
MODEL 8
REMARK VINA RESULT:    -6.813      2.875      8.337
REMARK INTER + INTRA:         -10.323
REMARK INTER:                  -9.103
REMARK INTRA:                  -1.220
REMARK UNBOUND:                -1.119
REMARK  Name = 
REMARK  6 active torsions:
REMARK  status: ('A' for Active; 'I' for Inactive)
REMARK    1  A    between atoms: C_2  and  C_20
REMARK    2  A    between atoms: N_3  and  C_4
REMARK    3  A    between atoms: C_4  and  C_5
REMARK    4  A    between atoms: C_8  and  O_9
REMARK    5  A    between atoms: O_9  and  C_10
REMARK    6  A    between atoms: C_10  and  C_11
REMARK                            x       y       z     vdW  Elec       q    Type
REMARK                         _______ _______ _______ _____ _____    ______ ____
ROOT
ATOM      1  C   UNL     1      47.717   7.804  11.851  0.00  0.00    +0.000 C 
ENDROOT
BRANCH   1   2
ATOM      2  C   UNL     1      48.310   8.000  13.224  0.00  0.00    +0.000 A 
ATOM      3  C   UNL     1      47.821   8.997  14.078  0.00  0.00    +0.000 A 
ATOM      4  C   UNL     1      48.344   9.159  15.370  0.00  0.00    +0.000 A 
ATOM      5  C   UNL     1      49.374   8.333  15.819  0.00  0.00    +0.000 A 
ATOM      6  C   UNL     1      49.905   7.380  14.949  0.00  0.00    +0.000 A 
ATOM      7  C   UNL     1      49.379   7.209  13.664  0.00  0.00    +0.000 A 
BRANCH   5   8
ATOM      8  O   UNL     1      49.965   8.390  17.052  0.00  0.00    +0.000 OA
BRANCH   8   9
ATOM      9  C   UNL     1      50.078   7.156  17.752  0.00  0.00    +0.000 C 
BRANCH   9  10
ATOM     10  C   UNL     1      48.701   6.595  18.126  0.00  0.00    +0.000 C 
ATOM     11  O   UNL     1      47.836   7.333  18.608  0.00  0.00    +0.000 OA
ATOM     12  N   UNL     1      48.439   5.271  17.845  0.00  0.00    +0.000 N 
ATOM     13  C   UNL     1      49.341   4.295  17.269  0.00  0.00    +0.000 C 
ATOM     14  C   UNL     1      48.396   3.319  16.587  0.00  0.00    +0.000 C 
ATOM     15  C   UNL     1      47.192   3.282  17.522  0.00  0.00    +0.000 C 
ATOM     16  C   UNL     1      47.146   4.676  18.141  0.00  0.00    +0.000 C 
ENDBRANCH   9  10
ENDBRANCH   8   9
ENDBRANCH   5   8
ENDBRANCH   1   2
BRANCH   1  19
ATOM     17  O   UNL     1      44.947   7.597  11.938  0.00  0.00    +0.000 OA
ATOM     18  C   UNL     1      45.599   6.578  11.744  0.00  0.00    +0.000 C 
ATOM     19  N   UNL     1      46.974   6.574  11.764  0.00  0.00    +0.000 N 
ATOM     20  H   UNL     1      47.468   5.775  11.381  0.00  0.00    +0.000 HD
BRANCH  18  21
ATOM     21  C   UNL     1      44.950   5.279  11.529  0.00  0.00    +0.000 A 
ATOM     22  C   UNL     1      44.174   4.715  12.533  0.00  0.00    +0.000 A 
ATOM     23  S   UNL     1      43.537   3.183  12.126  0.00  0.00    +0.000 S 
ATOM     24  C   UNL     1      44.235   3.245  10.574  0.00  0.00    +0.000 A 
ATOM     25  N   UNL     1      44.056   2.234   9.685  0.00  0.00    +0.000 NA
ATOM     26  C   UNL     1      44.614   2.430   8.533  0.00  0.00    +0.000 A 
ATOM     27  N   UNL     1      45.330   3.547   8.195  0.00  0.00    +0.000 N 
ATOM     28  C   UNL     1      45.553   4.584   9.067  0.00  0.00    +0.000 A 
ATOM     29  O   UNL     1      46.223   5.559   8.740  0.00  0.00    +0.000 OA
ATOM     30  C   UNL     1      44.949   4.414  10.374  0.00  0.00    +0.000 A 
ATOM     31  H   UNL     1      45.743   3.637   7.277  0.00  0.00    +0.000 HD
ENDBRANCH  18  21
ENDBRANCH   1  19
TORSDOF 6
ENDMDL
MODEL 9
REMARK VINA RESULT:    -6.679      2.143      2.915
REMARK INTER + INTRA:         -10.141
REMARK INTER:                  -9.242
REMARK INTRA:                  -0.899
REMARK UNBOUND:                -1.119
REMARK  Name = 
REMARK  6 active torsions:
REMARK  status: ('A' for Active; 'I' for Inactive)
REMARK    1  A    between atoms: C_2  and  C_20
REMARK    2  A    between atoms: N_3  and  C_4
REMARK    3  A    between atoms: C_4  and  C_5
REMARK    4  A    between atoms: C_8  and  O_9
REMARK    5  A    between atoms: O_9  and  C_10
REMARK    6  A    between atoms: C_10  and  C_11
REMARK                            x       y       z     vdW  Elec       q    Type
REMARK                         _______ _______ _______ _____ _____    ______ ____
ROOT
ATOM      1  C   UNL     1      48.619   7.491  13.361  0.00  0.00    +0.000 C 
ENDROOT
BRANCH   1   2
ATOM      2  C   UNL     1      47.307   6.921  12.883  0.00  0.00    +0.000 A 
ATOM      3  C   UNL     1      46.463   7.669  12.051  0.00  0.00    +0.000 A 
ATOM      4  C   UNL     1      45.260   7.130  11.573  0.00  0.00    +0.000 A 
ATOM      5  C   UNL     1      44.877   5.838  11.934  0.00  0.00    +0.000 A 
ATOM      6  C   UNL     1      45.685   5.113  12.812  0.00  0.00    +0.000 A 
ATOM      7  C   UNL     1      46.891   5.645  13.281  0.00  0.00    +0.000 A 
BRANCH   5   8
ATOM      8  O   UNL     1      43.733   5.201  11.534  0.00  0.00    +0.000 OA
BRANCH   8   9
ATOM      9  C   UNL     1      43.672   4.820  10.164  0.00  0.00    +0.000 C 
BRANCH   9  10
ATOM     10  C   UNL     1      44.179   3.389   9.956  0.00  0.00    +0.000 C 
ATOM     11  O   UNL     1      43.674   2.450  10.578  0.00  0.00    +0.000 OA
ATOM     12  N   UNL     1      45.158   3.177   9.008  0.00  0.00    +0.000 N 
ATOM     13  C   UNL     1      45.828   4.170   8.193  0.00  0.00    +0.000 C 
ATOM     14  C   UNL     1      46.231   3.380   6.958  0.00  0.00    +0.000 C 
ATOM     15  C   UNL     1      46.578   2.004   7.517  0.00  0.00    +0.000 C 
ATOM     16  C   UNL     1      45.666   1.844   8.731  0.00  0.00    +0.000 C 
ENDBRANCH   9  10
ENDBRANCH   8   9
ENDBRANCH   5   8
ENDBRANCH   1   2
BRANCH   1  19
ATOM     17  O   UNL     1      48.896   8.212  16.030  0.00  0.00    +0.000 OA
ATOM     18  C   UNL     1      49.241   7.085  15.694  0.00  0.00    +0.000 C 
ATOM     19  N   UNL     1      49.213   6.671  14.384  0.00  0.00    +0.000 N 
ATOM     20  H   UNL     1      49.289   5.680  14.181  0.00  0.00    +0.000 HD
BRANCH  18  21
ATOM     21  C   UNL     1      49.759   6.117  16.670  0.00  0.00    +0.000 A 
ATOM     22  C   UNL     1      48.882   5.325  17.396  0.00  0.00    +0.000 A 
ATOM     23  S   UNL     1      49.658   4.294  18.515  0.00  0.00    +0.000 S 
ATOM     24  C   UNL     1      51.197   4.835  18.029  0.00  0.00    +0.000 A 
ATOM     25  N   UNL     1      52.326   4.329  18.589  0.00  0.00    +0.000 NA
ATOM     26  C   UNL     1      53.425   4.806  18.099  0.00  0.00    +0.000 A 
ATOM     27  N   UNL     1      53.493   5.740  17.101  0.00  0.00    +0.000 N 
ATOM     28  C   UNL     1      52.378   6.294  16.520  0.00  0.00    +0.000 A 
ATOM     29  O   UNL     1      52.473   7.150  15.646  0.00  0.00    +0.000 OA
ATOM     30  C   UNL     1      51.118   5.794  17.034  0.00  0.00    +0.000 A 
ATOM     31  H   UNL     1      54.385   6.074  16.764  0.00  0.00    +0.000 HD
ENDBRANCH  18  21
ENDBRANCH   1  19
TORSDOF 6
ENDMDL
