MODEL 1
REMARK VINA RESULT:    -9.728      0.000      0.000
REMARK INTER + INTRA:         -14.060
REMARK INTER:                 -13.141
REMARK INTRA:                  -0.920
REMARK UNBOUND:                -0.920
REMARK  Name = 
REMARK  6 active torsions:
REMARK  status: ('A' for Active; 'I' for Inactive)
REMARK    1  A    between atoms: C_2  and  C_21
REMARK    2  A    between atoms: N_3  and  C_4
REMARK    3  A    between atoms: C_4  and  C_5
REMARK    4  A    between atoms: C_8  and  C_9
REMARK    5  A    between atoms: C_9  and  N_10
REMARK    6  A    between atoms: C_11  and  C_13
REMARK                            x       y       z     vdW  Elec       q    Type
REMARK                         _______ _______ _______ _____ _____    ______ ____
ROOT
ATOM      1  C   UNL     1      45.962   4.845  13.196  0.00  0.00    +0.000 C 
ATOM      2  C   UNL     1      45.883   3.649  12.225  0.00  0.00    +0.000 C 
ATOM      3  C   UNL     1      44.464   3.130  11.999  0.00  0.00    +0.000 C 
ATOM      4  C   UNL     1      43.448   4.230  11.651  0.00  0.00    +0.000 C 
ATOM      5  C   UNL     1      43.509   5.344  12.710  0.00  0.00    +0.000 C 
ATOM      6  C   UNL     1      44.913   5.921  12.893  0.00  0.00    +0.000 C 
ENDROOT
BRANCH   1   7
ATOM      7  C   UNL     1      45.827   4.402  14.659  0.00  0.00    +0.000 C 
BRANCH   7  10
ATOM      8  O   UNL     1      46.511   3.270  17.154  0.00  0.00    +0.000 OA
ATOM      9  C   UNL     1      47.318   3.991  16.578  0.00  0.00    +0.000 C 
ATOM     10  N   UNL     1      47.051   4.600  15.382  0.00  0.00    +0.000 N 
ATOM     11  H   UNL     1      47.781   5.109  14.897  0.00  0.00    +0.000 HD
BRANCH   9  12
ATOM     12  C   UNL     1      48.625   4.301  17.148  0.00  0.00    +0.000 A 
ATOM     13  C   UNL     1      48.877   5.543  17.707  0.00  0.00    +0.000 A 
ATOM     14  S   UNL     1      50.470   5.700  18.304  0.00  0.00    +0.000 S 
ATOM     15  C   UNL     1      50.857   4.102  17.860  0.00  0.00    +0.000 A 
ATOM     16  N   UNL     1      52.088   3.577  18.103  0.00  0.00    +0.000 NA
ATOM     17  C   UNL     1      52.222   2.343  17.747  0.00  0.00    +0.000 A 
ATOM     18  N   UNL     1      51.243   1.585  17.167  0.00  0.00    +0.000 N 
ATOM     19  C   UNL     1      50.017   2.087  16.829  0.00  0.00    +0.000 A 
ATOM     20  O   UNL     1      49.220   1.420  16.187  0.00  0.00    +0.000 OA
ATOM     21  C   UNL     1      49.796   3.466  17.249  0.00  0.00    +0.000 A 
ATOM     22  H   UNL     1      51.423   0.638  16.870  0.00  0.00    +0.000 HD
ENDBRANCH   9  12
ENDBRANCH   7  10
ENDBRANCH   1   7
BRANCH   4  23
ATOM     23  C   UNL     1      43.619   4.806  10.230  0.00  0.00    +0.000 C 
BRANCH  23  24
ATOM     24  N   UNL     1      44.220   3.871   9.296  0.00  0.00    +0.000 N 
ATOM     25  C   UNL     1      45.361   4.160   8.575  0.00  0.00    +0.000 C 
ATOM     26  O   UNL     1      45.985   5.209   8.701  0.00  0.00    +0.000 OA
ATOM     27  H   UNL     1      43.887   2.918   9.305  0.00  0.00    +0.000 HD
BRANCH  25  28
ATOM     28  C   UNL     1      45.776   3.041   7.619  0.00  0.00    +0.000 C 
ATOM     29  C   UNL     1      46.155   1.770   8.390  0.00  0.00    +0.000 C 
ATOM     30  C   UNL     1      46.798   0.732   7.484  0.00  0.00    +0.000 C 
ATOM     31  O   UNL     1      47.921   1.287   6.803  0.00  0.00    +0.000 OA
ATOM     32  C   UNL     1      47.547   2.357   5.942  0.00  0.00    +0.000 C 
ATOM     33  C   UNL     1      46.943   3.505   6.734  0.00  0.00    +0.000 C 
ENDBRANCH  25  28
ENDBRANCH  23  24
ENDBRANCH   4  23
TORSDOF 6
ENDMDL
MODEL 2
REMARK VINA RESULT:    -8.571      1.943      2.564
REMARK INTER + INTRA:         -12.497
REMARK INTER:                 -11.296
REMARK INTRA:                  -1.202
REMARK UNBOUND:                -0.920
REMARK  Name = 
REMARK  6 active torsions:
REMARK  status: ('A' for Active; 'I' for Inactive)
REMARK    1  A    between atoms: C_2  and  C_21
REMARK    2  A    between atoms: N_3  and  C_4
REMARK    3  A    between atoms: C_4  and  C_5
REMARK    4  A    between atoms: C_8  and  C_9
REMARK    5  A    between atoms: C_9  and  N_10
REMARK    6  A    between atoms: C_11  and  C_13
REMARK                            x       y       z     vdW  Elec       q    Type
REMARK                         _______ _______ _______ _____ _____    ______ ____
ROOT
ATOM      1  C   UNL     1      45.996   4.573  13.124  0.00  0.00    +0.000 C 
ATOM      2  C   UNL     1      45.783   3.396  12.150  0.00  0.00    +0.000 C 
ATOM      3  C   UNL     1      44.319   2.995  11.976  0.00  0.00    +0.000 C 
ATOM      4  C   UNL     1      43.383   4.176  11.675  0.00  0.00    +0.000 C 
ATOM      5  C   UNL     1      43.574   5.272  12.738  0.00  0.00    +0.000 C 
ATOM      6  C   UNL     1      45.026   5.732  12.870  0.00  0.00    +0.000 C 
ENDROOT
BRANCH   1   7
ATOM      7  C   UNL     1      45.881   4.128  14.589  0.00  0.00    +0.000 C 
BRANCH   7  10
ATOM      8  O   UNL     1      48.171   3.117  15.898  0.00  0.00    +0.000 OA
ATOM      9  C   UNL     1      47.887   4.305  16.010  0.00  0.00    +0.000 C 
ATOM     10  N   UNL     1      46.780   4.864  15.432  0.00  0.00    +0.000 N 
ATOM     11  H   UNL     1      46.638   5.867  15.471  0.00  0.00    +0.000 HD
BRANCH   9  12
ATOM     12  C   UNL     1      48.689   5.220  16.815  0.00  0.00    +0.000 A 
ATOM     13  C   UNL     1      48.825   5.029  18.181  0.00  0.00    +0.000 A 
ATOM     14  S   UNL     1      49.793   6.218  18.932  0.00  0.00    +0.000 S 
ATOM     15  C   UNL     1      50.084   7.003  17.450  0.00  0.00    +0.000 A 
ATOM     16  N   UNL     1      50.867   8.114  17.377  0.00  0.00    +0.000 NA
ATOM     17  C   UNL     1      51.029   8.576  16.182  0.00  0.00    +0.000 A 
ATOM     18  N   UNL     1      50.478   8.035  15.053  0.00  0.00    +0.000 N 
ATOM     19  C   UNL     1      49.621   6.970  15.080  0.00  0.00    +0.000 A 
ATOM     20  O   UNL     1      49.040   6.605  14.070  0.00  0.00    +0.000 OA
ATOM     21  C   UNL     1      49.437   6.381  16.402  0.00  0.00    +0.000 A 
ATOM     22  H   UNL     1      50.605   8.469  14.151  0.00  0.00    +0.000 HD
ENDBRANCH   9  12
ENDBRANCH   7  10
ENDBRANCH   1   7
BRANCH   4  23
ATOM     23  C   UNL     1      43.545   4.750  10.252  0.00  0.00    +0.000 C 
BRANCH  23  24
ATOM     24  N   UNL     1      44.166   3.824   9.323  0.00  0.00    +0.000 N 
ATOM     25  C   UNL     1      45.303   4.132   8.603  0.00  0.00    +0.000 C 
ATOM     26  O   UNL     1      45.905   5.193   8.727  0.00  0.00    +0.000 OA
ATOM     27  H   UNL     1      43.852   2.865   9.334  0.00  0.00    +0.000 HD
BRANCH  25  28
ATOM     28  C   UNL     1      45.741   3.018   7.651  0.00  0.00    +0.000 C 
ATOM     29  C   UNL     1      46.125   1.752   8.427  0.00  0.00    +0.000 C 
ATOM     30  C   UNL     1      46.791   0.721   7.528  0.00  0.00    +0.000 C 
ATOM     31  O   UNL     1      47.915   1.289   6.860  0.00  0.00    +0.000 OA
ATOM     32  C   UNL     1      47.539   2.354   5.995  0.00  0.00    +0.000 C 
ATOM     33  C   UNL     1      46.912   3.495   6.781  0.00  0.00    +0.000 C 
ENDBRANCH  25  28
ENDBRANCH  23  24
ENDBRANCH   4  23
TORSDOF 6
ENDMDL
MODEL 3
REMARK VINA RESULT:    -8.136      2.093      2.583
REMARK INTER + INTRA:         -11.909
REMARK INTER:                 -11.076
REMARK INTRA:                  -0.834
REMARK UNBOUND:                -0.920
REMARK  Name = 
REMARK  6 active torsions:
REMARK  status: ('A' for Active; 'I' for Inactive)
REMARK    1  A    between atoms: C_2  and  C_21
REMARK    2  A    between atoms: N_3  and  C_4
REMARK    3  A    between atoms: C_4  and  C_5
REMARK    4  A    between atoms: C_8  and  C_9
REMARK    5  A    between atoms: C_9  and  N_10
REMARK    6  A    between atoms: C_11  and  C_13
REMARK                            x       y       z     vdW  Elec       q    Type
REMARK                         _______ _______ _______ _____ _____    ______ ____
ROOT
ATOM      1  C   UNL     1      46.388   5.438  12.507  0.00  0.00    +0.000 C 
ATOM      2  C   UNL     1      45.115   5.072  13.297  0.00  0.00    +0.000 C 
ATOM      3  C   UNL     1      43.916   5.968  12.986  0.00  0.00    +0.000 C 
ATOM      4  C   UNL     1      43.641   6.137  11.483  0.00  0.00    +0.000 C 
ATOM      5  C   UNL     1      44.924   6.597  10.770  0.00  0.00    +0.000 C 
ATOM      6  C   UNL     1      46.113   5.668  11.017  0.00  0.00    +0.000 C 
ENDROOT
BRANCH   1   7
ATOM      7  C   UNL     1      47.085   6.675  13.091  0.00  0.00    +0.000 C 
BRANCH   7  10
ATOM      8  O   UNL     1      49.693   6.970  14.134  0.00  0.00    +0.000 OA
ATOM      9  C   UNL     1      48.777   6.647  14.882  0.00  0.00    +0.000 C 
ATOM     10  N   UNL     1      47.493   6.455  14.449  0.00  0.00    +0.000 N 
ATOM     11  H   UNL     1      46.751   6.282  15.118  0.00  0.00    +0.000 HD
BRANCH   9  12
ATOM     12  C   UNL     1      48.991   6.391  16.303  0.00  0.00    +0.000 A 
ATOM     13  C   UNL     1      49.558   7.358  17.119  0.00  0.00    +0.000 A 
ATOM     14  S   UNL     1      49.730   6.850  18.741  0.00  0.00    +0.000 S 
ATOM     15  C   UNL     1      49.023   5.338  18.404  0.00  0.00    +0.000 A 
ATOM     16  N   UNL     1      48.852   4.403  19.379  0.00  0.00    +0.000 NA
ATOM     17  C   UNL     1      48.267   3.321  18.984  0.00  0.00    +0.000 A 
ATOM     18  N   UNL     1      47.842   3.083  17.706  0.00  0.00    +0.000 N 
ATOM     19  C   UNL     1      48.062   3.954  16.675  0.00  0.00    +0.000 A 
ATOM     20  O   UNL     1      47.794   3.646  15.524  0.00  0.00    +0.000 OA
ATOM     21  C   UNL     1      48.681   5.214  17.074  0.00  0.00    +0.000 A 
ATOM     22  H   UNL     1      47.432   2.198  17.449  0.00  0.00    +0.000 HD
ENDBRANCH   9  12
ENDBRANCH   7  10
ENDBRANCH   1   7
BRANCH   4  23
ATOM     23  C   UNL     1      43.056   4.876  10.813  0.00  0.00    +0.000 C 
BRANCH  23  24
ATOM     24  N   UNL     1      43.827   4.417   9.672  0.00  0.00    +0.000 N 
ATOM     25  C   UNL     1      44.220   3.104   9.510  0.00  0.00    +0.000 C 
ATOM     26  O   UNL     1      43.907   2.211  10.291  0.00  0.00    +0.000 OA
ATOM     27  H   UNL     1      43.932   5.049   8.891  0.00  0.00    +0.000 HD
BRANCH  25  28
ATOM     28  C   UNL     1      45.066   2.872   8.257  0.00  0.00    +0.000 C 
ATOM     29  C   UNL     1      45.941   1.622   8.408  0.00  0.00    +0.000 C 
ATOM     30  C   UNL     1      46.961   1.510   7.285  0.00  0.00    +0.000 C 
ATOM     31  O   UNL     1      47.749   2.695   7.203  0.00  0.00    +0.000 OA
ATOM     32  C   UNL     1      46.963   3.837   6.883  0.00  0.00    +0.000 C 
ATOM     33  C   UNL     1      45.932   4.107   7.968  0.00  0.00    +0.000 C 
ENDBRANCH  25  28
ENDBRANCH  23  24
ENDBRANCH   4  23
TORSDOF 6
ENDMDL
MODEL 4
REMARK VINA RESULT:    -7.630      2.482      3.355
REMARK INTER + INTRA:         -11.226
REMARK INTER:                 -10.842
REMARK INTRA:                  -0.384
REMARK UNBOUND:                -0.920
REMARK  Name = 
REMARK  6 active torsions:
REMARK  status: ('A' for Active; 'I' for Inactive)
REMARK    1  A    between atoms: C_2  and  C_21
REMARK    2  A    between atoms: N_3  and  C_4
REMARK    3  A    between atoms: C_4  and  C_5
REMARK    4  A    between atoms: C_8  and  C_9
REMARK    5  A    between atoms: C_9  and  N_10
REMARK    6  A    between atoms: C_11  and  C_13
REMARK                            x       y       z     vdW  Elec       q    Type
REMARK                         _______ _______ _______ _____ _____    ______ ____
ROOT
ATOM      1  C   UNL     1      46.510   5.352  12.543  0.00  0.00    +0.000 C 
ATOM      2  C   UNL     1      45.256   4.642  13.093  0.00  0.00    +0.000 C 
ATOM      3  C   UNL     1      43.988   5.493  13.033  0.00  0.00    +0.000 C 
ATOM      4  C   UNL     1      43.737   6.138  11.660  0.00  0.00    +0.000 C 
ATOM      5  C   UNL     1      44.990   6.910  11.215  0.00  0.00    +0.000 C 
ATOM      6  C   UNL     1      46.253   6.049  11.202  0.00  0.00    +0.000 C 
ENDROOT
BRANCH   1   7
ATOM      7  C   UNL     1      47.073   6.370  13.544  0.00  0.00    +0.000 C 
BRANCH   7  10
ATOM      8  O   UNL     1      49.388   6.574  15.149  0.00  0.00    +0.000 OA
ATOM      9  C   UNL     1      48.420   5.948  15.565  0.00  0.00    +0.000 C 
ATOM     10  N   UNL     1      47.274   5.778  14.837  0.00  0.00    +0.000 N 
ATOM     11  H   UNL     1      46.465   5.335  15.257  0.00  0.00    +0.000 HD
BRANCH   9  12
ATOM     12  C   UNL     1      48.427   5.284  16.865  0.00  0.00    +0.000 A 
ATOM     13  C   UNL     1      48.507   3.904  16.955  0.00  0.00    +0.000 A 
ATOM     14  S   UNL     1      48.487   3.335  18.566  0.00  0.00    +0.000 S 
ATOM     15  C   UNL     1      48.404   4.918  19.187  0.00  0.00    +0.000 A 
ATOM     16  N   UNL     1      48.371   5.153  20.527  0.00  0.00    +0.000 NA
ATOM     17  C   UNL     1      48.348   6.403  20.849  0.00  0.00    +0.000 A 
ATOM     18  N   UNL     1      48.351   7.441  19.959  0.00  0.00    +0.000 N 
ATOM     19  C   UNL     1      48.303   7.259  18.605  0.00  0.00    +0.000 A 
ATOM     20  O   UNL     1      48.165   8.207  17.847  0.00  0.00    +0.000 OA
ATOM     21  C   UNL     1      48.371   5.864  18.183  0.00  0.00    +0.000 A 
ATOM     22  H   UNL     1      48.286   8.398  20.272  0.00  0.00    +0.000 HD
ENDBRANCH   9  12
ENDBRANCH   7  10
ENDBRANCH   1   7
BRANCH   4  23
ATOM     23  C   UNL     1      43.289   5.135  10.576  0.00  0.00    +0.000 C 
BRANCH  23  24
ATOM     24  N   UNL     1      44.393   4.569   9.822  0.00  0.00    +0.000 N 
ATOM     25  C   UNL     1      44.602   3.209   9.704  0.00  0.00    +0.000 C 
ATOM     26  O   UNL     1      43.846   2.372  10.186  0.00  0.00    +0.000 OA
ATOM     27  H   UNL     1      44.922   5.188   9.225  0.00  0.00    +0.000 HD
BRANCH  25  28
ATOM     28  C   UNL     1      45.856   2.854   8.904  0.00  0.00    +0.000 C 
ATOM     29  C   UNL     1      46.027   3.793   7.703  0.00  0.00    +0.000 C 
ATOM     30  C   UNL     1      47.121   3.311   6.763  0.00  0.00    +0.000 C 
ATOM     31  O   UNL     1      46.872   1.970   6.349  0.00  0.00    +0.000 OA
ATOM     32  C   UNL     1      46.892   1.061   7.445  0.00  0.00    +0.000 C 
ATOM     33  C   UNL     1      45.793   1.391   8.442  0.00  0.00    +0.000 C 
ENDBRANCH  25  28
ENDBRANCH  23  24
ENDBRANCH   4  23
TORSDOF 6
ENDMDL
MODEL 5
REMARK VINA RESULT:    -7.575      4.640      5.187
REMARK INTER + INTRA:         -11.151
REMARK INTER:                 -10.151
REMARK INTRA:                  -1.000
REMARK UNBOUND:                -0.920
REMARK  Name = 
REMARK  6 active torsions:
REMARK  status: ('A' for Active; 'I' for Inactive)
REMARK    1  A    between atoms: C_2  and  C_21
REMARK    2  A    between atoms: N_3  and  C_4
REMARK    3  A    between atoms: C_4  and  C_5
REMARK    4  A    between atoms: C_8  and  C_9
REMARK    5  A    between atoms: C_9  and  N_10
REMARK    6  A    between atoms: C_11  and  C_13
REMARK                            x       y       z     vdW  Elec       q    Type
REMARK                         _______ _______ _______ _____ _____    ______ ____
ROOT
ATOM      1  C   UNL     1      44.509   6.725  11.773  0.00  0.00    +0.000 C 
ATOM      2  C   UNL     1      45.463   5.893  10.891  0.00  0.00    +0.000 C 
ATOM      3  C   UNL     1      45.913   4.582  11.534  0.00  0.00    +0.000 C 
ATOM      4  C   UNL     1      44.759   3.739  12.100  0.00  0.00    +0.000 C 
ATOM      5  C   UNL     1      43.905   4.600  13.046  0.00  0.00    +0.000 C 
ATOM      6  C   UNL     1      43.389   5.880  12.390  0.00  0.00    +0.000 C 
ENDROOT
BRANCH   1   7
ATOM      7  C   UNL     1      45.262   7.461  12.889  0.00  0.00    +0.000 C 
BRANCH   7  10
ATOM      8  O   UNL     1      47.133   8.958  14.386  0.00  0.00    +0.000 OA
ATOM      9  C   UNL     1      47.277   8.853  13.173  0.00  0.00    +0.000 C 
ATOM     10  N   UNL     1      46.399   8.171  12.374  0.00  0.00    +0.000 N 
ATOM     11  H   UNL     1      46.609   8.030  11.393  0.00  0.00    +0.000 HD
BRANCH   9  12
ATOM     12  C   UNL     1      48.382   9.493  12.466  0.00  0.00    +0.000 A 
ATOM     13  C   UNL     1      48.384  10.860  12.245  0.00  0.00    +0.000 A 
ATOM     14  S   UNL     1      49.761  11.400  11.390  0.00  0.00    +0.000 S 
ATOM     15  C   UNL     1      50.407   9.827  11.320  0.00  0.00    +0.000 A 
ATOM     16  N   UNL     1      51.604   9.578  10.723  0.00  0.00    +0.000 NA
ATOM     17  C   UNL     1      51.985   8.345  10.782  0.00  0.00    +0.000 A 
ATOM     18  N   UNL     1      51.279   7.336  11.377  0.00  0.00    +0.000 N 
ATOM     19  C   UNL     1      50.038   7.517  11.921  0.00  0.00    +0.000 A 
ATOM     20  O   UNL     1      49.380   6.567  12.317  0.00  0.00    +0.000 OA
ATOM     21  C   UNL     1      49.578   8.902  11.920  0.00  0.00    +0.000 A 
ATOM     22  H   UNL     1      51.609   6.383  11.351  0.00  0.00    +0.000 HD
ENDBRANCH   9  12
ENDBRANCH   7  10
ENDBRANCH   1   7
BRANCH   4  23
ATOM     23  C   UNL     1      43.886   3.074  11.015  0.00  0.00    +0.000 C 
BRANCH  23  24
ATOM     24  N   UNL     1      44.650   2.560   9.893  0.00  0.00    +0.000 N 
ATOM     25  C   UNL     1      44.717   3.202   8.673  0.00  0.00    +0.000 C 
ATOM     26  O   UNL     1      44.177   4.281   8.454  0.00  0.00    +0.000 OA
ATOM     27  H   UNL     1      45.288   1.797  10.069  0.00  0.00    +0.000 HD
BRANCH  25  28
ATOM     28  C   UNL     1      45.541   2.443   7.631  0.00  0.00    +0.000 C 
ATOM     29  C   UNL     1      46.127   1.155   8.224  0.00  0.00    +0.000 C 
ATOM     30  C   UNL     1      47.140   0.515   7.289  0.00  0.00    +0.000 C 
ATOM     31  O   UNL     1      48.163   1.446   6.943  0.00  0.00    +0.000 OA
ATOM     32  C   UNL     1      47.647   2.563   6.229  0.00  0.00    +0.000 C 
ATOM     33  C   UNL     1      46.658   3.342   7.082  0.00  0.00    +0.000 C 
ENDBRANCH  25  28
ENDBRANCH  23  24
ENDBRANCH   4  23
TORSDOF 6
ENDMDL
MODEL 6
REMARK VINA RESULT:    -7.405      3.769      5.521
REMARK INTER + INTRA:         -10.922
REMARK INTER:                 -10.321
REMARK INTRA:                  -0.601
REMARK UNBOUND:                -0.920
REMARK  Name = 
REMARK  6 active torsions:
REMARK  status: ('A' for Active; 'I' for Inactive)
REMARK    1  A    between atoms: C_2  and  C_21
REMARK    2  A    between atoms: N_3  and  C_4
REMARK    3  A    between atoms: C_4  and  C_5
REMARK    4  A    between atoms: C_8  and  C_9
REMARK    5  A    between atoms: C_9  and  N_10
REMARK    6  A    between atoms: C_11  and  C_13
REMARK                            x       y       z     vdW  Elec       q    Type
REMARK                         _______ _______ _______ _____ _____    ______ ____
ROOT
ATOM      1  C   UNL     1      45.849   4.209  13.206  0.00  0.00    +0.000 C 
ATOM      2  C   UNL     1      44.380   4.552  13.529  0.00  0.00    +0.000 C 
ATOM      3  C   UNL     1      43.911   5.880  12.934  0.00  0.00    +0.000 C 
ATOM      4  C   UNL     1      44.232   6.039  11.440  0.00  0.00    +0.000 C 
ATOM      5  C   UNL     1      45.729   5.780  11.201  0.00  0.00    +0.000 C 
ATOM      6  C   UNL     1      46.193   4.422  11.728  0.00  0.00    +0.000 C 
ENDROOT
BRANCH   1   7
ATOM      7  C   UNL     1      46.826   5.012  14.076  0.00  0.00    +0.000 C 
BRANCH   7  10
ATOM      8  O   UNL     1      49.143   6.479  14.751  0.00  0.00    +0.000 OA
ATOM      9  C   UNL     1      48.519   6.770  13.736  0.00  0.00    +0.000 C 
ATOM     10  N   UNL     1      47.372   6.128  13.357  0.00  0.00    +0.000 N 
ATOM     11  H   UNL     1      46.944   6.337  12.462  0.00  0.00    +0.000 HD
BRANCH   9  12
ATOM     12  C   UNL     1      48.927   7.868  12.865  0.00  0.00    +0.000 A 
ATOM     13  C   UNL     1      50.223   7.945  12.383  0.00  0.00    +0.000 A 
ATOM     14  S   UNL     1      50.491   9.311  11.393  0.00  0.00    +0.000 S 
ATOM     15  C   UNL     1      48.874   9.819  11.556  0.00  0.00    +0.000 A 
ATOM     16  N   UNL     1      48.418  10.942  10.936  0.00  0.00    +0.000 NA
ATOM     17  C   UNL     1      47.162  11.180  11.119  0.00  0.00    +0.000 A 
ATOM     18  N   UNL     1      46.319  10.404  11.866  0.00  0.00    +0.000 N 
ATOM     19  C   UNL     1      46.744   9.313  12.573  0.00  0.00    +0.000 A 
ATOM     20  O   UNL     1      45.993   8.730  13.339  0.00  0.00    +0.000 OA
ATOM     21  C   UNL     1      48.147   8.973  12.367  0.00  0.00    +0.000 A 
ATOM     22  H   UNL     1      45.356  10.667  12.008  0.00  0.00    +0.000 HD
ENDBRANCH   9  12
ENDBRANCH   7  10
ENDBRANCH   1   7
BRANCH   4  23
ATOM     23  C   UNL     1      43.363   5.156  10.521  0.00  0.00    +0.000 C 
BRANCH  23  24
ATOM     24  N   UNL     1      44.105   4.551   9.429  0.00  0.00    +0.000 N 
ATOM     25  C   UNL     1      44.313   3.191   9.326  0.00  0.00    +0.000 C 
ATOM     26  O   UNL     1      43.847   2.380  10.120  0.00  0.00    +0.000 OA
ATOM     27  H   UNL     1      44.328   5.132   8.634  0.00  0.00    +0.000 HD
BRANCH  25  28
ATOM     28  C   UNL     1      45.166   2.796   8.119  0.00  0.00    +0.000 C 
ATOM     29  C   UNL     1      45.977   1.527   8.410  0.00  0.00    +0.000 C 
ATOM     30  C   UNL     1      47.007   1.257   7.324  0.00  0.00    +0.000 C 
ATOM     31  O   UNL     1      47.853   2.390   7.141  0.00  0.00    +0.000 OA
ATOM     32  C   UNL     1      47.128   3.530   6.694  0.00  0.00    +0.000 C 
ATOM     33  C   UNL     1      46.095   3.954   7.727  0.00  0.00    +0.000 C 
ENDBRANCH  25  28
ENDBRANCH  23  24
ENDBRANCH   4  23
TORSDOF 6
ENDMDL
MODEL 7
REMARK VINA RESULT:    -7.301      3.368      4.129
REMARK INTER + INTRA:         -10.782
REMARK INTER:                 -10.033
REMARK INTRA:                  -0.749
REMARK UNBOUND:                -0.920
REMARK  Name = 
REMARK  6 active torsions:
REMARK  status: ('A' for Active; 'I' for Inactive)
REMARK    1  A    between atoms: C_2  and  C_21
REMARK    2  A    between atoms: N_3  and  C_4
REMARK    3  A    between atoms: C_4  and  C_5
REMARK    4  A    between atoms: C_8  and  C_9
REMARK    5  A    between atoms: C_9  and  N_10
REMARK    6  A    between atoms: C_11  and  C_13
REMARK                            x       y       z     vdW  Elec       q    Type
REMARK                         _______ _______ _______ _____ _____    ______ ____
ROOT
ATOM      1  C   UNL     1      45.398   6.326  11.639  0.00  0.00    +0.000 C 
ATOM      2  C   UNL     1      46.038   4.938  11.849  0.00  0.00    +0.000 C 
ATOM      3  C   UNL     1      45.291   4.058  12.851  0.00  0.00    +0.000 C 
ATOM      4  C   UNL     1      43.779   3.969  12.592  0.00  0.00    +0.000 C 
ATOM      5  C   UNL     1      43.186   5.385  12.491  0.00  0.00    +0.000 C 
ATOM      6  C   UNL     1      43.880   6.251  11.440  0.00  0.00    +0.000 C 
ENDROOT
BRANCH   1   7
ATOM      7  C   UNL     1      45.711   7.279  12.801  0.00  0.00    +0.000 C 
BRANCH   7  10
ATOM      8  O   UNL     1      47.044   9.766  12.919  0.00  0.00    +0.000 OA
ATOM      9  C   UNL     1      47.691   8.730  13.018  0.00  0.00    +0.000 C 
ATOM     10  N   UNL     1      47.125   7.487  12.942  0.00  0.00    +0.000 N 
ATOM     11  H   UNL     1      47.683   6.661  13.126  0.00  0.00    +0.000 HD
BRANCH   9  12
ATOM     12  C   UNL     1      49.142   8.735  13.182  0.00  0.00    +0.000 A 
ATOM     13  C   UNL     1      49.950   9.449  12.311  0.00  0.00    +0.000 A 
ATOM     14  S   UNL     1      51.613   9.310  12.674  0.00  0.00    +0.000 S 
ATOM     15  C   UNL     1      51.298   8.320  14.023  0.00  0.00    +0.000 A 
ATOM     16  N   UNL     1      52.304   7.847  14.806  0.00  0.00    +0.000 NA
ATOM     17  C   UNL     1      51.911   7.143  15.815  0.00  0.00    +0.000 A 
ATOM     18  N   UNL     1      50.606   6.863  16.111  0.00  0.00    +0.000 N 
ATOM     19  C   UNL     1      49.563   7.245  15.313  0.00  0.00    +0.000 A 
ATOM     20  O   UNL     1      48.427   6.857  15.535  0.00  0.00    +0.000 OA
ATOM     21  C   UNL     1      49.948   8.082  14.182  0.00  0.00    +0.000 A 
ATOM     22  H   UNL     1      50.363   6.268  16.889  0.00  0.00    +0.000 HD
ENDBRANCH   9  12
ENDBRANCH   7  10
ENDBRANCH   1   7
BRANCH   4  23
ATOM     23  C   UNL     1      43.410   3.124  11.355  0.00  0.00    +0.000 C 
BRANCH  23  24
ATOM     24  N   UNL     1      44.562   2.696  10.582  0.00  0.00    +0.000 N 
ATOM     25  C   UNL     1      44.831   3.168   9.313  0.00  0.00    +0.000 C 
ATOM     26  O   UNL     1      44.147   4.020   8.757  0.00  0.00    +0.000 OA
ATOM     27  H   UNL     1      45.277   2.166  11.059  0.00  0.00    +0.000 HD
BRANCH  25  28
ATOM     28  C   UNL     1      46.070   2.534   8.679  0.00  0.00    +0.000 C 
ATOM     29  C   UNL     1      46.510   3.312   7.433  0.00  0.00    +0.000 C 
ATOM     30  C   UNL     1      47.583   2.567   6.654  0.00  0.00    +0.000 C 
ATOM     31  O   UNL     1      47.142   1.252   6.323  0.00  0.00    +0.000 OA
ATOM     32  C   UNL     1      46.904   0.463   7.483  0.00  0.00    +0.000 C 
ATOM     33  C   UNL     1      45.794   1.064   8.330  0.00  0.00    +0.000 C 
ENDBRANCH  25  28
ENDBRANCH  23  24
ENDBRANCH   4  23
TORSDOF 6
ENDMDL
MODEL 8
REMARK VINA RESULT:    -7.164      3.464      8.811
REMARK INTER + INTRA:         -10.597
REMARK INTER:                  -9.447
REMARK INTRA:                  -1.150
REMARK UNBOUND:                -0.920
REMARK  Name = 
REMARK  6 active torsions:
REMARK  status: ('A' for Active; 'I' for Inactive)
REMARK    1  A    between atoms: C_2  and  C_21
REMARK    2  A    between atoms: N_3  and  C_4
REMARK    3  A    between atoms: C_4  and  C_5
REMARK    4  A    between atoms: C_8  and  C_9
REMARK    5  A    between atoms: C_9  and  N_10
REMARK    6  A    between atoms: C_11  and  C_13
REMARK                            x       y       z     vdW  Elec       q    Type
REMARK                         _______ _______ _______ _____ _____    ______ ____
ROOT
ATOM      1  C   UNL     1      46.886   8.323  13.107  0.00  0.00    +0.000 C 
ATOM      2  C   UNL     1      47.590   7.018  13.531  0.00  0.00    +0.000 C 
ATOM      3  C   UNL     1      48.876   6.731  12.758  0.00  0.00    +0.000 C 
ATOM      4  C   UNL     1      49.845   7.922  12.700  0.00  0.00    +0.000 C 
ATOM      5  C   UNL     1      49.105   9.166  12.177  0.00  0.00    +0.000 C 
ATOM      6  C   UNL     1      47.855   9.504  12.988  0.00  0.00    +0.000 C 
ENDROOT
BRANCH   1   7
ATOM      7  C   UNL     1      46.125   8.156  11.785  0.00  0.00    +0.000 C 
BRANCH   7  10
ATOM      8  O   UNL     1      43.502   7.214  11.323  0.00  0.00    +0.000 OA
ATOM      9  C   UNL     1      44.436   6.420  11.331  0.00  0.00    +0.000 C 
ATOM     10  N   UNL     1      45.729   6.792  11.577  0.00  0.00    +0.000 N 
ATOM     11  H   UNL     1      46.480   6.118  11.478  0.00  0.00    +0.000 HD
BRANCH   9  12
ATOM     12  C   UNL     1      44.236   4.989  11.124  0.00  0.00    +0.000 A 
ATOM     13  C   UNL     1      43.459   4.248  12.000  0.00  0.00    +0.000 A 
ATOM     14  S   UNL     1      43.367   2.595  11.582  0.00  0.00    +0.000 S 
ATOM     15  C   UNL     1      44.335   2.829  10.201  0.00  0.00    +0.000 A 
ATOM     16  N   UNL     1      44.642   1.799   9.367  0.00  0.00    +0.000 NA
ATOM     17  C   UNL     1      45.351   2.134   8.341  0.00  0.00    +0.000 A 
ATOM     18  N   UNL     1      45.786   3.403   8.072  0.00  0.00    +0.000 N 
ATOM     19  C   UNL     1      45.574   4.456   8.917  0.00  0.00    +0.000 A 
ATOM     20  O   UNL     1      46.096   5.541   8.713  0.00  0.00    +0.000 OA
ATOM     21  C   UNL     1      44.739   4.141  10.072  0.00  0.00    +0.000 A 
ATOM     22  H   UNL     1      46.376   3.595   7.277  0.00  0.00    +0.000 HD
ENDBRANCH   9  12
ENDBRANCH   7  10
ENDBRANCH   1   7
BRANCH   4  23
ATOM     23  C   UNL     1      50.547   8.218  14.042  0.00  0.00    +0.000 C 
BRANCH  23  24
ATOM     24  N   UNL     1      50.422   7.143  15.009  0.00  0.00    +0.000 N 
ATOM     25  C   UNL     1      49.759   7.288  16.211  0.00  0.00    +0.000 C 
ATOM     26  O   UNL     1      49.181   8.320  16.536  0.00  0.00    +0.000 OA
ATOM     27  H   UNL     1      50.683   6.213  14.714  0.00  0.00    +0.000 HD
BRANCH  25  28
ATOM     28  C   UNL     1      49.803   6.033  17.085  0.00  0.00    +0.000 C 
ATOM     29  C   UNL     1      51.182   5.364  17.016  0.00  0.00    +0.000 C 
ATOM     30  C   UNL     1      51.176   3.994  17.677  0.00  0.00    +0.000 C 
ATOM     31  O   UNL     1      50.162   3.168  17.110  0.00  0.00    +0.000 OA
ATOM     32  C   UNL     1      48.859   3.696  17.329  0.00  0.00    +0.000 C 
ATOM     33  C   UNL     1      48.703   5.051  16.657  0.00  0.00    +0.000 C 
ENDBRANCH  25  28
ENDBRANCH  23  24
ENDBRANCH   4  23
TORSDOF 6
ENDMDL
MODEL 9
REMARK VINA RESULT:    -7.160      3.631      8.699
REMARK INTER + INTRA:         -10.591
REMARK INTER:                  -9.494
REMARK INTRA:                  -1.097
REMARK UNBOUND:                -0.920
REMARK  Name = 
REMARK  6 active torsions:
REMARK  status: ('A' for Active; 'I' for Inactive)
REMARK    1  A    between atoms: C_2  and  C_21
REMARK    2  A    between atoms: N_3  and  C_4
REMARK    3  A    between atoms: C_4  and  C_5
REMARK    4  A    between atoms: C_8  and  C_9
REMARK    5  A    between atoms: C_9  and  N_10
REMARK    6  A    between atoms: C_11  and  C_13
REMARK                            x       y       z     vdW  Elec       q    Type
REMARK                         _______ _______ _______ _____ _____    ______ ____
ROOT
ATOM      1  C   UNL     1      49.384   7.676  12.898  0.00  0.00    +0.000 C 
ATOM      2  C   UNL     1      50.060   8.846  13.641  0.00  0.00    +0.000 C 
ATOM      3  C   UNL     1      49.280   9.338  14.860  0.00  0.00    +0.000 C 
ATOM      4  C   UNL     1      48.847   8.214  15.815  0.00  0.00    +0.000 C 
ATOM      5  C   UNL     1      48.094   7.128  15.028  0.00  0.00    +0.000 C 
ATOM      6  C   UNL     1      48.895   6.578  13.849  0.00  0.00    +0.000 C 
ENDROOT
BRANCH   1   7
ATOM      7  C   UNL     1      48.212   8.154  12.030  0.00  0.00    +0.000 C 
BRANCH   7  10
ATOM      8  O   UNL     1      45.406   7.938  11.784  0.00  0.00    +0.000 OA
ATOM      9  C   UNL     1      46.120   7.031  11.368  0.00  0.00    +0.000 C 
ATOM     10  N   UNL     1      47.484   7.047  11.477  0.00  0.00    +0.000 N 
ATOM     11  H   UNL     1      48.038   6.323  11.034  0.00  0.00    +0.000 HD
BRANCH   9  12
ATOM     12  C   UNL     1      45.566   5.827  10.759  0.00  0.00    +0.000 A 
ATOM     13  C   UNL     1      45.787   5.543   9.421  0.00  0.00    +0.000 A 
ATOM     14  S   UNL     1      45.040   4.095   8.909  0.00  0.00    +0.000 S 
ATOM     15  C   UNL     1      44.428   3.790  10.468  0.00  0.00    +0.000 A 
ATOM     16  N   UNL     1      43.690   2.678  10.735  0.00  0.00    +0.000 NA
ATOM     17  C   UNL     1      43.327   2.562  11.969  0.00  0.00    +0.000 A 
ATOM     18  N   UNL     1      43.629   3.453  12.961  0.00  0.00    +0.000 N 
ATOM     19  C   UNL     1      44.298   4.624  12.730  0.00  0.00    +0.000 A 
ATOM     20  O   UNL     1      44.425   5.459  13.612  0.00  0.00    +0.000 OA
ATOM     21  C   UNL     1      44.769   4.786  11.359  0.00  0.00    +0.000 A 
ATOM     22  H   UNL     1      43.278   3.330  13.899  0.00  0.00    +0.000 HD
ENDBRANCH   9  12
ENDBRANCH   7  10
ENDBRANCH   1   7
BRANCH   4  23
ATOM     23  C   UNL     1      50.011   7.606  16.625  0.00  0.00    +0.000 C 
BRANCH  23  24
ATOM     24  N   UNL     1      49.920   6.164  16.773  0.00  0.00    +0.000 N 
ATOM     25  C   UNL     1      49.491   5.554  17.934  0.00  0.00    +0.000 C 
ATOM     26  O   UNL     1      49.105   6.181  18.916  0.00  0.00    +0.000 OA
ATOM     27  H   UNL     1      50.014   5.600  15.941  0.00  0.00    +0.000 HD
BRANCH  25  28
ATOM     28  C   UNL     1      49.529   4.027  17.869  0.00  0.00    +0.000 C 
ATOM     29  C   UNL     1      50.936   3.526  17.518  0.00  0.00    +0.000 C 
ATOM     30  C   UNL     1      50.943   2.037  17.209  0.00  0.00    +0.000 C 
ATOM     31  O   UNL     1      50.006   1.733  16.179  0.00  0.00    +0.000 OA
ATOM     32  C   UNL     1      48.670   2.029  16.570  0.00  0.00    +0.000 C 
ATOM     33  C   UNL     1      48.502   3.515  16.848  0.00  0.00    +0.000 C 
ENDBRANCH  25  28
ENDBRANCH  23  24
ENDBRANCH   4  23
TORSDOF 6
ENDMDL
