MODEL 1
REMARK VINA RESULT:    -7.882      0.000      0.000
REMARK INTER + INTRA:         -11.312
REMARK INTER:                 -10.646
REMARK INTRA:                  -0.666
REMARK UNBOUND:                -0.666
REMARK  Name = 
REMARK  7 active torsions:
REMARK  status: ('A' for Active; 'I' for Inactive)
REMARK    1  A    between atoms: N_1  and  C_2
REMARK    2  A    between atoms: C_2  and  C_3
REMARK    3  A    between atoms: C_6  and  O_7
REMARK    4  A    between atoms: O_7  and  C_8
REMARK    5  A    between atoms: C_8  and  C_9
REMARK    6  A    between atoms: C_13  and  C_14
REMARK    7  A    between atoms: C_14  and  O_16
REMARK                            x       y       z     vdW  Elec       q    Type
REMARK                         _______ _______ _______ _____ _____    ______ ____
ROOT
ATOM      1  O   UNL     1      43.549   4.419   9.655  0.00  0.00    +0.000 OA
ENDROOT
BRANCH   1   5
ATOM      2  C   UNL     1      46.556   2.296   7.670  0.00  0.00    +0.000 A 
ATOM      3  C   UNL     1      46.412   3.684   7.535  0.00  0.00    +0.000 A 
ATOM      4  C   UNL     1      45.412   4.366   8.234  0.00  0.00    +0.000 A 
ATOM      5  C   UNL     1      44.535   3.669   9.064  0.00  0.00    +0.000 A 
ATOM      6  C   UNL     1      44.703   2.294   9.237  0.00  0.00    +0.000 A 
ATOM      7  C   UNL     1      45.697   1.609   8.535  0.00  0.00    +0.000 A 
BRANCH   2   8
ATOM      8  C   UNL     1      47.614   1.551   6.898  0.00  0.00    +0.000 C 
BRANCH   8   9
ATOM      9  N   UNL     1      48.614   2.459   6.354  0.00  0.00    +0.000 NA
ATOM     10  H   UNL     1      48.579   3.338   6.866  0.00  0.00    +0.000 HD
ATOM     11  H   UNL     1      48.369   2.676   5.389  0.00  0.00    +0.000 HD
ENDBRANCH   8   9
ENDBRANCH   2   8
ENDBRANCH   1   5
BRANCH   1  12
ATOM     12  C   UNL     1      43.389   4.186  11.057  0.00  0.00    +0.000 C 
BRANCH  12  13
ATOM     13  C   UNL     1      44.493   4.849  11.830  0.00  0.00    +0.000 A 
ATOM     14  C   UNL     1      44.760   6.202  11.627  0.00  0.00    +0.000 A 
ATOM     15  N   UNL     1      45.693   6.902  12.306  0.00  0.00    +0.000 NA
ATOM     16  C   UNL     1      46.396   6.225  13.246  0.00  0.00    +0.000 A 
ATOM     17  C   UNL     1      46.214   4.878  13.523  0.00  0.00    +0.000 A 
ATOM     18  C   UNL     1      45.229   4.184  12.816  0.00  0.00    +0.000 A 
BRANCH  17  19
ATOM     19  C   UNL     1      47.039   4.272  14.585  0.00  0.00    +0.000 C 
ATOM     20  O   UNL     1      47.475   3.134  14.510  0.00  0.00    +0.000 OA
BRANCH  19  21
ATOM     21  O   UNL     1      47.244   5.068  15.659  0.00  0.00    +0.000 OA
ATOM     22  H   UNL     1      46.999   6.004  15.541  0.00  0.00    +0.000 HD
ENDBRANCH  19  21
ENDBRANCH  17  19
ENDBRANCH  12  13
ENDBRANCH   1  12
TORSDOF 7
ENDMDL
MODEL 2
REMARK VINA RESULT:    -7.757      0.299      1.143
REMARK INTER + INTRA:         -11.144
REMARK INTER:                 -10.509
REMARK INTRA:                  -0.635
REMARK UNBOUND:                -0.666
REMARK  Name = 
REMARK  7 active torsions:
REMARK  status: ('A' for Active; 'I' for Inactive)
REMARK    1  A    between atoms: N_1  and  C_2
REMARK    2  A    between atoms: C_2  and  C_3
REMARK    3  A    between atoms: C_6  and  O_7
REMARK    4  A    between atoms: O_7  and  C_8
REMARK    5  A    between atoms: C_8  and  C_9
REMARK    6  A    between atoms: C_13  and  C_14
REMARK    7  A    between atoms: C_14  and  O_16
REMARK                            x       y       z     vdW  Elec       q    Type
REMARK                         _______ _______ _______ _____ _____    ______ ____
ROOT
ATOM      1  O   UNL     1      43.776   4.377   9.547  0.00  0.00    +0.000 OA
ENDROOT
BRANCH   1   5
ATOM      2  C   UNL     1      46.693   2.096   7.603  0.00  0.00    +0.000 A 
ATOM      3  C   UNL     1      45.719   1.513   8.427  0.00  0.00    +0.000 A 
ATOM      4  C   UNL     1      44.743   2.303   9.041  0.00  0.00    +0.000 A 
ATOM      5  C   UNL     1      44.735   3.684   8.851  0.00  0.00    +0.000 A 
ATOM      6  C   UNL     1      45.675   4.263   7.996  0.00  0.00    +0.000 A 
ATOM      7  C   UNL     1      46.655   3.477   7.386  0.00  0.00    +0.000 A 
BRANCH   2   8
ATOM      8  C   UNL     1      47.765   1.253   6.961  0.00  0.00    +0.000 C 
BRANCH   8   9
ATOM      9  N   UNL     1      48.326   1.909   5.788  0.00  0.00    +0.000 NA
ATOM     10  H   UNL     1      49.332   1.761   5.773  0.00  0.00    +0.000 HD
ATOM     11  H   UNL     1      48.183   2.914   5.876  0.00  0.00    +0.000 HD
ENDBRANCH   8   9
ENDBRANCH   2   8
ENDBRANCH   1   5
BRANCH   1  12
ATOM     12  C   UNL     1      43.661   4.006  10.923  0.00  0.00    +0.000 C 
BRANCH  12  13
ATOM     13  C   UNL     1      44.695   4.720  11.749  0.00  0.00    +0.000 A 
ATOM     14  C   UNL     1      44.911   6.082  11.553  0.00  0.00    +0.000 A 
ATOM     15  N   UNL     1      45.777   6.824  12.276  0.00  0.00    +0.000 NA
ATOM     16  C   UNL     1      46.461   6.181  13.253  0.00  0.00    +0.000 A 
ATOM     17  C   UNL     1      46.325   4.828  13.526  0.00  0.00    +0.000 A 
ATOM     18  C   UNL     1      45.409   4.089  12.774  0.00  0.00    +0.000 A 
BRANCH  17  19
ATOM     19  C   UNL     1      47.120   4.261  14.631  0.00  0.00    +0.000 C 
ATOM     20  O   UNL     1      47.522   3.108  14.629  0.00  0.00    +0.000 OA
BRANCH  19  21
ATOM     21  O   UNL     1      47.340   5.113  15.659  0.00  0.00    +0.000 OA
ATOM     22  H   UNL     1      48.274   5.320  15.841  0.00  0.00    +0.000 HD
ENDBRANCH  19  21
ENDBRANCH  17  19
ENDBRANCH  12  13
ENDBRANCH   1  12
TORSDOF 7
ENDMDL
MODEL 3
REMARK VINA RESULT:    -7.523      1.653      2.223
REMARK INTER + INTRA:         -10.828
REMARK INTER:                 -10.340
REMARK INTRA:                  -0.487
REMARK UNBOUND:                -0.666
REMARK  Name = 
REMARK  7 active torsions:
REMARK  status: ('A' for Active; 'I' for Inactive)
REMARK    1  A    between atoms: N_1  and  C_2
REMARK    2  A    between atoms: C_2  and  C_3
REMARK    3  A    between atoms: C_6  and  O_7
REMARK    4  A    between atoms: O_7  and  C_8
REMARK    5  A    between atoms: C_8  and  C_9
REMARK    6  A    between atoms: C_13  and  C_14
REMARK    7  A    between atoms: C_14  and  O_16
REMARK                            x       y       z     vdW  Elec       q    Type
REMARK                         _______ _______ _______ _____ _____    ______ ____
ROOT
ATOM      1  O   UNL     1      43.778   3.266   9.722  0.00  0.00    +0.000 OA
ENDROOT
BRANCH   1   5
ATOM      2  C   UNL     1      47.070   2.434   7.282  0.00  0.00    +0.000 A 
ATOM      3  C   UNL     1      46.412   1.433   8.012  0.00  0.00    +0.000 A 
ATOM      4  C   UNL     1      45.298   1.742   8.797  0.00  0.00    +0.000 A 
ATOM      5  C   UNL     1      44.837   3.055   8.875  0.00  0.00    +0.000 A 
ATOM      6  C   UNL     1      45.460   4.047   8.116  0.00  0.00    +0.000 A 
ATOM      7  C   UNL     1      46.577   3.742   7.335  0.00  0.00    +0.000 A 
BRANCH   2   8
ATOM      8  C   UNL     1      48.289   2.112   6.456  0.00  0.00    +0.000 C 
BRANCH   8   9
ATOM      9  N   UNL     1      48.128   2.552   5.077  0.00  0.00    +0.000 NA
ATOM     10  H   UNL     1      48.896   2.187   4.519  0.00  0.00    +0.000 HD
ATOM     11  H   UNL     1      48.205   3.568   5.047  0.00  0.00    +0.000 HD
ENDBRANCH   8   9
ENDBRANCH   2   8
ENDBRANCH   1   5
BRANCH   1  12
ATOM     12  C   UNL     1      43.813   4.518  10.412  0.00  0.00    +0.000 C 
BRANCH  12  13
ATOM     13  C   UNL     1      44.822   4.477  11.524  0.00  0.00    +0.000 A 
ATOM     14  C   UNL     1      44.999   3.301  12.251  0.00  0.00    +0.000 A 
ATOM     15  N   UNL     1      45.913   3.146  13.233  0.00  0.00    +0.000 NA
ATOM     16  C   UNL     1      46.702   4.213  13.504  0.00  0.00    +0.000 A 
ATOM     17  C   UNL     1      46.605   5.431  12.845  0.00  0.00    +0.000 A 
ATOM     18  C   UNL     1      45.662   5.557  11.822  0.00  0.00    +0.000 A 
BRANCH  17  19
ATOM     19  C   UNL     1      47.539   6.504  13.231  0.00  0.00    +0.000 C 
ATOM     20  O   UNL     1      48.751   6.382  13.150  0.00  0.00    +0.000 OA
BRANCH  19  21
ATOM     21  O   UNL     1      46.944   7.620  13.712  0.00  0.00    +0.000 OA
ATOM     22  H   UNL     1      46.459   7.510  14.549  0.00  0.00    +0.000 HD
ENDBRANCH  19  21
ENDBRANCH  17  19
ENDBRANCH  12  13
ENDBRANCH   1  12
TORSDOF 7
ENDMDL
MODEL 4
REMARK VINA RESULT:    -7.226      2.519      6.339
REMARK INTER + INTRA:         -10.426
REMARK INTER:                 -10.224
REMARK INTRA:                  -0.202
REMARK UNBOUND:                -0.666
REMARK  Name = 
REMARK  7 active torsions:
REMARK  status: ('A' for Active; 'I' for Inactive)
REMARK    1  A    between atoms: N_1  and  C_2
REMARK    2  A    between atoms: C_2  and  C_3
REMARK    3  A    between atoms: C_6  and  O_7
REMARK    4  A    between atoms: O_7  and  C_8
REMARK    5  A    between atoms: C_8  and  C_9
REMARK    6  A    between atoms: C_13  and  C_14
REMARK    7  A    between atoms: C_14  and  O_16
REMARK                            x       y       z     vdW  Elec       q    Type
REMARK                         _______ _______ _______ _____ _____    ______ ____
ROOT
ATOM      1  O   UNL     1      44.701   3.363  11.830  0.00  0.00    +0.000 OA
ENDROOT
BRANCH   1   5
ATOM      2  C   UNL     1      45.662   7.323  12.771  0.00  0.00    +0.000 A 
ATOM      3  C   UNL     1      46.494   6.250  13.125  0.00  0.00    +0.000 A 
ATOM      4  C   UNL     1      46.155   4.942  12.771  0.00  0.00    +0.000 A 
ATOM      5  C   UNL     1      44.976   4.686  12.073  0.00  0.00    +0.000 A 
ATOM      6  C   UNL     1      44.168   5.753  11.679  0.00  0.00    +0.000 A 
ATOM      7  C   UNL     1      44.501   7.062  12.036  0.00  0.00    +0.000 A 
BRANCH   2   8
ATOM      8  C   UNL     1      46.008   8.733  13.173  0.00  0.00    +0.000 C 
BRANCH   8   9
ATOM      9  N   UNL     1      46.977   8.753  14.260  0.00  0.00    +0.000 NA
ATOM     10  H   UNL     1      47.040   7.823  14.668  0.00  0.00    +0.000 HD
ATOM     11  H   UNL     1      46.633   9.369  14.995  0.00  0.00    +0.000 HD
ENDBRANCH   8   9
ENDBRANCH   2   8
ENDBRANCH   1   5
BRANCH   1  12
ATOM     12  C   UNL     1      43.925   3.127  10.652  0.00  0.00    +0.000 C 
BRANCH  12  13
ATOM     13  C   UNL     1      44.805   3.124   9.434  0.00  0.00    +0.000 A 
ATOM     14  C   UNL     1      45.012   4.309   8.731  0.00  0.00    +0.000 A 
ATOM     15  N   UNL     1      45.822   4.423   7.658  0.00  0.00    +0.000 NA
ATOM     16  C   UNL     1      46.471   3.301   7.263  0.00  0.00    +0.000 A 
ATOM     17  C   UNL     1      46.330   2.070   7.888  0.00  0.00    +0.000 A 
ATOM     18  C   UNL     1      45.499   1.986   9.007  0.00  0.00    +0.000 A 
BRANCH  17  19
ATOM     19  C   UNL     1      47.109   0.934   7.362  0.00  0.00    +0.000 C 
ATOM     20  O   UNL     1      47.955   1.063   6.491  0.00  0.00    +0.000 OA
BRANCH  19  21
ATOM     21  O   UNL     1      46.788  -0.264   7.901  0.00  0.00    +0.000 OA
ATOM     22  H   UNL     1      47.062  -1.044   7.386  0.00  0.00    +0.000 HD
ENDBRANCH  19  21
ENDBRANCH  17  19
ENDBRANCH  12  13
ENDBRANCH   1  12
TORSDOF 7
ENDMDL
MODEL 5
REMARK VINA RESULT:    -7.007      2.589      6.272
REMARK INTER + INTRA:         -10.131
REMARK INTER:                  -9.609
REMARK INTRA:                  -0.522
REMARK UNBOUND:                -0.666
REMARK  Name = 
REMARK  7 active torsions:
REMARK  status: ('A' for Active; 'I' for Inactive)
REMARK    1  A    between atoms: N_1  and  C_2
REMARK    2  A    between atoms: C_2  and  C_3
REMARK    3  A    between atoms: C_6  and  O_7
REMARK    4  A    between atoms: O_7  and  C_8
REMARK    5  A    between atoms: C_8  and  C_9
REMARK    6  A    between atoms: C_13  and  C_14
REMARK    7  A    between atoms: C_14  and  O_16
REMARK                            x       y       z     vdW  Elec       q    Type
REMARK                         _______ _______ _______ _____ _____    ______ ____
ROOT
ATOM      1  O   UNL     1      43.940   4.251  10.656  0.00  0.00    +0.000 OA
ENDROOT
BRANCH   1   5
ATOM      2  C   UNL     1      47.039   5.818  12.986  0.00  0.00    +0.000 A 
ATOM      3  C   UNL     1      46.595   6.450  11.816  0.00  0.00    +0.000 A 
ATOM      4  C   UNL     1      45.539   5.913  11.075  0.00  0.00    +0.000 A 
ATOM      5  C   UNL     1      44.923   4.731  11.485  0.00  0.00    +0.000 A 
ATOM      6  C   UNL     1      45.331   4.122  12.673  0.00  0.00    +0.000 A 
ATOM      7  C   UNL     1      46.390   4.654  13.412  0.00  0.00    +0.000 A 
BRANCH   2   8
ATOM      8  C   UNL     1      48.195   6.377  13.774  0.00  0.00    +0.000 C 
BRANCH   8   9
ATOM      9  N   UNL     1      49.351   6.620  12.922  0.00  0.00    +0.000 NA
ATOM     10  H   UNL     1      49.665   7.579  13.051  0.00  0.00    +0.000 HD
ATOM     11  H   UNL     1      49.063   6.538  11.948  0.00  0.00    +0.000 HD
ENDBRANCH   8   9
ENDBRANCH   2   8
ENDBRANCH   1   5
BRANCH   1  12
ATOM     12  C   UNL     1      44.183   4.469   9.263  0.00  0.00    +0.000 C 
BRANCH  12  13
ATOM     13  C   UNL     1      45.043   3.373   8.701  0.00  0.00    +0.000 A 
ATOM     14  C   UNL     1      44.903   2.072   9.183  0.00  0.00    +0.000 A 
ATOM     15  N   UNL     1      45.589   1.011   8.710  0.00  0.00    +0.000 NA
ATOM     16  C   UNL     1      46.457   1.248   7.697  0.00  0.00    +0.000 A 
ATOM     17  C   UNL     1      46.676   2.505   7.150  0.00  0.00    +0.000 A 
ATOM     18  C   UNL     1      45.939   3.582   7.647  0.00  0.00    +0.000 A 
BRANCH  17  19
ATOM     19  C   UNL     1      47.639   2.617   6.039  0.00  0.00    +0.000 C 
ATOM     20  O   UNL     1      47.293   2.807   4.884  0.00  0.00    +0.000 OA
BRANCH  19  21
ATOM     21  O   UNL     1      48.934   2.460   6.401  0.00  0.00    +0.000 OA
ATOM     22  H   UNL     1      49.585   2.548   5.681  0.00  0.00    +0.000 HD
ENDBRANCH  19  21
ENDBRANCH  17  19
ENDBRANCH  12  13
ENDBRANCH   1  12
TORSDOF 7
ENDMDL
MODEL 6
REMARK VINA RESULT:    -6.276      2.516      6.190
REMARK INTER + INTRA:          -9.143
REMARK INTER:                  -8.485
REMARK INTRA:                  -0.657
REMARK UNBOUND:                -0.666
REMARK  Name = 
REMARK  7 active torsions:
REMARK  status: ('A' for Active; 'I' for Inactive)
REMARK    1  A    between atoms: N_1  and  C_2
REMARK    2  A    between atoms: C_2  and  C_3
REMARK    3  A    between atoms: C_6  and  O_7
REMARK    4  A    between atoms: O_7  and  C_8
REMARK    5  A    between atoms: C_8  and  C_9
REMARK    6  A    between atoms: C_13  and  C_14
REMARK    7  A    between atoms: C_14  and  O_16
REMARK                            x       y       z     vdW  Elec       q    Type
REMARK                         _______ _______ _______ _____ _____    ______ ____
ROOT
ATOM      1  O   UNL     1      43.837   5.067  11.963  0.00  0.00    +0.000 OA
ENDROOT
BRANCH   1   5
ATOM      2  C   UNL     1      47.353   6.733  13.495  0.00  0.00    +0.000 A 
ATOM      3  C   UNL     1      47.116   5.350  13.510  0.00  0.00    +0.000 A 
ATOM      4  C   UNL     1      45.941   4.825  12.966  0.00  0.00    +0.000 A 
ATOM      5  C   UNL     1      44.983   5.673  12.413  0.00  0.00    +0.000 A 
ATOM      6  C   UNL     1      45.234   7.046  12.354  0.00  0.00    +0.000 A 
ATOM      7  C   UNL     1      46.405   7.574  12.903  0.00  0.00    +0.000 A 
BRANCH   2   8
ATOM      8  C   UNL     1      48.606   7.307  14.106  0.00  0.00    +0.000 C 
BRANCH   8   9
ATOM      9  N   UNL     1      49.786   6.953  13.331  0.00  0.00    +0.000 NA
ATOM     10  H   UNL     1      50.579   7.495  13.665  0.00  0.00    +0.000 HD
ATOM     11  H   UNL     1      49.635   7.226  12.361  0.00  0.00    +0.000 HD
ENDBRANCH   8   9
ENDBRANCH   2   8
ENDBRANCH   1   5
BRANCH   1  12
ATOM     12  C   UNL     1      43.641   5.147  10.549  0.00  0.00    +0.000 C 
BRANCH  12  13
ATOM     13  C   UNL     1      44.366   4.029   9.854  0.00  0.00    +0.000 A 
ATOM     14  C   UNL     1      44.046   2.707  10.155  0.00  0.00    +0.000 A 
ATOM     15  N   UNL     1      44.600   1.635   9.552  0.00  0.00    +0.000 NA
ATOM     16  C   UNL     1      45.519   1.887   8.588  0.00  0.00    +0.000 A 
ATOM     17  C   UNL     1      45.915   3.164   8.216  0.00  0.00    +0.000 A 
ATOM     18  C   UNL     1      45.311   4.254   8.846  0.00  0.00    +0.000 A 
BRANCH  17  19
ATOM     19  C   UNL     1      46.914   3.292   7.139  0.00  0.00    +0.000 C 
ATOM     20  O   UNL     1      47.842   2.510   7.006  0.00  0.00    +0.000 OA
BRANCH  19  21
ATOM     21  O   UNL     1      46.736   4.364   6.334  0.00  0.00    +0.000 OA
ATOM     22  H   UNL     1      47.548   4.740   5.948  0.00  0.00    +0.000 HD
ENDBRANCH  19  21
ENDBRANCH  17  19
ENDBRANCH  12  13
ENDBRANCH   1  12
TORSDOF 7
ENDMDL
MODEL 7
REMARK VINA RESULT:    -5.889      2.833      5.872
REMARK INTER + INTRA:          -8.620
REMARK INTER:                  -7.905
REMARK INTRA:                  -0.715
REMARK UNBOUND:                -0.666
REMARK  Name = 
REMARK  7 active torsions:
REMARK  status: ('A' for Active; 'I' for Inactive)
REMARK    1  A    between atoms: N_1  and  C_2
REMARK    2  A    between atoms: C_2  and  C_3
REMARK    3  A    between atoms: C_6  and  O_7
REMARK    4  A    between atoms: O_7  and  C_8
REMARK    5  A    between atoms: C_8  and  C_9
REMARK    6  A    between atoms: C_13  and  C_14
REMARK    7  A    between atoms: C_14  and  O_16
REMARK                            x       y       z     vdW  Elec       q    Type
REMARK                         _______ _______ _______ _____ _____    ______ ____
ROOT
ATOM      1  O   UNL     1      44.911   6.446  12.921  0.00  0.00    +0.000 OA
ENDROOT
BRANCH   1   5
ATOM      2  C   UNL     1      48.778   7.880  12.232  0.00  0.00    +0.000 A 
ATOM      3  C   UNL     1      47.642   8.678  12.032  0.00  0.00    +0.000 A 
ATOM      4  C   UNL     1      46.365   8.174  12.297  0.00  0.00    +0.000 A 
ATOM      5  C   UNL     1      46.207   6.866  12.752  0.00  0.00    +0.000 A 
ATOM      6  C   UNL     1      47.337   6.084  12.995  0.00  0.00    +0.000 A 
ATOM      7  C   UNL     1      48.613   6.582  12.726  0.00  0.00    +0.000 A 
BRANCH   2   8
ATOM      8  C   UNL     1      50.155   8.408  11.921  0.00  0.00    +0.000 C 
BRANCH   8   9
ATOM      9  N   UNL     1      51.030   7.353  11.429  0.00  0.00    +0.000 NA
ATOM     10  H   UNL     1      51.249   6.718  12.193  0.00  0.00    +0.000 HD
ATOM     11  H   UNL     1      51.913   7.770  11.137  0.00  0.00    +0.000 HD
ENDBRANCH   8   9
ENDBRANCH   2   8
ENDBRANCH   1   5
BRANCH   1  12
ATOM     12  C   UNL     1      44.137   6.418  11.719  0.00  0.00    +0.000 C 
BRANCH  12  13
ATOM     13  C   UNL     1      44.251   5.078  11.051  0.00  0.00    +0.000 A 
ATOM     14  C   UNL     1      43.475   4.013  11.506  0.00  0.00    +0.000 A 
ATOM     15  N   UNL     1      43.465   2.786  10.943  0.00  0.00    +0.000 NA
ATOM     16  C   UNL     1      44.263   2.606   9.863  0.00  0.00    +0.000 A 
ATOM     17  C   UNL     1      45.079   3.596   9.334  0.00  0.00    +0.000 A 
ATOM     18  C   UNL     1      45.055   4.860   9.926  0.00  0.00    +0.000 A 
BRANCH  17  19
ATOM     19  C   UNL     1      45.885   3.266   8.144  0.00  0.00    +0.000 C 
ATOM     20  O   UNL     1      46.310   2.142   7.928  0.00  0.00    +0.000 OA
BRANCH  19  21
ATOM     21  O   UNL     1      46.140   4.317   7.330  0.00  0.00    +0.000 OA
ATOM     22  H   UNL     1      45.602   4.361   6.520  0.00  0.00    +0.000 HD
ENDBRANCH  19  21
ENDBRANCH  17  19
ENDBRANCH  12  13
ENDBRANCH   1  12
TORSDOF 7
ENDMDL
MODEL 8
REMARK VINA RESULT:    -5.790      2.791      6.770
REMARK INTER + INTRA:          -8.487
REMARK INTER:                  -8.110
REMARK INTRA:                  -0.377
REMARK UNBOUND:                -0.666
REMARK  Name = 
REMARK  7 active torsions:
REMARK  status: ('A' for Active; 'I' for Inactive)
REMARK    1  A    between atoms: N_1  and  C_2
REMARK    2  A    between atoms: C_2  and  C_3
REMARK    3  A    between atoms: C_6  and  O_7
REMARK    4  A    between atoms: O_7  and  C_8
REMARK    5  A    between atoms: C_8  and  C_9
REMARK    6  A    between atoms: C_13  and  C_14
REMARK    7  A    between atoms: C_14  and  O_16
REMARK                            x       y       z     vdW  Elec       q    Type
REMARK                         _______ _______ _______ _____ _____    ______ ____
ROOT
ATOM      1  O   UNL     1      47.433   6.571  12.637  0.00  0.00    +0.000 OA
ENDROOT
BRANCH   1   5
ATOM      2  C   UNL     1      47.759   4.515  16.264  0.00  0.00    +0.000 A 
ATOM      3  C   UNL     1      47.106   3.964  15.152  0.00  0.00    +0.000 A 
ATOM      4  C   UNL     1      47.039   4.668  13.946  0.00  0.00    +0.000 A 
ATOM      5  C   UNL     1      47.609   5.936  13.841  0.00  0.00    +0.000 A 
ATOM      6  C   UNL     1      48.299   6.470  14.931  0.00  0.00    +0.000 A 
ATOM      7  C   UNL     1      48.363   5.771  16.138  0.00  0.00    +0.000 A 
BRANCH   2   8
ATOM      8  C   UNL     1      47.811   3.773  17.574  0.00  0.00    +0.000 C 
BRANCH   8   9
ATOM      9  N   UNL     1      46.670   2.881  17.726  0.00  0.00    +0.000 NA
ATOM     10  H   UNL     1      46.907   2.146  18.388  0.00  0.00    +0.000 HD
ATOM     11  H   UNL     1      46.492   2.422  16.834  0.00  0.00    +0.000 HD
ENDBRANCH   8   9
ENDBRANCH   2   8
ENDBRANCH   1   5
BRANCH   1  12
ATOM     12  C   UNL     1      46.114   7.079  12.424  0.00  0.00    +0.000 C 
BRANCH  12  13
ATOM     13  C   UNL     1      45.311   6.124  11.587  0.00  0.00    +0.000 A 
ATOM     14  C   UNL     1      44.014   5.792  11.974  0.00  0.00    +0.000 A 
ATOM     15  N   UNL     1      43.194   4.986  11.267  0.00  0.00    +0.000 NA
ATOM     16  C   UNL     1      43.683   4.488  10.106  0.00  0.00    +0.000 A 
ATOM     17  C   UNL     1      44.961   4.750   9.633  0.00  0.00    +0.000 A 
ATOM     18  C   UNL     1      45.781   5.601  10.377  0.00  0.00    +0.000 A 
BRANCH  17  19
ATOM     19  C   UNL     1      45.358   4.153   8.344  0.00  0.00    +0.000 C 
ATOM     20  O   UNL     1      44.723   3.257   7.811  0.00  0.00    +0.000 OA
BRANCH  19  21
ATOM     21  O   UNL     1      46.498   4.658   7.820  0.00  0.00    +0.000 OA
ATOM     22  H   UNL     1      46.384   5.231   7.040  0.00  0.00    +0.000 HD
ENDBRANCH  19  21
ENDBRANCH  17  19
ENDBRANCH  12  13
ENDBRANCH   1  12
TORSDOF 7
ENDMDL
MODEL 9
REMARK VINA RESULT:    -5.759      3.241      7.700
REMARK INTER + INTRA:          -8.445
REMARK INTER:                  -8.052
REMARK INTRA:                  -0.393
REMARK UNBOUND:                -0.666
REMARK  Name = 
REMARK  7 active torsions:
REMARK  status: ('A' for Active; 'I' for Inactive)
REMARK    1  A    between atoms: N_1  and  C_2
REMARK    2  A    between atoms: C_2  and  C_3
REMARK    3  A    between atoms: C_6  and  O_7
REMARK    4  A    between atoms: O_7  and  C_8
REMARK    5  A    between atoms: C_8  and  C_9
REMARK    6  A    between atoms: C_13  and  C_14
REMARK    7  A    between atoms: C_14  and  O_16
REMARK                            x       y       z     vdW  Elec       q    Type
REMARK                         _______ _______ _______ _____ _____    ______ ____
ROOT
ATOM      1  O   UNL     1      47.052   3.267  14.454  0.00  0.00    +0.000 OA
ENDROOT
BRANCH   1   5
ATOM      2  C   UNL     1      48.579   4.040  18.270  0.00  0.00    +0.000 A 
ATOM      3  C   UNL     1      47.660   4.898  17.648  0.00  0.00    +0.000 A 
ATOM      4  C   UNL     1      47.150   4.595  16.383  0.00  0.00    +0.000 A 
ATOM      5  C   UNL     1      47.561   3.442  15.717  0.00  0.00    +0.000 A 
ATOM      6  C   UNL     1      48.440   2.561  16.350  0.00  0.00    +0.000 A 
ATOM      7  C   UNL     1      48.956   2.864  17.612  0.00  0.00    +0.000 A 
BRANCH   2   8
ATOM      8  C   UNL     1      49.155   4.375  19.622  0.00  0.00    +0.000 C 
BRANCH   8   9
ATOM      9  N   UNL     1      48.379   3.768  20.695  0.00  0.00    +0.000 NA
ATOM     10  H   UNL     1      48.437   4.357  21.522  0.00  0.00    +0.000 HD
ATOM     11  H   UNL     1      48.806   2.877  20.944  0.00  0.00    +0.000 HD
ENDBRANCH   8   9
ENDBRANCH   2   8
ENDBRANCH   1   5
BRANCH   1  12
ATOM     12  C   UNL     1      46.708   4.482  13.783  0.00  0.00    +0.000 C 
BRANCH  12  13
ATOM     13  C   UNL     1      45.497   4.280  12.917  0.00  0.00    +0.000 A 
ATOM     14  C   UNL     1      44.256   4.744  13.350  0.00  0.00    +0.000 A 
ATOM     15  N   UNL     1      43.120   4.658  12.626  0.00  0.00    +0.000 NA
ATOM     16  C   UNL     1      43.220   4.090  11.401  0.00  0.00    +0.000 A 
ATOM     17  C   UNL     1      44.404   3.591  10.877  0.00  0.00    +0.000 A 
ATOM     18  C   UNL     1      45.568   3.709  11.641  0.00  0.00    +0.000 A 
BRANCH  17  19
ATOM     19  C   UNL     1      44.372   3.011   9.522  0.00  0.00    +0.000 C 
ATOM     20  O   UNL     1      44.661   1.847   9.296  0.00  0.00    +0.000 OA
BRANCH  19  21
ATOM     21  O   UNL     1      44.028   3.884   8.547  0.00  0.00    +0.000 OA
ATOM     22  H   UNL     1      44.612   4.657   8.449  0.00  0.00    +0.000 HD
ENDBRANCH  19  21
ENDBRANCH  17  19
ENDBRANCH  12  13
ENDBRANCH   1  12
TORSDOF 7
ENDMDL
