MODEL 1
REMARK VINA RESULT:    -6.806      0.000      0.000
REMARK INTER + INTRA:          -9.430
REMARK INTER:                  -8.795
REMARK INTRA:                  -0.635
REMARK UNBOUND:                -0.635
REMARK  Name = 
REMARK  8 active torsions:
REMARK  status: ('A' for Active; 'I' for Inactive)
REMARK    1  A    between atoms: C_1  and  N_2
REMARK    2  A    between atoms: C_3  and  C_5
REMARK    3  A    between atoms: C_8  and  O_9
REMARK    4  A    between atoms: O_9  and  C_10
REMARK    5  A    between atoms: C_10  and  C_11
REMARK    6  A    between atoms: C_11  and  C_12
REMARK    7  A    between atoms: C_11  and  C_13
REMARK    8  A    between atoms: C_11  and  C_14
REMARK                            x       y       z     vdW  Elec       q    Type
REMARK                         _______ _______ _______ _____ _____    ______ ____
ROOT
ATOM      1  C   UNL     1      48.390   5.676  15.800  0.00  0.00    +0.000 A 
ATOM      2  C   UNL     1      48.153   6.245  14.548  0.00  0.00    +0.000 A 
ATOM      3  C   UNL     1      47.206   5.658  13.702  0.00  0.00    +0.000 A 
ATOM      4  C   UNL     1      46.534   4.527  14.142  0.00  0.00    +0.000 A 
ATOM      5  N   UNL     1      46.745   3.957  15.347  0.00  0.00    +0.000 NA
ATOM      6  C   UNL     1      47.675   4.536  16.142  0.00  0.00    +0.000 A 
ENDROOT
BRANCH   1   9
ATOM      7  C   UNL     1      49.816   7.419  18.835  0.00  0.00    +0.000 C 
ATOM      8  N   UNL     1      48.908   6.922  17.830  0.00  0.00    +0.000 N 
ATOM      9  C   UNL     1      49.388   6.189  16.765  0.00  0.00    +0.000 C 
ATOM     10  O   UNL     1      50.575   5.932  16.606  0.00  0.00    +0.000 OA
ATOM     11  H   UNL     1      47.915   6.961  18.016  0.00  0.00    +0.000 HD
ENDBRANCH   1   9
BRANCH   4  12
ATOM     12  O   UNL     1      45.609   3.972  13.279  0.00  0.00    +0.000 OA
BRANCH  12  13
ATOM     13  C   UNL     1      45.192   4.880  12.244  0.00  0.00    +0.000 C 
BRANCH  13  14
ATOM     14  C   UNL     1      44.130   4.217  11.325  0.00  0.00    +0.000 C 
ATOM     15  C   UNL     1      43.463   3.039  12.077  0.00  0.00    +0.000 C 
ATOM     16  C   UNL     1      42.995   5.232  11.037  0.00  0.00    +0.000 C 
BRANCH  14  17
ATOM     17  C   UNL     1      44.827   3.745  10.029  0.00  0.00    +0.000 A 
ATOM     18  C   UNL     1      45.356   4.665   9.104  0.00  0.00    +0.000 A 
ATOM     19  C   UNL     1      46.007   4.241   7.940  0.00  0.00    +0.000 A 
ATOM     20  C   UNL     1      46.130   2.884   7.662  0.00  0.00    +0.000 A 
ATOM     21  C   UNL     1      45.586   1.954   8.540  0.00  0.00    +0.000 A 
ATOM     22  C   UNL     1      44.936   2.380   9.703  0.00  0.00    +0.000 A 
ENDBRANCH  14  17
ENDBRANCH  13  14
ENDBRANCH  12  13
ENDBRANCH   4  12
TORSDOF 5
ENDMDL
MODEL 2
REMARK VINA RESULT:    -6.778      2.198      2.458
REMARK INTER + INTRA:          -9.393
REMARK INTER:                  -8.520
REMARK INTRA:                  -0.873
REMARK UNBOUND:                -0.635
REMARK  Name = 
REMARK  8 active torsions:
REMARK  status: ('A' for Active; 'I' for Inactive)
REMARK    1  A    between atoms: C_1  and  N_2
REMARK    2  A    between atoms: C_3  and  C_5
REMARK    3  A    between atoms: C_8  and  O_9
REMARK    4  A    between atoms: O_9  and  C_10
REMARK    5  A    between atoms: C_10  and  C_11
REMARK    6  A    between atoms: C_11  and  C_12
REMARK    7  A    between atoms: C_11  and  C_13
REMARK    8  A    between atoms: C_11  and  C_14
REMARK                            x       y       z     vdW  Elec       q    Type
REMARK                         _______ _______ _______ _____ _____    ______ ____
ROOT
ATOM      1  C   UNL     1      48.819   7.317  13.066  0.00  0.00    +0.000 A 
ATOM      2  C   UNL     1      48.142   7.384  11.848  0.00  0.00    +0.000 A 
ATOM      3  C   UNL     1      46.905   6.740  11.720  0.00  0.00    +0.000 A 
ATOM      4  C   UNL     1      46.398   6.056  12.815  0.00  0.00    +0.000 A 
ATOM      5  N   UNL     1      47.034   5.975  14.002  0.00  0.00    +0.000 NA
ATOM      6  C   UNL     1      48.233   6.595  14.097  0.00  0.00    +0.000 A 
ENDROOT
BRANCH   1   9
ATOM      7  C   UNL     1      52.139   8.043  14.719  0.00  0.00    +0.000 C 
ATOM      8  N   UNL     1      50.824   7.522  14.437  0.00  0.00    +0.000 N 
ATOM      9  C   UNL     1      50.145   7.930  13.308  0.00  0.00    +0.000 C 
ATOM     10  O   UNL     1      50.597   8.737  12.507  0.00  0.00    +0.000 OA
ATOM     11  H   UNL     1      50.494   6.731  14.973  0.00  0.00    +0.000 HD
ENDBRANCH   1   9
BRANCH   4  12
ATOM     12  O   UNL     1      45.177   5.429  12.652  0.00  0.00    +0.000 OA
BRANCH  12  13
ATOM     13  C   UNL     1      45.299   4.082  12.163  0.00  0.00    +0.000 C 
BRANCH  13  14
ATOM     14  C   UNL     1      44.253   3.804  11.049  0.00  0.00    +0.000 C 
ATOM     15  C   UNL     1      43.320   2.652  11.495  0.00  0.00    +0.000 C 
ATOM     16  C   UNL     1      43.341   5.046  10.881  0.00  0.00    +0.000 C 
BRANCH  14  17
ATOM     17  C   UNL     1      45.004   3.458   9.744  0.00  0.00    +0.000 A 
ATOM     18  C   UNL     1      45.484   4.465   8.884  0.00  0.00    +0.000 A 
ATOM     19  C   UNL     1      46.184   4.154   7.713  0.00  0.00    +0.000 A 
ATOM     20  C   UNL     1      46.406   2.828   7.360  0.00  0.00    +0.000 A 
ATOM     21  C   UNL     1      45.912   1.813   8.171  0.00  0.00    +0.000 A 
ATOM     22  C   UNL     1      45.213   2.125   9.343  0.00  0.00    +0.000 A 
ENDBRANCH  14  17
ENDBRANCH  13  14
ENDBRANCH  12  13
ENDBRANCH   4  12
TORSDOF 5
ENDMDL
MODEL 3
REMARK VINA RESULT:    -6.624      1.223      1.683
REMARK INTER + INTRA:          -9.195
REMARK INTER:                  -8.498
REMARK INTRA:                  -0.697
REMARK UNBOUND:                -0.635
REMARK  Name = 
REMARK  8 active torsions:
REMARK  status: ('A' for Active; 'I' for Inactive)
REMARK    1  A    between atoms: C_1  and  N_2
REMARK    2  A    between atoms: C_3  and  C_5
REMARK    3  A    between atoms: C_8  and  O_9
REMARK    4  A    between atoms: O_9  and  C_10
REMARK    5  A    between atoms: C_10  and  C_11
REMARK    6  A    between atoms: C_11  and  C_12
REMARK    7  A    between atoms: C_11  and  C_13
REMARK    8  A    between atoms: C_11  and  C_14
REMARK                            x       y       z     vdW  Elec       q    Type
REMARK                         _______ _______ _______ _____ _____    ______ ____
ROOT
ATOM      1  C   UNL     1      48.170   5.175  16.295  0.00  0.00    +0.000 A 
ATOM      2  C   UNL     1      48.263   6.119  15.272  0.00  0.00    +0.000 A 
ATOM      3  C   UNL     1      47.599   5.880  14.063  0.00  0.00    +0.000 A 
ATOM      4  C   UNL     1      46.870   4.708  13.927  0.00  0.00    +0.000 A 
ATOM      5  N   UNL     1      46.765   3.780  14.901  0.00  0.00    +0.000 NA
ATOM      6  C   UNL     1      47.426   4.028  16.056  0.00  0.00    +0.000 A 
ENDROOT
BRANCH   1   9
ATOM      7  C   UNL     1      48.906   4.701  19.971  0.00  0.00    +0.000 C 
ATOM      8  N   UNL     1      48.276   4.657  18.674  0.00  0.00    +0.000 N 
ATOM      9  C   UNL     1      48.853   5.304  17.602  0.00  0.00    +0.000 C 
ATOM     10  O   UNL     1      49.895   5.941  17.683  0.00  0.00    +0.000 OA
ATOM     11  H   UNL     1      47.519   4.003  18.529  0.00  0.00    +0.000 HD
ENDBRANCH   1   9
BRANCH   4  12
ATOM     12  O   UNL     1      46.231   4.504  12.719  0.00  0.00    +0.000 OA
BRANCH  12  13
ATOM     13  C   UNL     1      44.797   4.556  12.827  0.00  0.00    +0.000 C 
BRANCH  13  14
ATOM     14  C   UNL     1      44.171   5.156  11.539  0.00  0.00    +0.000 C 
ATOM     15  C   UNL     1      42.630   5.203  11.690  0.00  0.00    +0.000 C 
ATOM     16  C   UNL     1      44.627   6.630  11.385  0.00  0.00    +0.000 C 
BRANCH  14  17
ATOM     17  C   UNL     1      44.600   4.290  10.333  0.00  0.00    +0.000 A 
ATOM     18  C   UNL     1      44.256   2.926  10.251  0.00  0.00    +0.000 A 
ATOM     19  C   UNL     1      44.625   2.144   9.150  0.00  0.00    +0.000 A 
ATOM     20  C   UNL     1      45.362   2.701   8.111  0.00  0.00    +0.000 A 
ATOM     21  C   UNL     1      45.746   4.034   8.184  0.00  0.00    +0.000 A 
ATOM     22  C   UNL     1      45.377   4.815   9.284  0.00  0.00    +0.000 A 
ENDBRANCH  14  17
ENDBRANCH  13  14
ENDBRANCH  12  13
ENDBRANCH   4  12
TORSDOF 5
ENDMDL
MODEL 4
REMARK VINA RESULT:    -6.298      1.693      2.450
REMARK INTER + INTRA:          -8.773
REMARK INTER:                  -8.185
REMARK INTRA:                  -0.588
REMARK UNBOUND:                -0.635
REMARK  Name = 
REMARK  8 active torsions:
REMARK  status: ('A' for Active; 'I' for Inactive)
REMARK    1  A    between atoms: C_1  and  N_2
REMARK    2  A    between atoms: C_3  and  C_5
REMARK    3  A    between atoms: C_8  and  O_9
REMARK    4  A    between atoms: O_9  and  C_10
REMARK    5  A    between atoms: C_10  and  C_11
REMARK    6  A    between atoms: C_11  and  C_12
REMARK    7  A    between atoms: C_11  and  C_13
REMARK    8  A    between atoms: C_11  and  C_14
REMARK                            x       y       z     vdW  Elec       q    Type
REMARK                         _______ _______ _______ _____ _____    ______ ____
ROOT
ATOM      1  C   UNL     1      47.438   5.738  14.100  0.00  0.00    +0.000 A 
ATOM      2  C   UNL     1      47.669   6.523  12.970  0.00  0.00    +0.000 A 
ATOM      3  C   UNL     1      46.846   6.362  11.848  0.00  0.00    +0.000 A 
ATOM      4  C   UNL     1      45.827   5.422  11.904  0.00  0.00    +0.000 A 
ATOM      5  N   UNL     1      45.584   4.650  12.983  0.00  0.00    +0.000 NA
ATOM      6  C   UNL     1      46.401   4.817  14.050  0.00  0.00    +0.000 A 
ENDROOT
BRANCH   1   9
ATOM      7  C   UNL     1      48.473   5.235  17.699  0.00  0.00    +0.000 C 
ATOM      8  N   UNL     1      47.715   5.252  16.472  0.00  0.00    +0.000 N 
ATOM      9  C   UNL     1      48.260   5.799  15.329  0.00  0.00    +0.000 C 
ATOM     10  O   UNL     1      49.380   6.294  15.288  0.00  0.00    +0.000 OA
ATOM     11  H   UNL     1      46.869   4.702  16.421  0.00  0.00    +0.000 HD
ENDBRANCH   1   9
BRANCH   4  12
ATOM     12  O   UNL     1      45.038   5.287  10.778  0.00  0.00    +0.000 OA
BRANCH  12  13
ATOM     13  C   UNL     1      45.767   4.802   9.636  0.00  0.00    +0.000 C 
BRANCH  13  14
ATOM     14  C   UNL     1      45.053   3.574   9.009  0.00  0.00    +0.000 C 
ATOM     15  C   UNL     1      44.655   2.582  10.130  0.00  0.00    +0.000 C 
ATOM     16  C   UNL     1      43.724   4.031   8.357  0.00  0.00    +0.000 C 
BRANCH  14  17
ATOM     17  C   UNL     1      46.007   2.921   7.983  0.00  0.00    +0.000 A 
ATOM     18  C   UNL     1      46.506   3.644   6.882  0.00  0.00    +0.000 A 
ATOM     19  C   UNL     1      47.386   3.063   5.963  0.00  0.00    +0.000 A 
ATOM     20  C   UNL     1      47.778   1.737   6.111  0.00  0.00    +0.000 A 
ATOM     21  C   UNL     1      47.272   0.989   7.167  0.00  0.00    +0.000 A 
ATOM     22  C   UNL     1      46.392   1.571   8.086  0.00  0.00    +0.000 A 
ENDBRANCH  14  17
ENDBRANCH  13  14
ENDBRANCH  12  13
ENDBRANCH   4  12
TORSDOF 5
ENDMDL
MODEL 5
REMARK VINA RESULT:    -6.262      2.650      7.987
REMARK INTER + INTRA:          -8.727
REMARK INTER:                  -8.109
REMARK INTRA:                  -0.618
REMARK UNBOUND:                -0.635
REMARK  Name = 
REMARK  8 active torsions:
REMARK  status: ('A' for Active; 'I' for Inactive)
REMARK    1  A    between atoms: C_1  and  N_2
REMARK    2  A    between atoms: C_3  and  C_5
REMARK    3  A    between atoms: C_8  and  O_9
REMARK    4  A    between atoms: O_9  and  C_10
REMARK    5  A    between atoms: C_10  and  C_11
REMARK    6  A    between atoms: C_11  and  C_12
REMARK    7  A    between atoms: C_11  and  C_13
REMARK    8  A    between atoms: C_11  and  C_14
REMARK                            x       y       z     vdW  Elec       q    Type
REMARK                         _______ _______ _______ _____ _____    ______ ____
ROOT
ATOM      1  C   UNL     1      45.385   3.869  12.107  0.00  0.00    +0.000 A 
ATOM      2  C   UNL     1      45.495   5.239  12.341  0.00  0.00    +0.000 A 
ATOM      3  C   UNL     1      46.340   5.691  13.361  0.00  0.00    +0.000 A 
ATOM      4  C   UNL     1      47.041   4.753  14.105  0.00  0.00    +0.000 A 
ATOM      5  N   UNL     1      46.952   3.422  13.899  0.00  0.00    +0.000 NA
ATOM      6  C   UNL     1      46.119   3.010  12.915  0.00  0.00    +0.000 A 
ENDROOT
BRANCH   1   9
ATOM      7  C   UNL     1      44.307   1.879   9.081  0.00  0.00    +0.000 C 
ATOM      8  N   UNL     1      45.106   2.524  10.093  0.00  0.00    +0.000 N 
ATOM      9  C   UNL     1      44.501   3.274  11.079  0.00  0.00    +0.000 C 
ATOM     10  O   UNL     1      43.290   3.439  11.151  0.00  0.00    +0.000 OA
ATOM     11  H   UNL     1      46.082   2.270  10.171  0.00  0.00    +0.000 HD
ENDBRANCH   1   9
BRANCH   4  12
ATOM     12  O   UNL     1      47.863   5.234  15.106  0.00  0.00    +0.000 OA
BRANCH  12  13
ATOM     13  C   UNL     1      47.540   4.700  16.402  0.00  0.00    +0.000 C 
BRANCH  13  14
ATOM     14  C   UNL     1      48.584   5.153  17.459  0.00  0.00    +0.000 C 
ATOM     15  C   UNL     1      49.103   6.566  17.097  0.00  0.00    +0.000 C 
ATOM     16  C   UNL     1      47.890   5.296  18.837  0.00  0.00    +0.000 C 
BRANCH  14  17
ATOM     17  C   UNL     1      49.730   4.116  17.493  0.00  0.00    +0.000 A 
ATOM     18  C   UNL     1      51.041   4.483  17.852  0.00  0.00    +0.000 A 
ATOM     19  C   UNL     1      52.076   3.543  17.905  0.00  0.00    +0.000 A 
ATOM     20  C   UNL     1      51.831   2.213  17.583  0.00  0.00    +0.000 A 
ATOM     21  C   UNL     1      50.554   1.829  17.191  0.00  0.00    +0.000 A 
ATOM     22  C   UNL     1      49.520   2.770  17.138  0.00  0.00    +0.000 A 
ENDBRANCH  14  17
ENDBRANCH  13  14
ENDBRANCH  12  13
ENDBRANCH   4  12
TORSDOF 5
ENDMDL
MODEL 6
REMARK VINA RESULT:    -5.632      2.950      3.321
REMARK INTER + INTRA:          -7.913
REMARK INTER:                  -7.220
REMARK INTRA:                  -0.693
REMARK UNBOUND:                -0.635
REMARK  Name = 
REMARK  8 active torsions:
REMARK  status: ('A' for Active; 'I' for Inactive)
REMARK    1  A    between atoms: C_1  and  N_2
REMARK    2  A    between atoms: C_3  and  C_5
REMARK    3  A    between atoms: C_8  and  O_9
REMARK    4  A    between atoms: O_9  and  C_10
REMARK    5  A    between atoms: C_10  and  C_11
REMARK    6  A    between atoms: C_11  and  C_12
REMARK    7  A    between atoms: C_11  and  C_13
REMARK    8  A    between atoms: C_11  and  C_14
REMARK                            x       y       z     vdW  Elec       q    Type
REMARK                         _______ _______ _______ _____ _____    ______ ____
ROOT
ATOM      1  C   UNL     1      50.430   8.078  13.257  0.00  0.00    +0.000 A 
ATOM      2  C   UNL     1      49.655   8.036  12.098  0.00  0.00    +0.000 A 
ATOM      3  C   UNL     1      48.361   7.507  12.163  0.00  0.00    +0.000 A 
ATOM      4  C   UNL     1      47.895   7.042  13.384  0.00  0.00    +0.000 A 
ATOM      5  N   UNL     1      48.625   7.071  14.519  0.00  0.00    +0.000 NA
ATOM      6  C   UNL     1      49.878   7.576  14.427  0.00  0.00    +0.000 A 
ENDROOT
BRANCH   1   9
ATOM      7  C   UNL     1      54.111   8.258  14.092  0.00  0.00    +0.000 C 
ATOM      8  N   UNL     1      52.728   7.851  14.035  0.00  0.00    +0.000 N 
ATOM      9  C   UNL     1      51.820   8.585  13.303  0.00  0.00    +0.000 C 
ATOM     10  O   UNL     1      52.119   9.598  12.683  0.00  0.00    +0.000 OA
ATOM     11  H   UNL     1      52.481   6.934  14.383  0.00  0.00    +0.000 HD
ENDBRANCH   1   9
BRANCH   4  12
ATOM     12  O   UNL     1      46.615   6.523  13.411  0.00  0.00    +0.000 OA
BRANCH  12  13
ATOM     13  C   UNL     1      46.435   5.428  12.496  0.00  0.00    +0.000 C 
BRANCH  13  14
ATOM     14  C   UNL     1      45.017   5.467  11.864  0.00  0.00    +0.000 C 
ATOM     15  C   UNL     1      43.969   5.040  12.921  0.00  0.00    +0.000 C 
ATOM     16  C   UNL     1      44.665   6.928  11.485  0.00  0.00    +0.000 C 
BRANCH  14  17
ATOM     17  C   UNL     1      45.001   4.531  10.634  0.00  0.00    +0.000 A 
ATOM     18  C   UNL     1      45.423   4.978   9.367  0.00  0.00    +0.000 A 
ATOM     19  C   UNL     1      45.429   4.126   8.256  0.00  0.00    +0.000 A 
ATOM     20  C   UNL     1      44.997   2.811   8.379  0.00  0.00    +0.000 A 
ATOM     21  C   UNL     1      44.541   2.354   9.610  0.00  0.00    +0.000 A 
ATOM     22  C   UNL     1      44.535   3.206  10.720  0.00  0.00    +0.000 A 
ENDBRANCH  14  17
ENDBRANCH  13  14
ENDBRANCH  12  13
ENDBRANCH   4  12
TORSDOF 5
ENDMDL
MODEL 7
REMARK VINA RESULT:    -5.451      2.936      7.605
REMARK INTER + INTRA:          -7.679
REMARK INTER:                  -6.925
REMARK INTRA:                  -0.754
REMARK UNBOUND:                -0.635
REMARK  Name = 
REMARK  8 active torsions:
REMARK  status: ('A' for Active; 'I' for Inactive)
REMARK    1  A    between atoms: C_1  and  N_2
REMARK    2  A    between atoms: C_3  and  C_5
REMARK    3  A    between atoms: C_8  and  O_9
REMARK    4  A    between atoms: O_9  and  C_10
REMARK    5  A    between atoms: C_10  and  C_11
REMARK    6  A    between atoms: C_11  and  C_12
REMARK    7  A    between atoms: C_11  and  C_13
REMARK    8  A    between atoms: C_11  and  C_14
REMARK                            x       y       z     vdW  Elec       q    Type
REMARK                         _______ _______ _______ _____ _____    ______ ____
ROOT
ATOM      1  C   UNL     1      44.842   4.244  11.357  0.00  0.00    +0.000 A 
ATOM      2  C   UNL     1      45.185   4.231  12.709  0.00  0.00    +0.000 A 
ATOM      3  C   UNL     1      45.609   5.419  13.316  0.00  0.00    +0.000 A 
ATOM      4  C   UNL     1      45.673   6.570  12.545  0.00  0.00    +0.000 A 
ATOM      5  N   UNL     1      45.348   6.609  11.236  0.00  0.00    +0.000 NA
ATOM      6  C   UNL     1      44.953   5.445  10.670  0.00  0.00    +0.000 A 
ENDROOT
BRANCH   1   9
ATOM      7  C   UNL     1      44.871   1.475   8.785  0.00  0.00    +0.000 C 
ATOM      8  N   UNL     1      45.202   2.657   9.542  0.00  0.00    +0.000 N 
ATOM      9  C   UNL     1      44.411   3.045  10.603  0.00  0.00    +0.000 C 
ATOM     10  O   UNL     1      43.408   2.435  10.952  0.00  0.00    +0.000 OA
ATOM     11  H   UNL     1      46.108   3.083   9.399  0.00  0.00    +0.000 HD
ENDBRANCH   1   9
BRANCH   4  12
ATOM     12  O   UNL     1      46.100   7.724  13.175  0.00  0.00    +0.000 OA
BRANCH  12  13
ATOM     13  C   UNL     1      46.766   8.636  12.285  0.00  0.00    +0.000 C 
BRANCH  13  14
ATOM     14  C   UNL     1      48.294   8.654  12.560  0.00  0.00    +0.000 C 
ATOM     15  C   UNL     1      48.998   7.645  11.619  0.00  0.00    +0.000 C 
ATOM     16  C   UNL     1      48.866  10.046  12.191  0.00  0.00    +0.000 C 
BRANCH  14  17
ATOM     17  C   UNL     1      48.531   8.307  14.047  0.00  0.00    +0.000 A 
ATOM     18  C   UNL     1      48.288   9.247  15.067  0.00  0.00    +0.000 A 
ATOM     19  C   UNL     1      48.480   8.930  16.416  0.00  0.00    +0.000 A 
ATOM     20  C   UNL     1      48.939   7.669  16.780  0.00  0.00    +0.000 A 
ATOM     21  C   UNL     1      49.221   6.733  15.793  0.00  0.00    +0.000 A 
ATOM     22  C   UNL     1      49.028   7.051  14.444  0.00  0.00    +0.000 A 
ENDBRANCH  14  17
ENDBRANCH  13  14
ENDBRANCH  12  13
ENDBRANCH   4  12
TORSDOF 5
ENDMDL
MODEL 8
REMARK VINA RESULT:    -5.425      1.574      2.110
REMARK INTER + INTRA:          -7.645
REMARK INTER:                  -7.050
REMARK INTRA:                  -0.596
REMARK UNBOUND:                -0.635
REMARK  Name = 
REMARK  8 active torsions:
REMARK  status: ('A' for Active; 'I' for Inactive)
REMARK    1  A    between atoms: C_1  and  N_2
REMARK    2  A    between atoms: C_3  and  C_5
REMARK    3  A    between atoms: C_8  and  O_9
REMARK    4  A    between atoms: O_9  and  C_10
REMARK    5  A    between atoms: C_10  and  C_11
REMARK    6  A    between atoms: C_11  and  C_12
REMARK    7  A    between atoms: C_11  and  C_13
REMARK    8  A    between atoms: C_11  and  C_14
REMARK                            x       y       z     vdW  Elec       q    Type
REMARK                         _______ _______ _______ _____ _____    ______ ____
ROOT
ATOM      1  C   UNL     1      49.446   6.800  15.240  0.00  0.00    +0.000 A 
ATOM      2  C   UNL     1      48.404   5.902  15.472  0.00  0.00    +0.000 A 
ATOM      3  C   UNL     1      47.493   5.634  14.443  0.00  0.00    +0.000 A 
ATOM      4  C   UNL     1      47.663   6.275  13.225  0.00  0.00    +0.000 A 
ATOM      5  N   UNL     1      48.661   7.148  12.975  0.00  0.00    +0.000 NA
ATOM      6  C   UNL     1      49.520   7.400  13.990  0.00  0.00    +0.000 A 
ENDROOT
BRANCH   1   9
ATOM      7  C   UNL     1      50.888   8.211  18.435  0.00  0.00    +0.000 C 
ATOM      8  N   UNL     1      49.978   7.841  17.378  0.00  0.00    +0.000 N 
ATOM      9  C   UNL     1      50.447   7.185  16.260  0.00  0.00    +0.000 C 
ATOM     10  O   UNL     1      51.625   6.892  16.096  0.00  0.00    +0.000 OA
ATOM     11  H   UNL     1      48.985   7.906  17.553  0.00  0.00    +0.000 HD
ENDBRANCH   1   9
BRANCH   4  12
ATOM     12  O   UNL     1      46.744   5.989  12.233  0.00  0.00    +0.000 OA
BRANCH  12  13
ATOM     13  C   UNL     1      45.757   5.026  12.644  0.00  0.00    +0.000 C 
BRANCH  13  14
ATOM     14  C   UNL     1      44.503   5.102  11.731  0.00  0.00    +0.000 C 
ATOM     15  C   UNL     1      43.279   4.533  12.490  0.00  0.00    +0.000 C 
ATOM     16  C   UNL     1      44.168   6.587  11.441  0.00  0.00    +0.000 C 
BRANCH  14  17
ATOM     17  C   UNL     1      44.789   4.309  10.435  0.00  0.00    +0.000 A 
ATOM     18  C   UNL     1      44.423   2.956  10.307  0.00  0.00    +0.000 A 
ATOM     19  C   UNL     1      44.661   2.242   9.127  0.00  0.00    +0.000 A 
ATOM     20  C   UNL     1      45.288   2.858   8.051  0.00  0.00    +0.000 A 
ATOM     21  C   UNL     1      45.693   4.183   8.162  0.00  0.00    +0.000 A 
ATOM     22  C   UNL     1      45.454   4.896   9.342  0.00  0.00    +0.000 A 
ENDBRANCH  14  17
ENDBRANCH  13  14
ENDBRANCH  12  13
ENDBRANCH   4  12
TORSDOF 5
ENDMDL
MODEL 9
REMARK VINA RESULT:    -5.395      2.682      7.686
REMARK INTER + INTRA:          -7.607
REMARK INTER:                  -6.832
REMARK INTRA:                  -0.775
REMARK UNBOUND:                -0.635
REMARK  Name = 
REMARK  8 active torsions:
REMARK  status: ('A' for Active; 'I' for Inactive)
REMARK    1  A    between atoms: C_1  and  N_2
REMARK    2  A    between atoms: C_3  and  C_5
REMARK    3  A    between atoms: C_8  and  O_9
REMARK    4  A    between atoms: O_9  and  C_10
REMARK    5  A    between atoms: C_10  and  C_11
REMARK    6  A    between atoms: C_11  and  C_12
REMARK    7  A    between atoms: C_11  and  C_13
REMARK    8  A    between atoms: C_11  and  C_14
REMARK                            x       y       z     vdW  Elec       q    Type
REMARK                         _______ _______ _______ _____ _____    ______ ____
ROOT
ATOM      1  C   UNL     1      45.965   5.697  12.610  0.00  0.00    +0.000 A 
ATOM      2  C   UNL     1      46.649   6.863  12.267  0.00  0.00    +0.000 A 
ATOM      3  C   UNL     1      47.833   7.182  12.943  0.00  0.00    +0.000 A 
ATOM      4  C   UNL     1      48.283   6.320  13.933  0.00  0.00    +0.000 A 
ATOM      5  N   UNL     1      47.639   5.187  14.284  0.00  0.00    +0.000 NA
ATOM      6  C   UNL     1      46.491   4.908  13.624  0.00  0.00    +0.000 A 
ENDROOT
BRANCH   1   9
ATOM      7  C   UNL     1      42.268   5.581  11.834  0.00  0.00    +0.000 C 
ATOM      8  N   UNL     1      43.544   5.908  12.423  0.00  0.00    +0.000 N 
ATOM      9  C   UNL     1      44.689   5.275  11.988  0.00  0.00    +0.000 C 
ATOM     10  O   UNL     1      44.694   4.420  11.111  0.00  0.00    +0.000 OA
ATOM     11  H   UNL     1      43.605   6.724  13.017  0.00  0.00    +0.000 HD
ENDBRANCH   1   9
BRANCH   4  12
ATOM     12  O   UNL     1      49.453   6.668  14.581  0.00  0.00    +0.000 OA
BRANCH  12  13
ATOM     13  C   UNL     1      49.232   7.518  15.721  0.00  0.00    +0.000 C 
BRANCH  13  14
ATOM     14  C   UNL     1      50.010   6.992  16.957  0.00  0.00    +0.000 C 
ATOM     15  C   UNL     1      51.522   6.932  16.627  0.00  0.00    +0.000 C 
ATOM     16  C   UNL     1      49.871   8.007  18.120  0.00  0.00    +0.000 C 
BRANCH  14  17
ATOM     17  C   UNL     1      49.453   5.601  17.335  0.00  0.00    +0.000 A 
ATOM     18  C   UNL     1      50.269   4.454  17.315  0.00  0.00    +0.000 A 
ATOM     19  C   UNL     1      49.773   3.196  17.677  0.00  0.00    +0.000 A 
ATOM     20  C   UNL     1      48.442   3.050  18.051  0.00  0.00    +0.000 A 
ATOM     21  C   UNL     1      47.604   4.158  18.044  0.00  0.00    +0.000 A 
ATOM     22  C   UNL     1      48.101   5.415  17.682  0.00  0.00    +0.000 A 
ENDBRANCH  14  17
ENDBRANCH  13  14
ENDBRANCH  12  13
ENDBRANCH   4  12
TORSDOF 5
ENDMDL
