MODEL 1
REMARK VINA RESULT:    -8.798      0.000      0.000
REMARK INTER + INTRA:         -12.952
REMARK INTER:                 -11.884
REMARK INTRA:                  -1.069
REMARK UNBOUND:                -1.069
REMARK  Name = 
REMARK  6 active torsions:
REMARK  status: ('A' for Active; 'I' for Inactive)
REMARK    1  A    between atoms: C_2  and  C_4
REMARK    2  A    between atoms: C_7  and  N_8
REMARK    3  A    between atoms: N_8  and  C_9
REMARK    4  A    between atoms: C_9  and  C_10
REMARK    5  A    between atoms: C_10  and  C_13
REMARK    6  A    between atoms: C_17  and  N_18
REMARK                            x       y       z     vdW  Elec       q    Type
REMARK                         _______ _______ _______ _____ _____    ______ ____
ROOT
ATOM      1  C   UNL     1      43.882   4.758  12.602  0.00  0.00    +0.000 C 
ATOM      2  F   UNL     1      42.986   5.431  13.382  0.00  0.00    +0.000 F 
ATOM      3  F   UNL     1      43.749   3.439  12.954  0.00  0.00    +0.000 F 
ENDROOT
BRANCH   1   4
ATOM      4  C   UNL     1      45.299   5.257  12.797  0.00  0.00    +0.000 A 
ATOM      5  C   UNL     1      45.870   6.174  11.914  0.00  0.00    +0.000 A 
ATOM      6  C   UNL     1      47.130   6.703  12.164  0.00  0.00    +0.000 A 
ATOM      7  C   UNL     1      47.812   6.348  13.328  0.00  0.00    +0.000 A 
ATOM      8  C   UNL     1      47.270   5.441  14.245  0.00  0.00    +0.000 A 
ATOM      9  C   UNL     1      46.029   4.868  13.934  0.00  0.00    +0.000 A 
BRANCH   8  10
ATOM     10  N   UNL     1      47.915   5.160  15.427  0.00  0.00    +0.000 N 
ATOM     11  C   UNL     1      47.564   4.009  16.264  0.00  0.00    +0.000 C 
ATOM     12  C   UNL     1      47.166   4.477  17.667  0.00  0.00    +0.000 C 
ATOM     13  O   UNL     1      48.188   5.297  18.259  0.00  0.00    +0.000 OA
ATOM     14  C   UNL     1      48.430   6.461  17.451  0.00  0.00    +0.000 C 
ATOM     15  C   UNL     1      48.886   6.087  16.028  0.00  0.00    +0.000 C 
ENDBRANCH   8  10
ENDBRANCH   1   4
BRANCH   1  16
ATOM     16  C   UNL     1      43.457   4.898  11.114  0.00  0.00    +0.000 C 
BRANCH  16  17
ATOM     17  N   UNL     1      43.530   3.624  10.379  0.00  0.00    +0.000 N 
ATOM     18  H   UNL     1      43.222   2.810  10.913  0.00  0.00    +0.000 HD
BRANCH  17  22
ATOM     19  C   UNL     1      46.516   2.706   7.551  0.00  0.00    +0.000 A 
ATOM     20  C   UNL     1      46.126   4.033   7.737  0.00  0.00    +0.000 A 
ATOM     21  C   UNL     1      45.148   4.351   8.684  0.00  0.00    +0.000 A 
ATOM     22  C   UNL     1      44.563   3.365   9.486  0.00  0.00    +0.000 A 
ATOM     23  C   UNL     1      44.950   2.034   9.273  0.00  0.00    +0.000 A 
ATOM     24  C   UNL     1      45.913   1.702   8.311  0.00  0.00    +0.000 A 
BRANCH  19  26
ATOM     25  N   UNL     1      47.503   3.043   5.352  0.00  0.00    +0.000 N 
ATOM     26  C   UNL     1      47.516   2.329   6.525  0.00  0.00    +0.000 C 
ATOM     27  O   UNL     1      48.336   1.447   6.714  0.00  0.00    +0.000 OA
ATOM     28  H   UNL     1      48.250   2.844   4.703  0.00  0.00    +0.000 HD
ATOM     29  H   UNL     1      47.029   3.930   5.272  0.00  0.00    +0.000 HD
ENDBRANCH  19  26
ENDBRANCH  17  22
ENDBRANCH  16  17
ENDBRANCH   1  16
TORSDOF 6
ENDMDL
MODEL 2
REMARK VINA RESULT:    -8.198      2.193      3.365
REMARK INTER + INTRA:         -12.142
REMARK INTER:                 -11.227
REMARK INTRA:                  -0.914
REMARK UNBOUND:                -1.069
REMARK  Name = 
REMARK  6 active torsions:
REMARK  status: ('A' for Active; 'I' for Inactive)
REMARK    1  A    between atoms: C_2  and  C_4
REMARK    2  A    between atoms: C_7  and  N_8
REMARK    3  A    between atoms: N_8  and  C_9
REMARK    4  A    between atoms: C_9  and  C_10
REMARK    5  A    between atoms: C_10  and  C_13
REMARK    6  A    between atoms: C_17  and  N_18
REMARK                            x       y       z     vdW  Elec       q    Type
REMARK                         _______ _______ _______ _____ _____    ______ ____
ROOT
ATOM      1  C   UNL     1      43.905   4.882  12.650  0.00  0.00    +0.000 C 
ATOM      2  F   UNL     1      42.888   5.568  13.250  0.00  0.00    +0.000 F 
ATOM      3  F   UNL     1      43.691   3.566  12.970  0.00  0.00    +0.000 F 
ENDROOT
BRANCH   1   4
ATOM      4  C   UNL     1      45.268   5.363  13.107  0.00  0.00    +0.000 A 
ATOM      5  C   UNL     1      46.026   4.626  14.016  0.00  0.00    +0.000 A 
ATOM      6  C   UNL     1      47.316   5.024  14.344  0.00  0.00    +0.000 A 
ATOM      7  C   UNL     1      47.873   6.144  13.728  0.00  0.00    +0.000 A 
ATOM      8  C   UNL     1      47.151   6.905  12.803  0.00  0.00    +0.000 A 
ATOM      9  C   UNL     1      45.827   6.523  12.543  0.00  0.00    +0.000 A 
BRANCH   8  10
ATOM     10  N   UNL     1      47.736   7.960  12.142  0.00  0.00    +0.000 N 
ATOM     11  C   UNL     1      49.031   7.848  11.465  0.00  0.00    +0.000 C 
ATOM     12  C   UNL     1      50.020   8.866  12.044  0.00  0.00    +0.000 C 
ATOM     13  O   UNL     1      49.487  10.202  11.997  0.00  0.00    +0.000 OA
ATOM     14  C   UNL     1      48.267  10.284  12.753  0.00  0.00    +0.000 C 
ATOM     15  C   UNL     1      47.191   9.324  12.209  0.00  0.00    +0.000 C 
ENDBRANCH   8  10
ENDBRANCH   1   4
BRANCH   1  16
ATOM     16  C   UNL     1      43.767   5.025  11.109  0.00  0.00    +0.000 C 
BRANCH  16  17
ATOM     17  N   UNL     1      43.616   3.728  10.429  0.00  0.00    +0.000 N 
ATOM     18  H   UNL     1      43.283   2.972  11.029  0.00  0.00    +0.000 HD
BRANCH  17  22
ATOM     19  C   UNL     1      46.476   2.630   7.535  0.00  0.00    +0.000 A 
ATOM     20  C   UNL     1      45.894   1.648   8.337  0.00  0.00    +0.000 A 
ATOM     21  C   UNL     1      44.932   1.999   9.289  0.00  0.00    +0.000 A 
ATOM     22  C   UNL     1      44.506   3.323   9.441  0.00  0.00    +0.000 A 
ATOM     23  C   UNL     1      45.115   4.302   8.643  0.00  0.00    +0.000 A 
ATOM     24  C   UNL     1      46.096   3.964   7.700  0.00  0.00    +0.000 A 
BRANCH  19  26
ATOM     25  N   UNL     1      47.503   2.983   5.357  0.00  0.00    +0.000 N 
ATOM     26  C   UNL     1      47.530   2.300   6.548  0.00  0.00    +0.000 C 
ATOM     27  O   UNL     1      48.404   1.483   6.783  0.00  0.00    +0.000 OA
ATOM     28  H   UNL     1      48.281   2.821   4.735  0.00  0.00    +0.000 HD
ATOM     29  H   UNL     1      46.971   3.832   5.241  0.00  0.00    +0.000 HD
ENDBRANCH  19  26
ENDBRANCH  17  22
ENDBRANCH  16  17
ENDBRANCH   1  16
TORSDOF 6
ENDMDL
MODEL 3
REMARK VINA RESULT:    -8.123      2.221      2.729
REMARK INTER + INTRA:         -12.040
REMARK INTER:                 -11.354
REMARK INTRA:                  -0.687
REMARK UNBOUND:                -1.069
REMARK  Name = 
REMARK  6 active torsions:
REMARK  status: ('A' for Active; 'I' for Inactive)
REMARK    1  A    between atoms: C_2  and  C_4
REMARK    2  A    between atoms: C_7  and  N_8
REMARK    3  A    between atoms: N_8  and  C_9
REMARK    4  A    between atoms: C_9  and  C_10
REMARK    5  A    between atoms: C_10  and  C_13
REMARK    6  A    between atoms: C_17  and  N_18
REMARK                            x       y       z     vdW  Elec       q    Type
REMARK                         _______ _______ _______ _____ _____    ______ ____
ROOT
ATOM      1  C   UNL     1      44.406   4.419  12.415  0.00  0.00    +0.000 C 
ATOM      2  F   UNL     1      43.816   4.341  13.644  0.00  0.00    +0.000 F 
ATOM      3  F   UNL     1      45.255   3.344  12.353  0.00  0.00    +0.000 F 
ENDROOT
BRANCH   1   4
ATOM      4  C   UNL     1      45.137   5.731  12.213  0.00  0.00    +0.000 A 
ATOM      5  C   UNL     1      44.443   6.905  11.915  0.00  0.00    +0.000 A 
ATOM      6  C   UNL     1      45.114   8.119  11.837  0.00  0.00    +0.000 A 
ATOM      7  C   UNL     1      46.482   8.173  12.101  0.00  0.00    +0.000 A 
ATOM      8  C   UNL     1      47.212   7.022  12.415  0.00  0.00    +0.000 A 
ATOM      9  C   UNL     1      46.526   5.799  12.416  0.00  0.00    +0.000 A 
BRANCH   8  10
ATOM     10  N   UNL     1      48.544   7.097  12.751  0.00  0.00    +0.000 N 
ATOM     11  C   UNL     1      49.014   7.024  14.137  0.00  0.00    +0.000 C 
ATOM     12  C   UNL     1      49.807   8.286  14.494  0.00  0.00    +0.000 C 
ATOM     13  O   UNL     1      50.877   8.517  13.561  0.00  0.00    +0.000 OA
ATOM     14  C   UNL     1      50.358   8.677  12.230  0.00  0.00    +0.000 C 
ATOM     15  C   UNL     1      49.582   7.429  11.764  0.00  0.00    +0.000 C 
ENDBRANCH   8  10
ENDBRANCH   1   4
BRANCH   1  16
ATOM     16  C   UNL     1      43.318   4.228  11.323  0.00  0.00    +0.000 C 
BRANCH  16  17
ATOM     17  N   UNL     1      43.758   4.689   9.995  0.00  0.00    +0.000 N 
ATOM     18  H   UNL     1      43.018   5.094   9.421  0.00  0.00    +0.000 HD
BRANCH  17  22
ATOM     19  C   UNL     1      46.521   2.488   7.697  0.00  0.00    +0.000 A 
ATOM     20  C   UNL     1      46.535   3.882   7.643  0.00  0.00    +0.000 A 
ATOM     21  C   UNL     1      45.634   4.623   8.414  0.00  0.00    +0.000 A 
ATOM     22  C   UNL     1      44.725   3.997   9.276  0.00  0.00    +0.000 A 
ATOM     23  C   UNL     1      44.709   2.595   9.302  0.00  0.00    +0.000 A 
ATOM     24  C   UNL     1      45.594   1.843   8.518  0.00  0.00    +0.000 A 
BRANCH  19  26
ATOM     25  N   UNL     1      48.533   2.304   6.340  0.00  0.00    +0.000 N 
ATOM     26  C   UNL     1      47.431   1.672   6.860  0.00  0.00    +0.000 C 
ATOM     27  O   UNL     1      47.236   0.485   6.660  0.00  0.00    +0.000 OA
ATOM     28  H   UNL     1      49.195   1.716   5.855  0.00  0.00    +0.000 HD
ATOM     29  H   UNL     1      48.858   3.191   6.697  0.00  0.00    +0.000 HD
ENDBRANCH  19  26
ENDBRANCH  17  22
ENDBRANCH  16  17
ENDBRANCH   1  16
TORSDOF 6
ENDMDL
MODEL 4
REMARK VINA RESULT:    -7.703      1.269      1.973
REMARK INTER + INTRA:         -11.473
REMARK INTER:                 -10.690
REMARK INTRA:                  -0.783
REMARK UNBOUND:                -1.069
REMARK  Name = 
REMARK  6 active torsions:
REMARK  status: ('A' for Active; 'I' for Inactive)
REMARK    1  A    between atoms: C_2  and  C_4
REMARK    2  A    between atoms: C_7  and  N_8
REMARK    3  A    between atoms: N_8  and  C_9
REMARK    4  A    between atoms: C_9  and  C_10
REMARK    5  A    between atoms: C_10  and  C_13
REMARK    6  A    between atoms: C_17  and  N_18
REMARK                            x       y       z     vdW  Elec       q    Type
REMARK                         _______ _______ _______ _____ _____    ______ ____
ROOT
ATOM      1  C   UNL     1      45.462   4.611  12.724  0.00  0.00    +0.000 C 
ATOM      2  F   UNL     1      44.612   4.494  13.786  0.00  0.00    +0.000 F 
ATOM      3  F   UNL     1      45.807   3.326  12.394  0.00  0.00    +0.000 F 
ENDROOT
BRANCH   1   4
ATOM      4  C   UNL     1      46.675   5.458  13.051  0.00  0.00    +0.000 A 
ATOM      5  C   UNL     1      47.208   6.348  12.118  0.00  0.00    +0.000 A 
ATOM      6  C   UNL     1      48.253   7.194  12.467  0.00  0.00    +0.000 A 
ATOM      7  C   UNL     1      48.745   7.185  13.772  0.00  0.00    +0.000 A 
ATOM      8  C   UNL     1      48.231   6.317  14.741  0.00  0.00    +0.000 A 
ATOM      9  C   UNL     1      47.226   5.423  14.344  0.00  0.00    +0.000 A 
BRANCH   8  10
ATOM     10  N   UNL     1      48.669   6.372  16.044  0.00  0.00    +0.000 N 
ATOM     11  C   UNL     1      49.077   7.623  16.689  0.00  0.00    +0.000 C 
ATOM     12  C   UNL     1      50.524   7.514  17.184  0.00  0.00    +0.000 C 
ATOM     13  O   UNL     1      50.704   6.370  18.037  0.00  0.00    +0.000 OA
ATOM     14  C   UNL     1      50.381   5.160  17.331  0.00  0.00    +0.000 C 
ATOM     15  C   UNL     1      48.922   5.158  16.836  0.00  0.00    +0.000 C 
ENDBRANCH   8  10
ENDBRANCH   1   4
BRANCH   1  16
ATOM     16  C   UNL     1      44.684   5.217  11.524  0.00  0.00    +0.000 C 
BRANCH  16  17
ATOM     17  N   UNL     1      44.108   4.188  10.641  0.00  0.00    +0.000 N 
ATOM     18  H   UNL     1      43.499   3.519  11.113  0.00  0.00    +0.000 HD
BRANCH  17  22
ATOM     19  C   UNL     1      46.502   2.673   7.522  0.00  0.00    +0.000 A 
ATOM     20  C   UNL     1      45.894   1.791   8.415  0.00  0.00    +0.000 A 
ATOM     21  C   UNL     1      45.084   2.282   9.444  0.00  0.00    +0.000 A 
ATOM     22  C   UNL     1      44.837   3.652   9.587  0.00  0.00    +0.000 A 
ATOM     23  C   UNL     1      45.473   4.527   8.694  0.00  0.00    +0.000 A 
ATOM     24  C   UNL     1      46.304   4.047   7.673  0.00  0.00    +0.000 A 
BRANCH  19  26
ATOM     25  N   UNL     1      47.425   2.916   5.283  0.00  0.00    +0.000 N 
ATOM     26  C   UNL     1      47.402   2.191   6.449  0.00  0.00    +0.000 C 
ATOM     27  O   UNL     1      48.117   1.213   6.594  0.00  0.00    +0.000 OA
ATOM     28  H   UNL     1      48.112   2.635   4.599  0.00  0.00    +0.000 HD
ATOM     29  H   UNL     1      47.059   3.855   5.231  0.00  0.00    +0.000 HD
ENDBRANCH  19  26
ENDBRANCH  17  22
ENDBRANCH  16  17
ENDBRANCH   1  16
TORSDOF 6
ENDMDL
MODEL 5
REMARK VINA RESULT:    -7.225      1.940      7.712
REMARK INTER + INTRA:         -10.828
REMARK INTER:                  -9.861
REMARK INTRA:                  -0.967
REMARK UNBOUND:                -1.069
REMARK  Name = 
REMARK  6 active torsions:
REMARK  status: ('A' for Active; 'I' for Inactive)
REMARK    1  A    between atoms: C_2  and  C_4
REMARK    2  A    between atoms: C_7  and  N_8
REMARK    3  A    between atoms: N_8  and  C_9
REMARK    4  A    between atoms: C_9  and  C_10
REMARK    5  A    between atoms: C_10  and  C_13
REMARK    6  A    between atoms: C_17  and  N_18
REMARK                            x       y       z     vdW  Elec       q    Type
REMARK                         _______ _______ _______ _____ _____    ______ ____
ROOT
ATOM      1  C   UNL     1      45.735   7.237  12.105  0.00  0.00    +0.000 C 
ATOM      2  F   UNL     1      45.360   7.798  13.293  0.00  0.00    +0.000 F 
ATOM      3  F   UNL     1      45.484   8.197  11.158  0.00  0.00    +0.000 F 
ENDROOT
BRANCH   1   4
ATOM      4  C   UNL     1      44.990   5.949  11.819  0.00  0.00    +0.000 A 
ATOM      5  C   UNL     1      43.916   5.544  12.613  0.00  0.00    +0.000 A 
ATOM      6  C   UNL     1      43.177   4.417  12.277  0.00  0.00    +0.000 A 
ATOM      7  C   UNL     1      43.482   3.710  11.114  0.00  0.00    +0.000 A 
ATOM      8  C   UNL     1      44.542   4.089  10.285  0.00  0.00    +0.000 A 
ATOM      9  C   UNL     1      45.318   5.187  10.685  0.00  0.00    +0.000 A 
BRANCH   8  10
ATOM     10  N   UNL     1      44.784   3.433   9.100  0.00  0.00    +0.000 N 
ATOM     11  C   UNL     1      44.697   1.975   8.972  0.00  0.00    +0.000 C 
ATOM     12  C   UNL     1      46.035   1.407   8.487  0.00  0.00    +0.000 C 
ATOM     13  O   UNL     1      46.468   2.043   7.272  0.00  0.00    +0.000 OA
ATOM     14  C   UNL     1      46.629   3.457   7.473  0.00  0.00    +0.000 C 
ATOM     15  C   UNL     1      45.315   4.126   7.917  0.00  0.00    +0.000 C 
ENDBRANCH   8  10
ENDBRANCH   1   4
BRANCH   1  16
ATOM     16  C   UNL     1      47.267   6.985  12.131  0.00  0.00    +0.000 C 
BRANCH  16  17
ATOM     17  N   UNL     1      47.853   7.172  13.469  0.00  0.00    +0.000 N 
ATOM     18  H   UNL     1      48.687   7.759  13.487  0.00  0.00    +0.000 HD
BRANCH  17  22
ATOM     19  C   UNL     1      47.764   4.203  16.458  0.00  0.00    +0.000 A 
ATOM     20  C   UNL     1      47.077   3.997  15.261  0.00  0.00    +0.000 A 
ATOM     21  C   UNL     1      47.113   4.969  14.256  0.00  0.00    +0.000 A 
ATOM     22  C   UNL     1      47.856   6.146  14.406  0.00  0.00    +0.000 A 
ATOM     23  C   UNL     1      48.524   6.347  15.622  0.00  0.00    +0.000 A 
ATOM     24  C   UNL     1      48.477   5.389  16.644  0.00  0.00    +0.000 A 
BRANCH  19  26
ATOM     25  N   UNL     1      48.782   3.182  18.418  0.00  0.00    +0.000 N 
ATOM     26  C   UNL     1      47.711   3.215  17.561  0.00  0.00    +0.000 C 
ATOM     27  O   UNL     1      46.751   2.482  17.727  0.00  0.00    +0.000 OA
ATOM     28  H   UNL     1      48.691   2.575  19.220  0.00  0.00    +0.000 HD
ATOM     29  H   UNL     1      49.451   3.936  18.467  0.00  0.00    +0.000 HD
ENDBRANCH  19  26
ENDBRANCH  17  22
ENDBRANCH  16  17
ENDBRANCH   1  16
TORSDOF 6
ENDMDL
MODEL 6
REMARK VINA RESULT:    -6.603      4.038      8.289
REMARK INTER + INTRA:          -9.987
REMARK INTER:                  -9.211
REMARK INTRA:                  -0.776
REMARK UNBOUND:                -1.069
REMARK  Name = 
REMARK  6 active torsions:
REMARK  status: ('A' for Active; 'I' for Inactive)
REMARK    1  A    between atoms: C_2  and  C_4
REMARK    2  A    between atoms: C_7  and  N_8
REMARK    3  A    between atoms: N_8  and  C_9
REMARK    4  A    between atoms: C_9  and  C_10
REMARK    5  A    between atoms: C_10  and  C_13
REMARK    6  A    between atoms: C_17  and  N_18
REMARK                            x       y       z     vdW  Elec       q    Type
REMARK                         _______ _______ _______ _____ _____    ______ ____
ROOT
ATOM      1  C   UNL     1      48.718   6.654  15.398  0.00  0.00    +0.000 C 
ATOM      2  F   UNL     1      48.509   7.816  16.083  0.00  0.00    +0.000 F 
ATOM      3  F   UNL     1      50.073   6.591  15.199  0.00  0.00    +0.000 F 
ENDROOT
BRANCH   1   4
ATOM      4  C   UNL     1      47.950   6.613  14.092  0.00  0.00    +0.000 A 
ATOM      5  C   UNL     1      48.429   7.260  12.952  0.00  0.00    +0.000 A 
ATOM      6  C   UNL     1      47.769   7.126  11.736  0.00  0.00    +0.000 A 
ATOM      7  C   UNL     1      46.646   6.304  11.645  0.00  0.00    +0.000 A 
ATOM      8  C   UNL     1      46.140   5.630  12.761  0.00  0.00    +0.000 A 
ATOM      9  C   UNL     1      46.781   5.839  13.990  0.00  0.00    +0.000 A 
BRANCH   8  10
ATOM     10  N   UNL     1      45.080   4.760  12.643  0.00  0.00    +0.000 N 
ATOM     11  C   UNL     1      45.224   3.408  12.097  0.00  0.00    +0.000 C 
ATOM     12  C   UNL     1      44.308   3.228  10.882  0.00  0.00    +0.000 C 
ATOM     13  O   UNL     1      42.943   3.552  11.200  0.00  0.00    +0.000 OA
ATOM     14  C   UNL     1      42.838   4.916  11.641  0.00  0.00    +0.000 C 
ATOM     15  C   UNL     1      43.693   5.180  12.895  0.00  0.00    +0.000 C 
ENDBRANCH   8  10
ENDBRANCH   1   4
BRANCH   1  16
ATOM     16  C   UNL     1      48.315   5.458  16.303  0.00  0.00    +0.000 C 
BRANCH  16  17
ATOM     17  N   UNL     1      49.255   5.244  17.416  0.00  0.00    +0.000 N 
ATOM     18  H   UNL     1      49.633   6.101  17.820  0.00  0.00    +0.000 HD
BRANCH  17  22
ATOM     19  C   UNL     1      51.985   2.042  17.637  0.00  0.00    +0.000 A 
ATOM     20  C   UNL     1      50.652   1.790  17.310  0.00  0.00    +0.000 A 
ATOM     21  C   UNL     1      49.742   2.847  17.218  0.00  0.00    +0.000 A 
ATOM     22  C   UNL     1      50.142   4.174  17.416  0.00  0.00    +0.000 A 
ATOM     23  C   UNL     1      51.480   4.408  17.764  0.00  0.00    +0.000 A 
ATOM     24  C   UNL     1      52.396   3.354  17.880  0.00  0.00    +0.000 A 
BRANCH  19  26
ATOM     25  N   UNL     1      52.505  -0.234  18.324  0.00  0.00    +0.000 N 
ATOM     26  C   UNL     1      52.966   0.942  17.787  0.00  0.00    +0.000 C 
ATOM     27  O   UNL     1      54.126   1.055  17.427  0.00  0.00    +0.000 OA
ATOM     28  H   UNL     1      53.156  -1.005  18.331  0.00  0.00    +0.000 HD
ATOM     29  H   UNL     1      51.519  -0.445  18.381  0.00  0.00    +0.000 HD
ENDBRANCH  19  26
ENDBRANCH  17  22
ENDBRANCH  16  17
ENDBRANCH   1  16
TORSDOF 6
ENDMDL
MODEL 7
REMARK VINA RESULT:    -6.517      3.297      4.865
REMARK INTER + INTRA:          -9.871
REMARK INTER:                  -8.704
REMARK INTRA:                  -1.167
REMARK UNBOUND:                -1.069
REMARK  Name = 
REMARK  6 active torsions:
REMARK  status: ('A' for Active; 'I' for Inactive)
REMARK    1  A    between atoms: C_2  and  C_4
REMARK    2  A    between atoms: C_7  and  N_8
REMARK    3  A    between atoms: N_8  and  C_9
REMARK    4  A    between atoms: C_9  and  C_10
REMARK    5  A    between atoms: C_10  and  C_13
REMARK    6  A    between atoms: C_17  and  N_18
REMARK                            x       y       z     vdW  Elec       q    Type
REMARK                         _______ _______ _______ _____ _____    ______ ____
ROOT
ATOM      1  C   UNL     1      48.636   7.735  13.026  0.00  0.00    +0.000 C 
ATOM      2  F   UNL     1      48.798   6.474  12.529  0.00  0.00    +0.000 F 
ATOM      3  F   UNL     1      49.619   8.485  12.436  0.00  0.00    +0.000 F 
ENDROOT
BRANCH   1   4
ATOM      4  C   UNL     1      48.726   7.769  14.539  0.00  0.00    +0.000 A 
ATOM      5  C   UNL     1      48.626   8.971  15.240  0.00  0.00    +0.000 A 
ATOM      6  C   UNL     1      48.604   8.976  16.630  0.00  0.00    +0.000 A 
ATOM      7  C   UNL     1      48.639   7.769  17.328  0.00  0.00    +0.000 A 
ATOM      8  C   UNL     1      48.727   6.542  16.662  0.00  0.00    +0.000 A 
ATOM      9  C   UNL     1      48.820   6.568  15.263  0.00  0.00    +0.000 A 
BRANCH   8  10
ATOM     10  N   UNL     1      48.680   5.355  17.356  0.00  0.00    +0.000 N 
ATOM     11  C   UNL     1      49.781   4.892  18.205  0.00  0.00    +0.000 C 
ATOM     12  C   UNL     1      50.276   3.523  17.728  0.00  0.00    +0.000 C 
ATOM     13  O   UNL     1      49.201   2.571  17.652  0.00  0.00    +0.000 OA
ATOM     14  C   UNL     1      48.191   3.025  16.736  0.00  0.00    +0.000 C 
ATOM     15  C   UNL     1      47.596   4.380  17.164  0.00  0.00    +0.000 C 
ENDBRANCH   8  10
ENDBRANCH   1   4
BRANCH   1  16
ATOM     16  C   UNL     1      47.265   8.289  12.551  0.00  0.00    +0.000 C 
BRANCH  16  17
ATOM     17  N   UNL     1      46.128   7.677  13.258  0.00  0.00    +0.000 N 
ATOM     18  H   UNL     1      46.164   7.766  14.274  0.00  0.00    +0.000 HD
BRANCH  17  22
ATOM     19  C   UNL     1      44.495   4.118  11.700  0.00  0.00    +0.000 A 
ATOM     20  C   UNL     1      45.244   4.076  12.877  0.00  0.00    +0.000 A 
ATOM     21  C   UNL     1      45.777   5.253  13.411  0.00  0.00    +0.000 A 
ATOM     22  C   UNL     1      45.550   6.496  12.808  0.00  0.00    +0.000 A 
ATOM     23  C   UNL     1      44.813   6.519  11.615  0.00  0.00    +0.000 A 
ATOM     24  C   UNL     1      44.293   5.342  11.059  0.00  0.00    +0.000 A 
BRANCH  19  26
ATOM     25  N   UNL     1      44.645   2.372  10.012  0.00  0.00    +0.000 N 
ATOM     26  C   UNL     1      43.954   2.885  11.082  0.00  0.00    +0.000 C 
ATOM     27  O   UNL     1      42.960   2.327  11.514  0.00  0.00    +0.000 OA
ATOM     28  H   UNL     1      44.324   1.481   9.663  0.00  0.00    +0.000 HD
ATOM     29  H   UNL     1      45.593   2.649   9.806  0.00  0.00    +0.000 HD
ENDBRANCH  19  26
ENDBRANCH  17  22
ENDBRANCH  16  17
ENDBRANCH   1  16
TORSDOF 6
ENDMDL
MODEL 8
REMARK VINA RESULT:    -6.302      3.757      7.783
REMARK INTER + INTRA:          -9.581
REMARK INTER:                  -8.431
REMARK INTRA:                  -1.150
REMARK UNBOUND:                -1.069
REMARK  Name = 
REMARK  6 active torsions:
REMARK  status: ('A' for Active; 'I' for Inactive)
REMARK    1  A    between atoms: C_2  and  C_4
REMARK    2  A    between atoms: C_7  and  N_8
REMARK    3  A    between atoms: N_8  and  C_9
REMARK    4  A    between atoms: C_9  and  C_10
REMARK    5  A    between atoms: C_10  and  C_13
REMARK    6  A    between atoms: C_17  and  N_18
REMARK                            x       y       z     vdW  Elec       q    Type
REMARK                         _______ _______ _______ _____ _____    ______ ____
ROOT
ATOM      1  C   UNL     1      48.751   8.614  12.540  0.00  0.00    +0.000 C 
ATOM      2  F   UNL     1      49.432   9.605  11.894  0.00  0.00    +0.000 F 
ATOM      3  F   UNL     1      49.317   7.443  12.104  0.00  0.00    +0.000 F 
ENDROOT
BRANCH   1   4
ATOM      4  C   UNL     1      47.263   8.664  12.258  0.00  0.00    +0.000 A 
ATOM      5  C   UNL     1      46.595   9.881  12.117  0.00  0.00    +0.000 A 
ATOM      6  C   UNL     1      45.254   9.912  11.755  0.00  0.00    +0.000 A 
ATOM      7  C   UNL     1      44.581   8.720  11.488  0.00  0.00    +0.000 A 
ATOM      8  C   UNL     1      45.216   7.480  11.607  0.00  0.00    +0.000 A 
ATOM      9  C   UNL     1      46.549   7.472  12.043  0.00  0.00    +0.000 A 
BRANCH   8  10
ATOM     10  N   UNL     1      44.567   6.316  11.265  0.00  0.00    +0.000 N 
ATOM     11  C   UNL     1      43.106   6.201  11.252  0.00  0.00    +0.000 C 
ATOM     12  C   UNL     1      42.656   5.082  12.197  0.00  0.00    +0.000 C 
ATOM     13  O   UNL     1      43.310   3.838  11.890  0.00  0.00    +0.000 OA
ATOM     14  C   UNL     1      44.736   3.976  12.008  0.00  0.00    +0.000 C 
ATOM     15  C   UNL     1      45.288   5.052  11.053  0.00  0.00    +0.000 C 
ENDBRANCH   8  10
ENDBRANCH   1   4
BRANCH   1  16
ATOM     16  C   UNL     1      49.020   8.732  14.065  0.00  0.00    +0.000 C 
BRANCH  16  17
ATOM     17  N   UNL     1      49.837   7.623  14.586  0.00  0.00    +0.000 N 
ATOM     18  H   UNL     1      50.518   7.252  13.924  0.00  0.00    +0.000 HD
BRANCH  17  22
ATOM     19  C   UNL     1      48.229   4.583  17.021  0.00  0.00    +0.000 A 
ATOM     20  C   UNL     1      49.392   5.243  17.420  0.00  0.00    +0.000 A 
ATOM     21  C   UNL     1      49.925   6.265  16.628  0.00  0.00    +0.000 A 
ATOM     22  C   UNL     1      49.298   6.672  15.444  0.00  0.00    +0.000 A 
ATOM     23  C   UNL     1      48.143   5.984  15.046  0.00  0.00    +0.000 A 
ATOM     24  C   UNL     1      47.612   4.944  15.822  0.00  0.00    +0.000 A 
BRANCH  19  26
ATOM     25  N   UNL     1      48.322   3.125  18.968  0.00  0.00    +0.000 N 
ATOM     26  C   UNL     1      47.663   3.466  17.813  0.00  0.00    +0.000 C 
ATOM     27  O   UNL     1      46.642   2.888  17.480  0.00  0.00    +0.000 OA
ATOM     28  H   UNL     1      47.874   2.431  19.548  0.00  0.00    +0.000 HD
ATOM     29  H   UNL     1      48.996   3.741  19.400  0.00  0.00    +0.000 HD
ENDBRANCH  19  26
ENDBRANCH  17  22
ENDBRANCH  16  17
ENDBRANCH   1  16
TORSDOF 6
ENDMDL
