MODEL 1
REMARK VINA RESULT:    -7.869      0.000      0.000
REMARK INTER + INTRA:         -10.807
REMARK INTER:                 -10.399
REMARK INTRA:                  -0.408
REMARK UNBOUND:                -0.408
REMARK  Name = 
REMARK  6 active torsions:
REMARK  status: ('A' for Active; 'I' for Inactive)
REMARK    1  A    between atoms: C_2  and  C_4
REMARK    2  A    between atoms: C_7  and  N_8
REMARK    3  A    between atoms: N_8  and  CA_9
REMARK    4  A    between atoms: CA_9  and  C_10
REMARK    5  A    between atoms: CA_9  and  C_12
REMARK    6  A    between atoms: C_10  and  O_11
REMARK                            x       y       z     vdW  Elec       q    Type
REMARK                         _______ _______ _______ _____ _____    ______ ____
ROOT
ATOM      1  N   UNL     1      43.807   3.601  10.553  0.00  0.00    +0.000 N 
ATOM      2  H   UNL     1      42.870   3.298  10.284  0.00  0.00    +0.000 HD
ENDROOT
BRANCH   1   6
ATOM      3  C   UNL     1      46.364   2.692   7.457  0.00  0.00    +0.000 A 
ATOM      4  C   UNL     1      45.968   1.714   8.354  0.00  0.00    +0.000 A 
ATOM      5  N   UNL     1      45.149   1.977   9.412  0.00  0.00    +0.000 NA
ATOM      6  C   UNL     1      44.713   3.248   9.540  0.00  0.00    +0.000 A 
ATOM      7  C   UNL     1      45.087   4.208   8.583  0.00  0.00    +0.000 A 
ATOM      8  N   UNL     1      45.934   3.976   7.547  0.00  0.00    +0.000 NA
BRANCH   3  10
ATOM      9  N   UNL     1      47.278   3.175   5.265  0.00  0.00    +0.000 N 
ATOM     10  C   UNL     1      47.324   2.362   6.365  0.00  0.00    +0.000 C 
ATOM     11  O   UNL     1      48.118   1.437   6.454  0.00  0.00    +0.000 OA
ATOM     12  H   UNL     1      47.933   3.026   4.512  0.00  0.00    +0.000 HD
ATOM     13  H   UNL     1      46.634   3.956   5.238  0.00  0.00    +0.000 HD
ENDBRANCH   3  10
ENDBRANCH   1   6
BRANCH   1  14
ATOM     14  CA  UNL     1      43.744   5.046  10.877  0.00  0.00    +0.000 C 
BRANCH  14  15
ATOM     15  C   UNL     1      44.979   5.422  11.717  0.00  0.00    +0.000 A 
ATOM     16  C   UNL     1      45.763   6.534  11.351  0.00  0.00    +0.000 A 
ATOM     17  C   UNL     1      46.895   6.899  12.087  0.00  0.00    +0.000 A 
ATOM     18  C   UNL     1      47.248   6.175  13.219  0.00  0.00    +0.000 A 
ATOM     19 CL   UNL     1      48.648   6.611  14.118  0.00  0.00    +0.000 Cl
ATOM     20  C   UNL     1      46.468   5.098  13.629  0.00  0.00    +0.000 A 
ATOM     21  C   UNL     1      45.336   4.734  12.891  0.00  0.00    +0.000 A 
ENDBRANCH  14  15
BRANCH  14  22
ATOM     22  C   UNL     1      42.398   5.272  11.628  0.00  0.00    +0.000 C 
BRANCH  22  23
ATOM     23  O   UNL     1      42.083   6.675  11.693  0.00  0.00    +0.000 OA
ATOM     24  H   UNL     1      41.856   6.882  12.619  0.00  0.00    +0.000 HD
ENDBRANCH  22  23
ENDBRANCH  14  22
ENDBRANCH   1  14
TORSDOF 6
ENDMDL
MODEL 2
REMARK VINA RESULT:    -7.251      1.702      2.098
REMARK INTER + INTRA:          -9.990
REMARK INTER:                  -9.964
REMARK INTRA:                  -0.026
REMARK UNBOUND:                -0.408
REMARK  Name = 
REMARK  6 active torsions:
REMARK  status: ('A' for Active; 'I' for Inactive)
REMARK    1  A    between atoms: C_2  and  C_4
REMARK    2  A    between atoms: C_7  and  N_8
REMARK    3  A    between atoms: N_8  and  CA_9
REMARK    4  A    between atoms: CA_9  and  C_10
REMARK    5  A    between atoms: CA_9  and  C_12
REMARK    6  A    between atoms: C_10  and  O_11
REMARK                            x       y       z     vdW  Elec       q    Type
REMARK                         _______ _______ _______ _____ _____    ______ ____
ROOT
ATOM      1  N   UNL     1      43.800   4.629  10.110  0.00  0.00    +0.000 N 
ATOM      2  H   UNL     1      43.716   5.567   9.716  0.00  0.00    +0.000 HD
ENDROOT
BRANCH   1   6
ATOM      3  C   UNL     1      46.472   2.602   7.723  0.00  0.00    +0.000 A 
ATOM      4  C   UNL     1      45.602   1.911   8.551  0.00  0.00    +0.000 A 
ATOM      5  N   UNL     1      44.723   2.542   9.381  0.00  0.00    +0.000 NA
ATOM      6  C   UNL     1      44.719   3.891   9.348  0.00  0.00    +0.000 A 
ATOM      7  C   UNL     1      45.576   4.564   8.458  0.00  0.00    +0.000 A 
ATOM      8  N   UNL     1      46.485   3.957   7.654  0.00  0.00    +0.000 NA
BRANCH   3  10
ATOM      9  N   UNL     1      48.573   2.568   6.514  0.00  0.00    +0.000 N 
ATOM     10  C   UNL     1      47.465   1.860   6.895  0.00  0.00    +0.000 C 
ATOM     11  O   UNL     1      47.312   0.685   6.592  0.00  0.00    +0.000 OA
ATOM     12  H   UNL     1      49.299   2.106   5.988  0.00  0.00    +0.000 HD
ATOM     13  H   UNL     1      48.687   3.529   6.813  0.00  0.00    +0.000 HD
ENDBRANCH   3  10
ENDBRANCH   1   6
BRANCH   1  14
ATOM     14  CA  UNL     1      44.128   4.767  11.549  0.00  0.00    +0.000 C 
BRANCH  14  15
ATOM     15  C   UNL     1      44.973   6.038  11.748  0.00  0.00    +0.000 A 
ATOM     16  C   UNL     1      46.342   5.929  12.061  0.00  0.00    +0.000 A 
ATOM     17  C   UNL     1      47.137   7.063  12.255  0.00  0.00    +0.000 A 
ATOM     18  C   UNL     1      46.583   8.329  12.113  0.00  0.00    +0.000 A 
ATOM     19 CL   UNL     1      47.554   9.726  12.366  0.00  0.00    +0.000 Cl
ATOM     20  C   UNL     1      45.245   8.469  11.760  0.00  0.00    +0.000 A 
ATOM     21  C   UNL     1      44.451   7.333  11.567  0.00  0.00    +0.000 A 
ENDBRANCH  14  15
BRANCH  14  22
ATOM     22  C   UNL     1      44.874   3.462  11.959  0.00  0.00    +0.000 C 
BRANCH  22  23
ATOM     23  O   UNL     1      43.951   2.497  12.496  0.00  0.00    +0.000 OA
ATOM     24  H   UNL     1      43.601   2.860  13.332  0.00  0.00    +0.000 HD
ENDBRANCH  22  23
ENDBRANCH  14  22
ENDBRANCH   1  14
TORSDOF 6
ENDMDL
MODEL 3
REMARK VINA RESULT:    -6.907      3.991      6.469
REMARK INTER + INTRA:          -9.535
REMARK INTER:                  -9.027
REMARK INTRA:                  -0.508
REMARK UNBOUND:                -0.408
REMARK  Name = 
REMARK  6 active torsions:
REMARK  status: ('A' for Active; 'I' for Inactive)
REMARK    1  A    between atoms: C_2  and  C_4
REMARK    2  A    between atoms: C_7  and  N_8
REMARK    3  A    between atoms: N_8  and  CA_9
REMARK    4  A    between atoms: CA_9  and  C_10
REMARK    5  A    between atoms: CA_9  and  C_12
REMARK    6  A    between atoms: C_10  and  O_11
REMARK                            x       y       z     vdW  Elec       q    Type
REMARK                         _______ _______ _______ _____ _____    ______ ____
ROOT
ATOM      1  N   UNL     1      44.820   4.966  11.486  0.00  0.00    +0.000 N 
ATOM      2  H   UNL     1      43.895   5.295  11.765  0.00  0.00    +0.000 HD
ENDROOT
BRANCH   1   6
ATOM      3  C   UNL     1      47.645   5.858  14.344  0.00  0.00    +0.000 A 
ATOM      4  C   UNL     1      46.797   4.774  14.506  0.00  0.00    +0.000 A 
ATOM      5  N   UNL     1      45.826   4.462  13.601  0.00  0.00    +0.000 NA
ATOM      6  C   UNL     1      45.737   5.250  12.509  0.00  0.00    +0.000 A 
ATOM      7  C   UNL     1      46.647   6.310  12.346  0.00  0.00    +0.000 A 
ATOM      8  N   UNL     1      47.593   6.663  13.253  0.00  0.00    +0.000 NA
BRANCH   3  10
ATOM      9  N   UNL     1      48.238   5.950  16.692  0.00  0.00    +0.000 N 
ATOM     10  C   UNL     1      48.636   6.197  15.405  0.00  0.00    +0.000 C 
ATOM     11  O   UNL     1      49.743   6.645  15.144  0.00  0.00    +0.000 OA
ATOM     12  H   UNL     1      48.882   6.119  17.450  0.00  0.00    +0.000 HD
ATOM     13  H   UNL     1      47.329   5.543  16.873  0.00  0.00    +0.000 HD
ENDBRANCH   3  10
ENDBRANCH   1   6
BRANCH   1  14
ATOM     14  CA  UNL     1      44.703   3.537  11.111  0.00  0.00    +0.000 C 
BRANCH  14  15
ATOM     15  C   UNL     1      45.275   3.345   9.695  0.00  0.00    +0.000 A 
ATOM     16  C   UNL     1      45.648   4.470   8.931  0.00  0.00    +0.000 A 
ATOM     17  C   UNL     1      46.164   4.332   7.639  0.00  0.00    +0.000 A 
ATOM     18  C   UNL     1      46.342   3.066   7.095  0.00  0.00    +0.000 A 
ATOM     19 CL   UNL     1      46.962   2.893   5.500  0.00  0.00    +0.000 Cl
ATOM     20  C   UNL     1      46.024   1.936   7.842  0.00  0.00    +0.000 A 
ATOM     21  C   UNL     1      45.507   2.075   9.135  0.00  0.00    +0.000 A 
ENDBRANCH  14  15
BRANCH  14  22
ATOM     22  C   UNL     1      43.192   3.174  11.219  0.00  0.00    +0.000 C 
BRANCH  22  23
ATOM     23  O   UNL     1      43.026   1.856  11.775  0.00  0.00    +0.000 OA
ATOM     24  H   UNL     1      42.812   1.962  12.721  0.00  0.00    +0.000 HD
ENDBRANCH  22  23
ENDBRANCH  14  22
ENDBRANCH   1  14
TORSDOF 6
ENDMDL
MODEL 4
REMARK VINA RESULT:    -6.875      3.886      6.639
REMARK INTER + INTRA:          -9.493
REMARK INTER:                  -8.965
REMARK INTRA:                  -0.528
REMARK UNBOUND:                -0.408
REMARK  Name = 
REMARK  6 active torsions:
REMARK  status: ('A' for Active; 'I' for Inactive)
REMARK    1  A    between atoms: C_2  and  C_4
REMARK    2  A    between atoms: C_7  and  N_8
REMARK    3  A    between atoms: N_8  and  CA_9
REMARK    4  A    between atoms: CA_9  and  C_10
REMARK    5  A    between atoms: CA_9  and  C_12
REMARK    6  A    between atoms: C_10  and  O_11
REMARK                            x       y       z     vdW  Elec       q    Type
REMARK                         _______ _______ _______ _____ _____    ______ ____
ROOT
ATOM      1  N   UNL     1      45.495   5.648  11.363  0.00  0.00    +0.000 N 
ATOM      2  H   UNL     1      44.922   6.489  11.439  0.00  0.00    +0.000 HD
ENDROOT
BRANCH   1   6
ATOM      3  C   UNL     1      47.302   4.965  14.999  0.00  0.00    +0.000 A 
ATOM      4  C   UNL     1      47.622   6.088  14.253  0.00  0.00    +0.000 A 
ATOM      5  N   UNL     1      47.072   6.337  13.030  0.00  0.00    +0.000 NA
ATOM      6  C   UNL     1      46.171   5.441  12.576  0.00  0.00    +0.000 A 
ATOM      7  C   UNL     1      45.825   4.339  13.379  0.00  0.00    +0.000 A 
ATOM      8  N   UNL     1      46.390   4.052  14.580  0.00  0.00    +0.000 NA
BRANCH   3  10
ATOM      9  N   UNL     1      47.191   4.302  17.327  0.00  0.00    +0.000 N 
ATOM     10  C   UNL     1      47.993   4.706  16.294  0.00  0.00    +0.000 C 
ATOM     11  O   UNL     1      49.204   4.824  16.421  0.00  0.00    +0.000 OA
ATOM     12  H   UNL     1      47.608   4.071  18.216  0.00  0.00    +0.000 HD
ATOM     13  H   UNL     1      46.197   4.179  17.179  0.00  0.00    +0.000 HD
ENDBRANCH   3  10
ENDBRANCH   1   6
BRANCH   1  14
ATOM     14  CA  UNL     1      44.619   4.536  10.922  0.00  0.00    +0.000 C 
BRANCH  14  15
ATOM     15  C   UNL     1      45.248   3.867   9.687  0.00  0.00    +0.000 A 
ATOM     16  C   UNL     1      45.240   2.463   9.570  0.00  0.00    +0.000 A 
ATOM     17  C   UNL     1      45.808   1.822   8.464  0.00  0.00    +0.000 A 
ATOM     18  C   UNL     1      46.372   2.575   7.442  0.00  0.00    +0.000 A 
ATOM     19 CL   UNL     1      47.086   1.790   6.088  0.00  0.00    +0.000 Cl
ATOM     20  C   UNL     1      46.356   3.964   7.509  0.00  0.00    +0.000 A 
ATOM     21  C   UNL     1      45.787   4.604   8.616  0.00  0.00    +0.000 A 
ENDBRANCH  14  15
BRANCH  14  22
ATOM     22  C   UNL     1      43.221   5.161  10.639  0.00  0.00    +0.000 C 
BRANCH  22  23
ATOM     23  O   UNL     1      43.228   6.572  10.926  0.00  0.00    +0.000 OA
ATOM     24  H   UNL     1      42.612   7.001  10.303  0.00  0.00    +0.000 HD
ENDBRANCH  22  23
ENDBRANCH  14  22
ENDBRANCH   1  14
TORSDOF 6
ENDMDL
MODEL 5
REMARK VINA RESULT:    -6.080      3.736      5.066
REMARK INTER + INTRA:          -8.442
REMARK INTER:                  -7.987
REMARK INTRA:                  -0.455
REMARK UNBOUND:                -0.408
REMARK  Name = 
REMARK  6 active torsions:
REMARK  status: ('A' for Active; 'I' for Inactive)
REMARK    1  A    between atoms: C_2  and  C_4
REMARK    2  A    between atoms: C_7  and  N_8
REMARK    3  A    between atoms: N_8  and  CA_9
REMARK    4  A    between atoms: CA_9  and  C_10
REMARK    5  A    between atoms: CA_9  and  C_12
REMARK    6  A    between atoms: C_10  and  O_11
REMARK                            x       y       z     vdW  Elec       q    Type
REMARK                         _______ _______ _______ _____ _____    ______ ____
ROOT
ATOM      1  N   UNL     1      46.284   5.529  14.125  0.00  0.00    +0.000 N 
ATOM      2  H   UNL     1      46.036   6.519  14.091  0.00  0.00    +0.000 HD
ENDROOT
BRANCH   1   6
ATOM      3  C   UNL     1      44.912   3.877  10.613  0.00  0.00    +0.000 A 
ATOM      4  C   UNL     1      44.881   3.151  11.793  0.00  0.00    +0.000 A 
ATOM      5  N   UNL     1      45.355   3.647  12.972  0.00  0.00    +0.000 NA
ATOM      6  C   UNL     1      45.843   4.904  12.948  0.00  0.00    +0.000 A 
ATOM      7  C   UNL     1      45.812   5.637  11.748  0.00  0.00    +0.000 A 
ATOM      8  N   UNL     1      45.383   5.149  10.556  0.00  0.00    +0.000 NA
BRANCH   3  10
ATOM      9  N   UNL     1      44.100   4.125   8.343  0.00  0.00    +0.000 N 
ATOM     10  C   UNL     1      44.452   3.254   9.339  0.00  0.00    +0.000 C 
ATOM     11  O   UNL     1      44.413   2.042   9.183  0.00  0.00    +0.000 OA
ATOM     12  H   UNL     1      43.821   3.762   7.444  0.00  0.00    +0.000 HD
ATOM     13  H   UNL     1      44.178   5.124   8.492  0.00  0.00    +0.000 HD
ENDBRANCH   3  10
ENDBRANCH   1   6
BRANCH   1  14
ATOM     14  CA  UNL     1      47.739   5.432  14.393  0.00  0.00    +0.000 C 
BRANCH  14  15
ATOM     15  C   UNL     1      47.949   5.101  15.882  0.00  0.00    +0.000 A 
ATOM     16  C   UNL     1      48.685   5.982  16.699  0.00  0.00    +0.000 A 
ATOM     17  C   UNL     1      48.901   5.709  18.054  0.00  0.00    +0.000 A 
ATOM     18  C   UNL     1      48.362   4.561  18.623  0.00  0.00    +0.000 A 
ATOM     19 CL   UNL     1      48.639   4.213  20.284  0.00  0.00    +0.000 Cl
ATOM     20  C   UNL     1      47.594   3.695  17.851  0.00  0.00    +0.000 A 
ATOM     21  C   UNL     1      47.380   3.970  16.496  0.00  0.00    +0.000 A 
ENDBRANCH  14  15
BRANCH  14  22
ATOM     22  C   UNL     1      48.357   6.798  13.974  0.00  0.00    +0.000 C 
BRANCH  22  23
ATOM     23  O   UNL     1      49.413   6.604  13.014  0.00  0.00    +0.000 OA
ATOM     24  H   UNL     1      49.509   7.435  12.512  0.00  0.00    +0.000 HD
ENDBRANCH  22  23
ENDBRANCH  14  22
ENDBRANCH   1  14
TORSDOF 6
ENDMDL
MODEL 6
REMARK VINA RESULT:    -5.878      3.391      4.862
REMARK INTER + INTRA:          -8.175
REMARK INTER:                  -7.638
REMARK INTRA:                  -0.537
REMARK UNBOUND:                -0.408
REMARK  Name = 
REMARK  6 active torsions:
REMARK  status: ('A' for Active; 'I' for Inactive)
REMARK    1  A    between atoms: C_2  and  C_4
REMARK    2  A    between atoms: C_7  and  N_8
REMARK    3  A    between atoms: N_8  and  CA_9
REMARK    4  A    between atoms: CA_9  and  C_10
REMARK    5  A    between atoms: CA_9  and  C_12
REMARK    6  A    between atoms: C_10  and  O_11
REMARK                            x       y       z     vdW  Elec       q    Type
REMARK                         _______ _______ _______ _____ _____    ______ ____
ROOT
ATOM      1  N   UNL     1      45.259   7.696  13.050  0.00  0.00    +0.000 N 
ATOM      2  H   UNL     1      44.442   8.267  13.269  0.00  0.00    +0.000 HD
ENDROOT
BRANCH   1   6
ATOM      3  C   UNL     1      44.183   3.981  11.640  0.00  0.00    +0.000 A 
ATOM      4  C   UNL     1      43.876   5.125  10.920  0.00  0.00    +0.000 A 
ATOM      5  N   UNL     1      44.185   6.376  11.364  0.00  0.00    +0.000 NA
ATOM      6  C   UNL     1      44.833   6.458  12.545  0.00  0.00    +0.000 A 
ATOM      7  C   UNL     1      45.179   5.278  13.228  0.00  0.00    +0.000 A 
ATOM      8  N   UNL     1      44.846   4.026  12.823  0.00  0.00    +0.000 NA
BRANCH   3  10
ATOM      9  N   UNL     1      44.423   2.172  10.046  0.00  0.00    +0.000 N 
ATOM     10  C   UNL     1      43.751   2.645  11.141  0.00  0.00    +0.000 C 
ATOM     11  O   UNL     1      42.868   1.999  11.687  0.00  0.00    +0.000 OA
ATOM     12  H   UNL     1      44.204   1.254   9.689  0.00  0.00    +0.000 HD
ATOM     13  H   UNL     1      45.175   2.715   9.639  0.00  0.00    +0.000 HD
ENDBRANCH   3  10
ENDBRANCH   1   6
BRANCH   1  14
ATOM     14  CA  UNL     1      46.140   8.483  12.155  0.00  0.00    +0.000 C 
BRANCH  14  15
ATOM     15  C   UNL     1      47.589   8.378  12.665  0.00  0.00    +0.000 A 
ATOM     16  C   UNL     1      47.898   8.763  13.985  0.00  0.00    +0.000 A 
ATOM     17  C   UNL     1      49.204   8.687  14.478  0.00  0.00    +0.000 A 
ATOM     18  C   UNL     1      50.222   8.199  13.668  0.00  0.00    +0.000 A 
ATOM     19 CL   UNL     1      51.833   8.118  14.266  0.00  0.00    +0.000 Cl
ATOM     20  C   UNL     1      49.940   7.769  12.376  0.00  0.00    +0.000 A 
ATOM     21  C   UNL     1      48.632   7.847  11.884  0.00  0.00    +0.000 A 
ENDBRANCH  14  15
BRANCH  14  22
ATOM     22  C   UNL     1      45.590   9.940  12.162  0.00  0.00    +0.000 C 
BRANCH  22  23
ATOM     23  O   UNL     1      44.239   9.970  12.659  0.00  0.00    +0.000 OA
ATOM     24  H   UNL     1      43.905   9.053  12.655  0.00  0.00    +0.000 HD
ENDBRANCH  22  23
ENDBRANCH  14  22
ENDBRANCH   1  14
TORSDOF 6
ENDMDL
MODEL 7
REMARK VINA RESULT:    -5.427      3.847      5.668
REMARK INTER + INTRA:          -7.579
REMARK INTER:                  -7.106
REMARK INTRA:                  -0.473
REMARK UNBOUND:                -0.408
REMARK  Name = 
REMARK  6 active torsions:
REMARK  status: ('A' for Active; 'I' for Inactive)
REMARK    1  A    between atoms: C_2  and  C_4
REMARK    2  A    between atoms: C_7  and  N_8
REMARK    3  A    between atoms: N_8  and  CA_9
REMARK    4  A    between atoms: CA_9  and  C_10
REMARK    5  A    between atoms: CA_9  and  C_12
REMARK    6  A    between atoms: C_10  and  O_11
REMARK                            x       y       z     vdW  Elec       q    Type
REMARK                         _______ _______ _______ _____ _____    ______ ____
ROOT
ATOM      1  N   UNL     1      46.883   6.977  13.645  0.00  0.00    +0.000 N 
ATOM      2  H   UNL     1      46.828   7.861  13.137  0.00  0.00    +0.000 HD
ENDROOT
BRANCH   1   6
ATOM      3  C   UNL     1      44.891   3.956  11.683  0.00  0.00    +0.000 A 
ATOM      4  C   UNL     1      45.298   5.091  11.000  0.00  0.00    +0.000 A 
ATOM      5  N   UNL     1      45.931   6.130  11.617  0.00  0.00    +0.000 NA
ATOM      6  C   UNL     1      46.171   5.996  12.938  0.00  0.00    +0.000 A 
ATOM      7  C   UNL     1      45.796   4.809  13.593  0.00  0.00    +0.000 A 
ATOM      8  N   UNL     1      45.129   3.782  13.007  0.00  0.00    +0.000 NA
BRANCH   3  10
ATOM      9  N   UNL     1      44.752   2.347   9.875  0.00  0.00    +0.000 N 
ATOM     10  C   UNL     1      44.134   2.887  10.971  0.00  0.00    +0.000 C 
ATOM     11  O   UNL     1      43.040   2.499  11.354  0.00  0.00    +0.000 OA
ATOM     12  H   UNL     1      44.306   1.591   9.378  0.00  0.00    +0.000 HD
ATOM     13  H   UNL     1      45.675   2.665   9.606  0.00  0.00    +0.000 HD
ENDBRANCH   3  10
ENDBRANCH   1   6
BRANCH   1  14
ATOM     14  CA  UNL     1      48.313   6.678  13.889  0.00  0.00    +0.000 C 
BRANCH  14  15
ATOM     15  C   UNL     1      48.569   6.672  15.407  0.00  0.00    +0.000 A 
ATOM     16  C   UNL     1      48.886   7.875  16.070  0.00  0.00    +0.000 A 
ATOM     17  C   UNL     1      49.131   7.904  17.446  0.00  0.00    +0.000 A 
ATOM     18  C   UNL     1      49.036   6.735  18.191  0.00  0.00    +0.000 A 
ATOM     19 CL   UNL     1      49.352   6.764  19.882  0.00  0.00    +0.000 Cl
ATOM     20  C   UNL     1      48.682   5.541  17.572  0.00  0.00    +0.000 A 
ATOM     21  C   UNL     1      48.438   5.513  16.195  0.00  0.00    +0.000 A 
ENDBRANCH  14  15
BRANCH  14  22
ATOM     22  C   UNL     1      49.128   7.768  13.132  0.00  0.00    +0.000 C 
BRANCH  22  23
ATOM     23  O   UNL     1      50.519   7.402  13.058  0.00  0.00    +0.000 OA
ATOM     24  H   UNL     1      50.567   6.516  12.652  0.00  0.00    +0.000 HD
ENDBRANCH  22  23
ENDBRANCH  14  22
ENDBRANCH   1  14
TORSDOF 6
ENDMDL
MODEL 8
REMARK VINA RESULT:    -5.397      3.968      6.056
REMARK INTER + INTRA:          -7.539
REMARK INTER:                  -7.052
REMARK INTRA:                  -0.487
REMARK UNBOUND:                -0.408
REMARK  Name = 
REMARK  6 active torsions:
REMARK  status: ('A' for Active; 'I' for Inactive)
REMARK    1  A    between atoms: C_2  and  C_4
REMARK    2  A    between atoms: C_7  and  N_8
REMARK    3  A    between atoms: N_8  and  CA_9
REMARK    4  A    between atoms: CA_9  and  C_10
REMARK    5  A    between atoms: CA_9  and  C_12
REMARK    6  A    between atoms: C_10  and  O_11
REMARK                            x       y       z     vdW  Elec       q    Type
REMARK                         _______ _______ _______ _____ _____    ______ ____
ROOT
ATOM      1  N   UNL     1      48.112   6.367  13.254  0.00  0.00    +0.000 N 
ATOM      2  H   UNL     1      48.340   5.961  14.163  0.00  0.00    +0.000 HD
ENDROOT
BRANCH   1   6
ATOM      3  C   UNL     1      44.551   4.676  12.070  0.00  0.00    +0.000 A 
ATOM      4  C   UNL     1      45.273   5.479  11.201  0.00  0.00    +0.000 A 
ATOM      5  N   UNL     1      46.440   6.085  11.562  0.00  0.00    +0.000 NA
ATOM      6  C   UNL     1      46.884   5.849  12.814  0.00  0.00    +0.000 A 
ATOM      7  C   UNL     1      46.158   4.987  13.655  0.00  0.00    +0.000 A 
ATOM      8  N   UNL     1      44.974   4.407  13.330  0.00  0.00    +0.000 NA
BRANCH   3  10
ATOM      9  N   UNL     1      42.170   4.954  11.710  0.00  0.00    +0.000 N 
ATOM     10  C   UNL     1      43.241   4.104  11.644  0.00  0.00    +0.000 C 
ATOM     11  O   UNL     1      43.133   2.955  11.241  0.00  0.00    +0.000 OA
ATOM     12  H   UNL     1      41.266   4.636  11.395  0.00  0.00    +0.000 HD
ATOM     13  H   UNL     1      42.300   5.911  12.014  0.00  0.00    +0.000 HD
ENDBRANCH   3  10
ENDBRANCH   1   6
BRANCH   1  14
ATOM     14  CA  UNL     1      48.174   7.842  13.385  0.00  0.00    +0.000 C 
BRANCH  14  15
ATOM     15  C   UNL     1      49.317   8.373  12.502  0.00  0.00    +0.000 A 
ATOM     16  C   UNL     1      50.106   7.472  11.760  0.00  0.00    +0.000 A 
ATOM     17  C   UNL     1      51.157   7.919  10.953  0.00  0.00    +0.000 A 
ATOM     18  C   UNL     1      51.422   9.279  10.852  0.00  0.00    +0.000 A 
ATOM     19 CL   UNL     1      52.724   9.833   9.874  0.00  0.00    +0.000 Cl
ATOM     20  C   UNL     1      50.633  10.196  11.539  0.00  0.00    +0.000 A 
ATOM     21  C   UNL     1      49.582   9.746  12.346  0.00  0.00    +0.000 A 
ENDBRANCH  14  15
BRANCH  14  22
ATOM     22  C   UNL     1      48.375   8.144  14.900  0.00  0.00    +0.000 C 
BRANCH  22  23
ATOM     23  O   UNL     1      47.375   9.065  15.371  0.00  0.00    +0.000 OA
ATOM     24  H   UNL     1      47.712   9.968  15.217  0.00  0.00    +0.000 HD
ENDBRANCH  22  23
ENDBRANCH  14  22
ENDBRANCH   1  14
TORSDOF 6
ENDMDL
MODEL 9
REMARK VINA RESULT:    -5.088      3.439      5.192
REMARK INTER + INTRA:          -7.131
REMARK INTER:                  -7.050
REMARK INTRA:                  -0.081
REMARK UNBOUND:                -0.408
REMARK  Name = 
REMARK  6 active torsions:
REMARK  status: ('A' for Active; 'I' for Inactive)
REMARK    1  A    between atoms: C_2  and  C_4
REMARK    2  A    between atoms: C_7  and  N_8
REMARK    3  A    between atoms: N_8  and  CA_9
REMARK    4  A    between atoms: CA_9  and  C_10
REMARK    5  A    between atoms: CA_9  and  C_12
REMARK    6  A    between atoms: C_10  and  O_11
REMARK                            x       y       z     vdW  Elec       q    Type
REMARK                         _______ _______ _______ _____ _____    ______ ____
ROOT
ATOM      1  N   UNL     1      46.151   7.594  13.150  0.00  0.00    +0.000 N 
ATOM      2  H   UNL     1      46.208   8.314  12.429  0.00  0.00    +0.000 HD
ENDROOT
BRANCH   1   6
ATOM      3  C   UNL     1      44.604   4.248  11.318  0.00  0.00    +0.000 A 
ATOM      4  C   UNL     1      44.388   4.476  12.668  0.00  0.00    +0.000 A 
ATOM      5  N   UNL     1      44.908   5.553  13.322  0.00  0.00    +0.000 NA
ATOM      6  C   UNL     1      45.637   6.417  12.585  0.00  0.00    +0.000 A 
ATOM      7  C   UNL     1      45.794   6.189  11.206  0.00  0.00    +0.000 A 
ATOM      8  N   UNL     1      45.319   5.102  10.544  0.00  0.00    +0.000 NA
BRANCH   3  10
ATOM      9  N   UNL     1      43.414   2.145  11.503  0.00  0.00    +0.000 N 
ATOM     10  C   UNL     1      44.076   3.011  10.675  0.00  0.00    +0.000 C 
ATOM     11  O   UNL     1      44.203   2.794   9.479  0.00  0.00    +0.000 OA
ATOM     12  H   UNL     1      42.998   1.311  11.116  0.00  0.00    +0.000 HD
ATOM     13  H   UNL     1      43.294   2.372  12.483  0.00  0.00    +0.000 HD
ENDBRANCH   3  10
ENDBRANCH   1   6
BRANCH   1  14
ATOM     14  CA  UNL     1      47.487   7.470  13.779  0.00  0.00    +0.000 C 
BRANCH  14  15
ATOM     15  C   UNL     1      48.527   8.161  12.878  0.00  0.00    +0.000 A 
ATOM     16  C   UNL     1      48.440   9.547  12.641  0.00  0.00    +0.000 A 
ATOM     17  C   UNL     1      49.363  10.205  11.822  0.00  0.00    +0.000 A 
ATOM     18  C   UNL     1      50.408   9.493  11.246  0.00  0.00    +0.000 A 
ATOM     19 CL   UNL     1      51.537  10.295  10.226  0.00  0.00    +0.000 Cl
ATOM     20  C   UNL     1      50.546   8.132  11.497  0.00  0.00    +0.000 A 
ATOM     21  C   UNL     1      49.620   7.475  12.316  0.00  0.00    +0.000 A 
ENDBRANCH  14  15
BRANCH  14  22
ATOM     22  C   UNL     1      47.749   5.946  13.964  0.00  0.00    +0.000 C 
BRANCH  22  23
ATOM     23  O   UNL     1      47.439   5.538  15.309  0.00  0.00    +0.000 OA
ATOM     24  H   UNL     1      48.061   5.997  15.905  0.00  0.00    +0.000 HD
ENDBRANCH  22  23
ENDBRANCH  14  22
ENDBRANCH   1  14
TORSDOF 6
ENDMDL
