MODEL 1
REMARK VINA RESULT:    -7.964      0.000      0.000
REMARK INTER + INTRA:         -11.379
REMARK INTER:                 -10.525
REMARK INTRA:                  -0.855
REMARK UNBOUND:                -0.855
REMARK  Name = 
REMARK  6 active torsions:
REMARK  status: ('A' for Active; 'I' for Inactive)
REMARK    1  A    between atoms: C_2  and  C_3
REMARK    2  A    between atoms: C_6  and  N_7
REMARK    3  A    between atoms: N_7  and  C_8
REMARK    4  A    between atoms: C_8  and  C_9
REMARK    5  A    between atoms: C_14  and  N_15
REMARK    6  A    between atoms: C_18  and  O_19
REMARK                            x       y       z     vdW  Elec       q    Type
REMARK                         _______ _______ _______ _____ _____    ______ ____
ROOT
ATOM      1  C   UNL     1      44.659   4.769  12.047  0.00  0.00    +0.000 A 
ATOM      2  C   UNL     1      45.418   3.788  12.691  0.00  0.00    +0.000 A 
ATOM      3  C   UNL     1      46.537   4.157  13.424  0.00  0.00    +0.000 A 
ATOM      4  F   UNL     1      47.271   3.210  14.024  0.00  0.00    +0.000 F 
ATOM      5  C   UNL     1      46.919   5.491  13.546  0.00  0.00    +0.000 A 
ATOM      6  C   UNL     1      46.186   6.514  12.932  0.00  0.00    +0.000 A 
ATOM      7  C   UNL     1      45.049   6.119  12.189  0.00  0.00    +0.000 A 
ENDROOT
BRANCH   6   8
ATOM      8  N   UNL     1      46.558   7.844  13.057  0.00  0.00    +0.000 N 
ATOM      9  C   UNL     1      47.952   8.236  13.272  0.00  0.00    +0.000 C 
ATOM     10  C   UNL     1      48.380   9.200  12.166  0.00  0.00    +0.000 C 
ATOM     11  C   UNL     1      47.425  10.382  12.030  0.00  0.00    +0.000 C 
ATOM     12  C   UNL     1      45.971   9.930  11.900  0.00  0.00    +0.000 C 
ATOM     13  C   UNL     1      45.583   8.941  12.999  0.00  0.00    +0.000 C 
BRANCH  11  14
ATOM     14  O   UNL     1      47.579  11.281  13.129  0.00  0.00    +0.000 OA
ATOM     15  H   UNL     1      47.985  10.806  13.873  0.00  0.00    +0.000 HD
ENDBRANCH  11  14
ENDBRANCH   6   8
BRANCH   1  16
ATOM     16  C   UNL     1      43.471   4.375  11.193  0.00  0.00    +0.000 C 
BRANCH  16  17
ATOM     17  N   UNL     1      43.710   4.683   9.794  0.00  0.00    +0.000 N 
ATOM     18  H   UNL     1      43.834   5.672   9.588  0.00  0.00    +0.000 HD
BRANCH  17  22
ATOM     19  C   UNL     1      46.537   2.642   7.609  0.00  0.00    +0.000 A 
ATOM     20  C   UNL     1      46.431   4.020   7.588  0.00  0.00    +0.000 A 
ATOM     21  N   UNL     1      45.514   4.705   8.329  0.00  0.00    +0.000 NA
ATOM     22  C   UNL     1      44.677   3.971   9.097  0.00  0.00    +0.000 A 
ATOM     23  C   UNL     1      44.789   2.577   9.089  0.00  0.00    +0.000 A 
ATOM     24  N   UNL     1      45.715   1.882   8.371  0.00  0.00    +0.000 NA
BRANCH  19  26
ATOM     25  N   UNL     1      48.342   1.444   6.168  0.00  0.00    +0.000 NA
ATOM     26  C   UNL     1      47.529   1.960   6.823  0.00  0.00    +0.000 C 
ENDBRANCH  19  26
ENDBRANCH  17  22
ENDBRANCH  16  17
ENDBRANCH   1  16
TORSDOF 6
ENDMDL
MODEL 2
REMARK VINA RESULT:    -7.653      2.658      3.665
REMARK INTER + INTRA:         -10.969
REMARK INTER:                 -10.163
REMARK INTRA:                  -0.806
REMARK UNBOUND:                -0.855
REMARK  Name = 
REMARK  6 active torsions:
REMARK  status: ('A' for Active; 'I' for Inactive)
REMARK    1  A    between atoms: C_2  and  C_3
REMARK    2  A    between atoms: C_6  and  N_7
REMARK    3  A    between atoms: N_7  and  C_8
REMARK    4  A    between atoms: C_8  and  C_9
REMARK    5  A    between atoms: C_14  and  N_15
REMARK    6  A    between atoms: C_18  and  O_19
REMARK                            x       y       z     vdW  Elec       q    Type
REMARK                         _______ _______ _______ _____ _____    ______ ____
ROOT
ATOM      1  C   UNL     1      44.698   5.606  11.904  0.00  0.00    +0.000 A 
ATOM      2  C   UNL     1      44.747   6.953  11.537  0.00  0.00    +0.000 A 
ATOM      3  C   UNL     1      45.683   7.791  12.126  0.00  0.00    +0.000 A 
ATOM      4  F   UNL     1      45.714   9.086  11.783  0.00  0.00    +0.000 F 
ATOM      5  C   UNL     1      46.589   7.318  13.071  0.00  0.00    +0.000 A 
ATOM      6  C   UNL     1      46.592   5.974  13.465  0.00  0.00    +0.000 A 
ATOM      7  C   UNL     1      45.631   5.136  12.855  0.00  0.00    +0.000 A 
ENDROOT
BRANCH   6   8
ATOM      8  N   UNL     1      47.497   5.498  14.402  0.00  0.00    +0.000 N 
ATOM      9  C   UNL     1      48.656   6.285  14.821  0.00  0.00    +0.000 C 
ATOM     10  C   UNL     1      48.622   6.465  16.338  0.00  0.00    +0.000 C 
ATOM     11  C   UNL     1      48.486   5.135  17.074  0.00  0.00    +0.000 C 
ATOM     12  C   UNL     1      47.318   4.305  16.541  0.00  0.00    +0.000 C 
ATOM     13  C   UNL     1      47.362   4.172  15.020  0.00  0.00    +0.000 C 
BRANCH  11  14
ATOM     14  O   UNL     1      49.705   4.396  17.003  0.00  0.00    +0.000 OA
ATOM     15  H   UNL     1      49.582   3.635  16.410  0.00  0.00    +0.000 HD
ENDBRANCH  11  14
ENDBRANCH   6   8
BRANCH   1  16
ATOM     16  C   UNL     1      43.642   4.693  11.315  0.00  0.00    +0.000 C 
BRANCH  16  17
ATOM     17  N   UNL     1      43.666   4.737   9.863  0.00  0.00    +0.000 N 
ATOM     18  H   UNL     1      43.629   5.672   9.462  0.00  0.00    +0.000 HD
BRANCH  17  22
ATOM     19  C   UNL     1      46.481   2.647   7.709  0.00  0.00    +0.000 A 
ATOM     20  C   UNL     1      46.366   4.023   7.646  0.00  0.00    +0.000 A 
ATOM     21  N   UNL     1      45.452   4.725   8.377  0.00  0.00    +0.000 NA
ATOM     22  C   UNL     1      44.630   4.010   9.178  0.00  0.00    +0.000 A 
ATOM     23  C   UNL     1      44.751   2.617   9.211  0.00  0.00    +0.000 A 
ATOM     24  N   UNL     1      45.673   1.906   8.505  0.00  0.00    +0.000 NA
BRANCH  19  26
ATOM     25  N   UNL     1      48.268   1.411   6.277  0.00  0.00    +0.000 NA
ATOM     26  C   UNL     1      47.469   1.947   6.933  0.00  0.00    +0.000 C 
ENDBRANCH  19  26
ENDBRANCH  17  22
ENDBRANCH  16  17
ENDBRANCH   1  16
TORSDOF 6
ENDMDL
MODEL 3
REMARK VINA RESULT:    -7.548      0.918      1.363
REMARK INTER + INTRA:         -10.829
REMARK INTER:                 -10.040
REMARK INTRA:                  -0.789
REMARK UNBOUND:                -0.855
REMARK  Name = 
REMARK  6 active torsions:
REMARK  status: ('A' for Active; 'I' for Inactive)
REMARK    1  A    between atoms: C_2  and  C_3
REMARK    2  A    between atoms: C_6  and  N_7
REMARK    3  A    between atoms: N_7  and  C_8
REMARK    4  A    between atoms: C_8  and  C_9
REMARK    5  A    between atoms: C_14  and  N_15
REMARK    6  A    between atoms: C_18  and  O_19
REMARK                            x       y       z     vdW  Elec       q    Type
REMARK                         _______ _______ _______ _____ _____    ______ ____
ROOT
ATOM      1  C   UNL     1      44.898   4.757  11.982  0.00  0.00    +0.000 A 
ATOM      2  C   UNL     1      45.484   3.760  12.767  0.00  0.00    +0.000 A 
ATOM      3  C   UNL     1      46.670   4.022  13.437  0.00  0.00    +0.000 A 
ATOM      4  F   UNL     1      47.236   3.057  14.175  0.00  0.00    +0.000 F 
ATOM      5  C   UNL     1      47.291   5.266  13.357  0.00  0.00    +0.000 A 
ATOM      6  C   UNL     1      46.740   6.304  12.594  0.00  0.00    +0.000 A 
ATOM      7  C   UNL     1      45.532   6.018  11.918  0.00  0.00    +0.000 A 
ENDROOT
BRANCH   6   8
ATOM      8  N   UNL     1      47.352   7.546  12.517  0.00  0.00    +0.000 N 
ATOM      9  C   UNL     1      46.913   8.673  13.339  0.00  0.00    +0.000 C 
ATOM     10  C   UNL     1      48.094   9.191  14.157  0.00  0.00    +0.000 C 
ATOM     11  C   UNL     1      49.306   9.505  13.285  0.00  0.00    +0.000 C 
ATOM     12  C   UNL     1      49.674   8.333  12.377  0.00  0.00    +0.000 C 
ATOM     13  C   UNL     1      48.466   7.815  11.598  0.00  0.00    +0.000 C 
BRANCH  11  14
ATOM     14  O   UNL     1      49.080  10.688  12.518  0.00  0.00    +0.000 OA
ATOM     15  H   UNL     1      49.755  10.749  11.822  0.00  0.00    +0.000 HD
ENDBRANCH  11  14
ENDBRANCH   6   8
BRANCH   1  16
ATOM     16  C   UNL     1      43.636   4.466  11.197  0.00  0.00    +0.000 C 
BRANCH  16  17
ATOM     17  N   UNL     1      43.821   4.754   9.785  0.00  0.00    +0.000 N 
ATOM     18  H   UNL     1      43.920   5.742   9.560  0.00  0.00    +0.000 HD
BRANCH  17  22
ATOM     19  C   UNL     1      46.617   2.737   7.539  0.00  0.00    +0.000 A 
ATOM     20  C   UNL     1      46.519   4.116   7.544  0.00  0.00    +0.000 A 
ATOM     21  N   UNL     1      45.612   4.792   8.305  0.00  0.00    +0.000 NA
ATOM     22  C   UNL     1      44.778   4.050   9.068  0.00  0.00    +0.000 A 
ATOM     23  C   UNL     1      44.881   2.655   9.034  0.00  0.00    +0.000 A 
ATOM     24  N   UNL     1      45.797   1.968   8.296  0.00  0.00    +0.000 NA
BRANCH  19  26
ATOM     25  N   UNL     1      48.362   1.505   6.053  0.00  0.00    +0.000 NA
ATOM     26  C   UNL     1      47.598   2.063   6.733  0.00  0.00    +0.000 C 
ENDBRANCH  19  26
ENDBRANCH  17  22
ENDBRANCH  16  17
ENDBRANCH   1  16
TORSDOF 6
ENDMDL
MODEL 4
REMARK VINA RESULT:    -7.259      3.053      4.316
REMARK INTER + INTRA:         -10.448
REMARK INTER:                  -9.832
REMARK INTRA:                  -0.617
REMARK UNBOUND:                -0.855
REMARK  Name = 
REMARK  6 active torsions:
REMARK  status: ('A' for Active; 'I' for Inactive)
REMARK    1  A    between atoms: C_2  and  C_3
REMARK    2  A    between atoms: C_6  and  N_7
REMARK    3  A    between atoms: N_7  and  C_8
REMARK    4  A    between atoms: C_8  and  C_9
REMARK    5  A    between atoms: C_14  and  N_15
REMARK    6  A    between atoms: C_18  and  O_19
REMARK                            x       y       z     vdW  Elec       q    Type
REMARK                         _______ _______ _______ _____ _____    ______ ____
ROOT
ATOM      1  C   UNL     1      45.437   4.469  12.423  0.00  0.00    +0.000 A 
ATOM      2  C   UNL     1      45.689   5.731  11.880  0.00  0.00    +0.000 A 
ATOM      3  C   UNL     1      46.586   6.583  12.510  0.00  0.00    +0.000 A 
ATOM      4  F   UNL     1      46.811   7.798  11.994  0.00  0.00    +0.000 F 
ATOM      5  C   UNL     1      47.255   6.204  13.671  0.00  0.00    +0.000 A 
ATOM      6  C   UNL     1      47.048   4.945  14.249  0.00  0.00    +0.000 A 
ATOM      7  C   UNL     1      46.131   4.091  13.594  0.00  0.00    +0.000 A 
ENDROOT
BRANCH   6   8
ATOM      8  N   UNL     1      47.717   4.561  15.401  0.00  0.00    +0.000 N 
ATOM      9  C   UNL     1      48.469   5.520  16.210  0.00  0.00    +0.000 C 
ATOM     10  C   UNL     1      47.938   5.498  17.643  0.00  0.00    +0.000 C 
ATOM     11  C   UNL     1      47.915   4.090  18.228  0.00  0.00    +0.000 C 
ATOM     12  C   UNL     1      47.199   3.101  17.308  0.00  0.00    +0.000 C 
ATOM     13  C   UNL     1      47.728   3.171  15.876  0.00  0.00    +0.000 C 
BRANCH  11  14
ATOM     14  O   UNL     1      49.240   3.644  18.515  0.00  0.00    +0.000 OA
ATOM     15  H   UNL     1      49.551   3.081  17.787  0.00  0.00    +0.000 HD
ENDBRANCH  11  14
ENDBRANCH   6   8
BRANCH   1  16
ATOM     16  C   UNL     1      44.415   3.553  11.780  0.00  0.00    +0.000 C 
BRANCH  16  17
ATOM     17  N   UNL     1      44.141   3.956  10.412  0.00  0.00    +0.000 N 
ATOM     18  H   UNL     1      43.983   4.953  10.283  0.00  0.00    +0.000 HD
BRANCH  17  22
ATOM     19  C   UNL     1      46.689   2.574   7.492  0.00  0.00    +0.000 A 
ATOM     20  C   UNL     1      46.058   1.733   8.389  0.00  0.00    +0.000 A 
ATOM     21  N   UNL     1      45.192   2.181   9.343  0.00  0.00    +0.000 NA
ATOM     22  C   UNL     1      44.974   3.515   9.394  0.00  0.00    +0.000 A 
ATOM     23  C   UNL     1      45.638   4.350   8.489  0.00  0.00    +0.000 A 
ATOM     24  N   UNL     1      46.487   3.913   7.517  0.00  0.00    +0.000 NA
BRANCH  19  26
ATOM     25  N   UNL     1      48.274   1.627   5.659  0.00  0.00    +0.000 NA
ATOM     26  C   UNL     1      47.583   2.058   6.491  0.00  0.00    +0.000 C 
ENDBRANCH  19  26
ENDBRANCH  17  22
ENDBRANCH  16  17
ENDBRANCH   1  16
TORSDOF 6
ENDMDL
MODEL 5
REMARK VINA RESULT:    -6.515      4.729      7.542
REMARK INTER + INTRA:          -9.464
REMARK INTER:                  -8.696
REMARK INTRA:                  -0.768
REMARK UNBOUND:                -0.855
REMARK  Name = 
REMARK  6 active torsions:
REMARK  status: ('A' for Active; 'I' for Inactive)
REMARK    1  A    between atoms: C_2  and  C_3
REMARK    2  A    between atoms: C_6  and  N_7
REMARK    3  A    between atoms: N_7  and  C_8
REMARK    4  A    between atoms: C_8  and  C_9
REMARK    5  A    between atoms: C_14  and  N_15
REMARK    6  A    between atoms: C_18  and  O_19
REMARK                            x       y       z     vdW  Elec       q    Type
REMARK                         _______ _______ _______ _____ _____    ______ ____
ROOT
ATOM      1  C   UNL     1      48.267   6.814  14.264  0.00  0.00    +0.000 A 
ATOM      2  C   UNL     1      48.890   7.596  13.288  0.00  0.00    +0.000 A 
ATOM      3  C   UNL     1      48.444   7.540  11.975  0.00  0.00    +0.000 A 
ATOM      4  F   UNL     1      49.057   8.279  11.041  0.00  0.00    +0.000 F 
ATOM      5  C   UNL     1      47.375   6.728  11.605  0.00  0.00    +0.000 A 
ATOM      6  C   UNL     1      46.707   5.934  12.546  0.00  0.00    +0.000 A 
ATOM      7  C   UNL     1      47.176   6.004  13.878  0.00  0.00    +0.000 A 
ENDROOT
BRANCH   6   8
ATOM      8  N   UNL     1      45.638   5.129  12.182  0.00  0.00    +0.000 N 
ATOM      9  C   UNL     1      44.876   4.368  13.172  0.00  0.00    +0.000 C 
ATOM     10  C   UNL     1      43.400   4.752  13.077  0.00  0.00    +0.000 C 
ATOM     11  C   UNL     1      42.860   4.621  11.656  0.00  0.00    +0.000 C 
ATOM     12  C   UNL     1      43.737   5.355  10.643  0.00  0.00    +0.000 C 
ATOM     13  C   UNL     1      45.210   4.976  10.785  0.00  0.00    +0.000 C 
BRANCH  11  14
ATOM     14  O   UNL     1      42.717   3.246  11.298  0.00  0.00    +0.000 OA
ATOM     15  H   UNL     1      41.782   3.063  11.106  0.00  0.00    +0.000 HD
ENDBRANCH  11  14
ENDBRANCH   6   8
BRANCH   1  16
ATOM     16  C   UNL     1      48.783   6.818  15.688  0.00  0.00    +0.000 C 
BRANCH  16  17
ATOM     17  N   UNL     1      48.196   5.736  16.459  0.00  0.00    +0.000 N 
ATOM     18  H   UNL     1      47.301   5.400  16.112  0.00  0.00    +0.000 HD
BRANCH  17  22
ATOM     19  C   UNL     1      50.610   2.523  17.342  0.00  0.00    +0.000 A 
ATOM     20  C   UNL     1      51.032   3.832  17.480  0.00  0.00    +0.000 A 
ATOM     21  N   UNL     1      50.229   4.902  17.214  0.00  0.00    +0.000 NA
ATOM     22  C   UNL     1      48.975   4.635  16.785  0.00  0.00    +0.000 A 
ATOM     23  C   UNL     1      48.575   3.303  16.634  0.00  0.00    +0.000 A 
ATOM     24  N   UNL     1      49.358   2.225  16.918  0.00  0.00    +0.000 NA
BRANCH  19  26
ATOM     25  N   UNL     1      52.213   0.557  17.921  0.00  0.00    +0.000 NA
ATOM     26  C   UNL     1      51.483   1.422  17.648  0.00  0.00    +0.000 C 
ENDBRANCH  19  26
ENDBRANCH  17  22
ENDBRANCH  16  17
ENDBRANCH   1  16
TORSDOF 6
ENDMDL
MODEL 6
REMARK VINA RESULT:    -6.212      5.125      7.659
REMARK INTER + INTRA:          -9.064
REMARK INTER:                  -8.410
REMARK INTRA:                  -0.654
REMARK UNBOUND:                -0.855
REMARK  Name = 
REMARK  6 active torsions:
REMARK  status: ('A' for Active; 'I' for Inactive)
REMARK    1  A    between atoms: C_2  and  C_3
REMARK    2  A    between atoms: C_6  and  N_7
REMARK    3  A    between atoms: N_7  and  C_8
REMARK    4  A    between atoms: C_8  and  C_9
REMARK    5  A    between atoms: C_14  and  N_15
REMARK    6  A    between atoms: C_18  and  O_19
REMARK                            x       y       z     vdW  Elec       q    Type
REMARK                         _______ _______ _______ _____ _____    ______ ____
ROOT
ATOM      1  C   UNL     1      47.189   4.847  15.072  0.00  0.00    +0.000 A 
ATOM      2  C   UNL     1      48.082   5.921  15.026  0.00  0.00    +0.000 A 
ATOM      3  C   UNL     1      48.132   6.724  13.895  0.00  0.00    +0.000 A 
ATOM      4  F   UNL     1      49.002   7.741  13.850  0.00  0.00    +0.000 F 
ATOM      5  C   UNL     1      47.301   6.493  12.802  0.00  0.00    +0.000 A 
ATOM      6  C   UNL     1      46.379   5.438  12.802  0.00  0.00    +0.000 A 
ATOM      7  C   UNL     1      46.343   4.630  13.962  0.00  0.00    +0.000 A 
ENDROOT
BRANCH   6   8
ATOM      8  N   UNL     1      45.544   5.209  11.719  0.00  0.00    +0.000 N 
ATOM      9  C   UNL     1      45.574   6.062  10.530  0.00  0.00    +0.000 C 
ATOM     10  C   UNL     1      45.849   5.201   9.298  0.00  0.00    +0.000 C 
ATOM     11  C   UNL     1      44.879   4.028   9.186  0.00  0.00    +0.000 C 
ATOM     12  C   UNL     1      44.811   3.218  10.480  0.00  0.00    +0.000 C 
ATOM     13  C   UNL     1      44.570   4.110  11.697  0.00  0.00    +0.000 C 
BRANCH  11  14
ATOM     14  O   UNL     1      43.581   4.485   8.807  0.00  0.00    +0.000 OA
ATOM     15  H   UNL     1      43.127   4.838   9.590  0.00  0.00    +0.000 HD
ENDBRANCH  11  14
ENDBRANCH   6   8
BRANCH   1  16
ATOM     16  C   UNL     1      47.167   3.925  16.275  0.00  0.00    +0.000 C 
BRANCH  16  17
ATOM     17  N   UNL     1      48.204   4.284  17.226  0.00  0.00    +0.000 N 
ATOM     18  H   UNL     1      47.870   4.493  18.164  0.00  0.00    +0.000 HD
BRANCH  17  22
ATOM     19  C   UNL     1      51.620   2.004  17.480  0.00  0.00    +0.000 A 
ATOM     20  C   UNL     1      51.587   3.340  17.834  0.00  0.00    +0.000 A 
ATOM     21  N   UNL     1      50.453   4.095  17.777  0.00  0.00    +0.000 NA
ATOM     22  C   UNL     1      49.331   3.482  17.337  0.00  0.00    +0.000 A 
ATOM     23  C   UNL     1      49.390   2.135  16.965  0.00  0.00    +0.000 A 
ATOM     24  N   UNL     1      50.511   1.363  17.039  0.00  0.00    +0.000 NA
BRANCH  19  26
ATOM     25  N   UNL     1      53.827   0.641  17.677  0.00  0.00    +0.000 NA
ATOM     26  C   UNL     1      52.834   1.239  17.569  0.00  0.00    +0.000 C 
ENDBRANCH  19  26
ENDBRANCH  17  22
ENDBRANCH  16  17
ENDBRANCH   1  16
TORSDOF 6
ENDMDL
MODEL 7
REMARK VINA RESULT:    -6.051      4.235      8.108
REMARK INTER + INTRA:          -8.851
REMARK INTER:                  -8.110
REMARK INTRA:                  -0.741
REMARK UNBOUND:                -0.855
REMARK  Name = 
REMARK  6 active torsions:
REMARK  status: ('A' for Active; 'I' for Inactive)
REMARK    1  A    between atoms: C_2  and  C_3
REMARK    2  A    between atoms: C_6  and  N_7
REMARK    3  A    between atoms: N_7  and  C_8
REMARK    4  A    between atoms: C_8  and  C_9
REMARK    5  A    between atoms: C_14  and  N_15
REMARK    6  A    between atoms: C_18  and  O_19
REMARK                            x       y       z     vdW  Elec       q    Type
REMARK                         _______ _______ _______ _____ _____    ______ ____
ROOT
ATOM      1  C   UNL     1      46.992   8.176  13.314  0.00  0.00    +0.000 A 
ATOM      2  C   UNL     1      46.543   9.328  12.662  0.00  0.00    +0.000 A 
ATOM      3  C   UNL     1      45.425   9.263  11.843  0.00  0.00    +0.000 A 
ATOM      4  F   UNL     1      45.010  10.367  11.208  0.00  0.00    +0.000 F 
ATOM      5  C   UNL     1      44.725   8.073  11.663  0.00  0.00    +0.000 A 
ATOM      6  C   UNL     1      45.124   6.892  12.303  0.00  0.00    +0.000 A 
ATOM      7  C   UNL     1      46.266   6.978  13.132  0.00  0.00    +0.000 A 
ENDROOT
BRANCH   6   8
ATOM      8  N   UNL     1      44.426   5.706  12.130  0.00  0.00    +0.000 N 
ATOM      9  C   UNL     1      43.442   5.541  11.061  0.00  0.00    +0.000 C 
ATOM     10  C   UNL     1      43.829   4.339  10.200  0.00  0.00    +0.000 C 
ATOM     11  C   UNL     1      44.045   3.079  11.034  0.00  0.00    +0.000 C 
ATOM     12  C   UNL     1      45.009   3.321  12.194  0.00  0.00    +0.000 C 
ATOM     13  C   UNL     1      44.616   4.549  13.014  0.00  0.00    +0.000 C 
BRANCH  11  14
ATOM     14  O   UNL     1      42.798   2.572  11.510  0.00  0.00    +0.000 OA
ATOM     15  H   UNL     1      42.302   2.196  10.764  0.00  0.00    +0.000 HD
ENDBRANCH  11  14
ENDBRANCH   6   8
BRANCH   1  16
ATOM     16  C   UNL     1      48.247   8.219  14.161  0.00  0.00    +0.000 C 
BRANCH  16  17
ATOM     17  N   UNL     1      48.726   6.879  14.453  0.00  0.00    +0.000 N 
ATOM     18  H   UNL     1      49.608   6.634  14.007  0.00  0.00    +0.000 HD
BRANCH  17  22
ATOM     19  C   UNL     1      48.735   5.525  18.338  0.00  0.00    +0.000 A 
ATOM     20  C   UNL     1      48.571   4.682  17.255  0.00  0.00    +0.000 A 
ATOM     21  N   UNL     1      48.593   5.119  15.964  0.00  0.00    +0.000 NA
ATOM     22  C   UNL     1      48.771   6.446  15.770  0.00  0.00    +0.000 A 
ATOM     23  C   UNL     1      48.915   7.284  16.881  0.00  0.00    +0.000 A 
ATOM     24  N   UNL     1      48.919   6.857  18.174  0.00  0.00    +0.000 NA
BRANCH  19  26
ATOM     25  N   UNL     1      48.747   4.592  20.767  0.00  0.00    +0.000 NA
ATOM     26  C   UNL     1      48.721   5.020  19.684  0.00  0.00    +0.000 C 
ENDBRANCH  19  26
ENDBRANCH  17  22
ENDBRANCH  16  17
ENDBRANCH   1  16
TORSDOF 6
ENDMDL
MODEL 8
REMARK VINA RESULT:    -5.906      3.954      6.029
REMARK INTER + INTRA:          -8.659
REMARK INTER:                  -7.891
REMARK INTRA:                  -0.768
REMARK UNBOUND:                -0.855
REMARK  Name = 
REMARK  6 active torsions:
REMARK  status: ('A' for Active; 'I' for Inactive)
REMARK    1  A    between atoms: C_2  and  C_3
REMARK    2  A    between atoms: C_6  and  N_7
REMARK    3  A    between atoms: N_7  and  C_8
REMARK    4  A    between atoms: C_8  and  C_9
REMARK    5  A    between atoms: C_14  and  N_15
REMARK    6  A    between atoms: C_18  and  O_19
REMARK                            x       y       z     vdW  Elec       q    Type
REMARK                         _______ _______ _______ _____ _____    ______ ____
ROOT
ATOM      1  C   UNL     1      48.357   7.428  13.956  0.00  0.00    +0.000 A 
ATOM      2  C   UNL     1      49.600   8.052  13.822  0.00  0.00    +0.000 A 
ATOM      3  C   UNL     1      50.601   7.796  14.748  0.00  0.00    +0.000 A 
ATOM      4  F   UNL     1      51.785   8.411  14.624  0.00  0.00    +0.000 F 
ATOM      5  C   UNL     1      50.401   6.916  15.809  0.00  0.00    +0.000 A 
ATOM      6  C   UNL     1      49.179   6.254  15.983  0.00  0.00    +0.000 A 
ATOM      7  C   UNL     1      48.171   6.529  15.030  0.00  0.00    +0.000 A 
ENDROOT
BRANCH   6   8
ATOM      8  N   UNL     1      48.978   5.372  17.034  0.00  0.00    +0.000 N 
ATOM      9  C   UNL     1      47.651   5.143  17.604  0.00  0.00    +0.000 C 
ATOM     10  C   UNL     1      47.321   3.652  17.531  0.00  0.00    +0.000 C 
ATOM     11  C   UNL     1      48.413   2.789  18.155  0.00  0.00    +0.000 C 
ATOM     12  C   UNL     1      49.796   3.126  17.598  0.00  0.00    +0.000 C 
ATOM     13  C   UNL     1      50.082   4.626  17.653  0.00  0.00    +0.000 C 
BRANCH  11  14
ATOM     14  O   UNL     1      48.398   2.913  19.578  0.00  0.00    +0.000 OA
ATOM     15  H   UNL     1      49.020   2.270  19.959  0.00  0.00    +0.000 HD
ENDBRANCH  11  14
ENDBRANCH   6   8
BRANCH   1  16
ATOM     16  C   UNL     1      47.236   7.746  12.988  0.00  0.00    +0.000 C 
BRANCH  16  17
ATOM     17  N   UNL     1      46.055   6.952  13.279  0.00  0.00    +0.000 N 
ATOM     18  H   UNL     1      45.226   7.491  13.523  0.00  0.00    +0.000 HD
BRANCH  17  22
ATOM     19  C   UNL     1      45.030   3.899  10.717  0.00  0.00    +0.000 A 
ATOM     20  C   UNL     1      45.118   3.726  12.086  0.00  0.00    +0.000 A 
ATOM     21  N   UNL     1      45.431   4.739  12.943  0.00  0.00    +0.000 NA
ATOM     22  C   UNL     1      45.675   5.951  12.396  0.00  0.00    +0.000 A 
ATOM     23  C   UNL     1      45.599   6.100  11.007  0.00  0.00    +0.000 A 
ATOM     24  N   UNL     1      45.264   5.103  10.141  0.00  0.00    +0.000 NA
BRANCH  19  26
ATOM     25  N   UNL     1      44.438   1.914   9.143  0.00  0.00    +0.000 NA
ATOM     26  C   UNL     1      44.680   2.808   9.849  0.00  0.00    +0.000 C 
ENDBRANCH  19  26
ENDBRANCH  17  22
ENDBRANCH  16  17
ENDBRANCH   1  16
TORSDOF 6
ENDMDL
MODEL 9
REMARK VINA RESULT:    -5.834      4.639      8.011
REMARK INTER + INTRA:          -8.565
REMARK INTER:                  -7.928
REMARK INTRA:                  -0.637
REMARK UNBOUND:                -0.855
REMARK  Name = 
REMARK  6 active torsions:
REMARK  status: ('A' for Active; 'I' for Inactive)
REMARK    1  A    between atoms: C_2  and  C_3
REMARK    2  A    between atoms: C_6  and  N_7
REMARK    3  A    between atoms: N_7  and  C_8
REMARK    4  A    between atoms: C_8  and  C_9
REMARK    5  A    between atoms: C_14  and  N_15
REMARK    6  A    between atoms: C_18  and  O_19
REMARK                            x       y       z     vdW  Elec       q    Type
REMARK                         _______ _______ _______ _____ _____    ______ ____
ROOT
ATOM      1  C   UNL     1      47.522   7.656  13.600  0.00  0.00    +0.000 A 
ATOM      2  C   UNL     1      47.187   8.897  13.052  0.00  0.00    +0.000 A 
ATOM      3  C   UNL     1      46.053   9.013  12.259  0.00  0.00    +0.000 A 
ATOM      4  F   UNL     1      45.746  10.202  11.722  0.00  0.00    +0.000 F 
ATOM      5  C   UNL     1      45.229   7.920  12.005  0.00  0.00    +0.000 A 
ATOM      6  C   UNL     1      45.512   6.657  12.541  0.00  0.00    +0.000 A 
ATOM      7  C   UNL     1      46.671   6.558  13.345  0.00  0.00    +0.000 A 
ENDROOT
BRANCH   6   8
ATOM      8  N   UNL     1      44.690   5.568  12.295  0.00  0.00    +0.000 N 
ATOM      9  C   UNL     1      43.659   5.600  11.258  0.00  0.00    +0.000 C 
ATOM     10  C   UNL     1      43.890   4.450  10.280  0.00  0.00    +0.000 C 
ATOM     11  C   UNL     1      44.004   3.104  10.989  0.00  0.00    +0.000 C 
ATOM     12  C   UNL     1      45.026   3.141  12.124  0.00  0.00    +0.000 C 
ATOM     13  C   UNL     1      44.790   4.321  13.065  0.00  0.00    +0.000 C 
BRANCH  11  14
ATOM     14  O   UNL     1      42.728   2.682  11.472  0.00  0.00    +0.000 OA
ATOM     15  H   UNL     1      42.033   3.062  10.909  0.00  0.00    +0.000 HD
ENDBRANCH  11  14
ENDBRANCH   6   8
BRANCH   1  16
ATOM     16  C   UNL     1      48.789   7.501  14.416  0.00  0.00    +0.000 C 
BRANCH  16  17
ATOM     17  N   UNL     1      48.509   6.890  15.704  0.00  0.00    +0.000 N 
ATOM     18  H   UNL     1      47.608   6.421  15.768  0.00  0.00    +0.000 HD
BRANCH  17  22
ATOM     19  C   UNL     1      51.260   4.456  17.558  0.00  0.00    +0.000 A 
ATOM     20  C   UNL     1      49.926   4.114  17.436  0.00  0.00    +0.000 A 
ATOM     21  N   UNL     1      49.014   4.904  16.800  0.00  0.00    +0.000 NA
ATOM     22  C   UNL     1      49.465   6.072  16.290  0.00  0.00    +0.000 A 
ATOM     23  C   UNL     1      50.815   6.407  16.443  0.00  0.00    +0.000 A 
ATOM     24  N   UNL     1      51.741   5.617  17.055  0.00  0.00    +0.000 NA
BRANCH  19  26
ATOM     25  N   UNL     1      52.971   2.882  18.728  0.00  0.00    +0.000 NA
ATOM     26  C   UNL     1      52.192   3.586  18.223  0.00  0.00    +0.000 C 
ENDBRANCH  19  26
ENDBRANCH  17  22
ENDBRANCH  16  17
ENDBRANCH   1  16
TORSDOF 6
ENDMDL
