MODEL 1
REMARK VINA RESULT:    -8.671      0.000      0.000
REMARK INTER + INTRA:         -10.887
REMARK INTER:                 -11.205
REMARK INTRA:                   0.318
REMARK UNBOUND:                 0.318
REMARK  Name = 
REMARK  6 active torsions:
REMARK  status: ('A' for Active; 'I' for Inactive)
REMARK    1  A    between atoms: C_1  and  O_2
REMARK    2  A    between atoms: O_2  and  C_3
REMARK    3  A    between atoms: C_5  and  C_6
REMARK    4  A    between atoms: C_6  and  N_7
REMARK    5  A    between atoms: C_11  and  C_12
REMARK    6  A    between atoms: C_21  and  C_22
REMARK                            x       y       z     vdW  Elec       q    Type
REMARK                         _______ _______ _______ _____ _____    ______ ____
ROOT
ATOM      1  C   UNL     1      44.011   5.166  11.258  0.00  0.00    +0.000 C 
ATOM      2  C   UNL     1      42.612   5.468  11.771  0.00  0.00    +0.000 C 
ATOM      3  C   UNL     1      43.066   4.050  11.717  0.00  0.00    +0.000 C 
ENDROOT
BRANCH   1   4
ATOM      4  N   UNL     1      44.330   5.106   9.835  0.00  0.00    +0.000 N 
ATOM      5  C   UNL     1      45.041   4.132   9.150  0.00  0.00    +0.000 A 
ATOM      6  C   UNL     1      45.218   2.823   9.575  0.00  0.00    +0.000 A 
ATOM      7  C   UNL     1      45.951   1.943   8.768  0.00  0.00    +0.000 A 
ATOM      8  C   UNL     1      46.474   2.381   7.548  0.00  0.00    +0.000 A 
ATOM      9  C   UNL     1      46.218   3.693   7.196  0.00  0.00    +0.000 A 
ATOM     10  N   UNL     1      45.522   4.562   7.967  0.00  0.00    +0.000 NA
ATOM     11  H   UNL     1      44.413   5.967   9.309  0.00  0.00    +0.000 HD
BRANCH   8  12
ATOM     12  C   UNL     1      47.261   1.451   6.704  0.00  0.00    +0.000 C 
ATOM     13  N   UNL     1      48.260   1.948   5.913  0.00  0.00    +0.000 N 
ATOM     14  O   UNL     1      47.033   0.245   6.712  0.00  0.00    +0.000 OA
ATOM     15  H   UNL     1      48.544   2.912   5.841  0.00  0.00    +0.000 HD
ATOM     16  H   UNL     1      48.774   1.273   5.359  0.00  0.00    +0.000 HD
ENDBRANCH   8  12
ENDBRANCH   1   4
BRANCH   1  19
ATOM     17  C   UNL     1      46.836   4.699  13.859  0.00  0.00    +0.000 A 
ATOM     18  C   UNL     1      45.789   4.447  12.953  0.00  0.00    +0.000 A 
ATOM     19  C   UNL     1      45.211   5.458  12.160  0.00  0.00    +0.000 A 
ATOM     20  C   UNL     1      45.779   6.738  12.251  0.00  0.00    +0.000 A 
ATOM     21  C   UNL     1      46.838   7.001  13.118  0.00  0.00    +0.000 A 
ATOM     22  C   UNL     1      47.373   5.990  13.924  0.00  0.00    +0.000 A 
BRANCH  17  24
ATOM     23  C   UNL     1      47.238   3.695  15.982  0.00  0.00    +0.000 C 
ATOM     24  O   UNL     1      47.240   3.592  14.560  0.00  0.00    +0.000 OA
ENDBRANCH  17  24
BRANCH  22  25
ATOM     25  C   UNL     1      48.479   6.361  14.744  0.00  0.00    +0.000 C 
ATOM     26  N   UNL     1      49.390   6.696  15.390  0.00  0.00    +0.000 NA
ENDBRANCH  22  25
ENDBRANCH   1  19
TORSDOF 5
ENDMDL
MODEL 2
REMARK VINA RESULT:    -8.626      1.155      1.992
REMARK INTER + INTRA:         -10.829
REMARK INTER:                 -10.835
REMARK INTRA:                   0.006
REMARK UNBOUND:                 0.318
REMARK  Name = 
REMARK  6 active torsions:
REMARK  status: ('A' for Active; 'I' for Inactive)
REMARK    1  A    between atoms: C_1  and  O_2
REMARK    2  A    between atoms: O_2  and  C_3
REMARK    3  A    between atoms: C_5  and  C_6
REMARK    4  A    between atoms: C_6  and  N_7
REMARK    5  A    between atoms: C_11  and  C_12
REMARK    6  A    between atoms: C_21  and  C_22
REMARK                            x       y       z     vdW  Elec       q    Type
REMARK                         _______ _______ _______ _____ _____    ______ ____
ROOT
ATOM      1  C   UNL     1      43.963   5.174  11.233  0.00  0.00    +0.000 C 
ATOM      2  C   UNL     1      42.536   5.467  11.668  0.00  0.00    +0.000 C 
ATOM      3  C   UNL     1      42.989   4.049  11.601  0.00  0.00    +0.000 C 
ENDROOT
BRANCH   1   4
ATOM      4  N   UNL     1      44.369   5.154   9.831  0.00  0.00    +0.000 N 
ATOM      5  C   UNL     1      45.066   4.169   9.149  0.00  0.00    +0.000 A 
ATOM      6  C   UNL     1      45.143   2.836   9.526  0.00  0.00    +0.000 A 
ATOM      7  C   UNL     1      45.876   1.948   8.727  0.00  0.00    +0.000 A 
ATOM      8  C   UNL     1      46.500   2.404   7.562  0.00  0.00    +0.000 A 
ATOM      9  C   UNL     1      46.340   3.742   7.253  0.00  0.00    +0.000 A 
ATOM     10  N   UNL     1      45.646   4.618   8.018  0.00  0.00    +0.000 NA
ATOM     11  H   UNL     1      44.533   6.030   9.350  0.00  0.00    +0.000 HD
BRANCH   8  12
ATOM     12  C   UNL     1      47.286   1.465   6.727  0.00  0.00    +0.000 C 
ATOM     13  N   UNL     1      48.275   1.955   5.921  0.00  0.00    +0.000 N 
ATOM     14  O   UNL     1      47.065   0.258   6.758  0.00  0.00    +0.000 OA
ATOM     15  H   UNL     1      48.553   2.918   5.831  0.00  0.00    +0.000 HD
ATOM     16  H   UNL     1      48.790   1.273   5.374  0.00  0.00    +0.000 HD
ENDBRANCH   8  12
ENDBRANCH   1   4
BRANCH   1  19
ATOM     17  C   UNL     1      46.707   7.005  13.253  0.00  0.00    +0.000 A 
ATOM     18  C   UNL     1      45.602   6.739  12.423  0.00  0.00    +0.000 A 
ATOM     19  C   UNL     1      45.106   5.437  12.215  0.00  0.00    +0.000 A 
ATOM     20  C   UNL     1      45.717   4.402  12.939  0.00  0.00    +0.000 A 
ATOM     21  C   UNL     1      46.792   4.650  13.791  0.00  0.00    +0.000 A 
ATOM     22  C   UNL     1      47.293   5.946  13.955  0.00  0.00    +0.000 A 
BRANCH  17  24
ATOM     23  C   UNL     1      46.247   9.237  12.555  0.00  0.00    +0.000 C 
ATOM     24  O   UNL     1      47.056   8.330  13.301  0.00  0.00    +0.000 OA
ENDBRANCH  17  24
BRANCH  22  25
ATOM     25  C   UNL     1      48.368   6.090  14.880  0.00  0.00    +0.000 C 
ATOM     26  N   UNL     1      49.221   6.217  15.665  0.00  0.00    +0.000 NA
ENDBRANCH  22  25
ENDBRANCH   1  19
TORSDOF 5
ENDMDL
MODEL 3
REMARK VINA RESULT:    -7.819      2.274      3.141
REMARK INTER + INTRA:          -9.785
REMARK INTER:                  -9.087
REMARK INTRA:                  -0.698
REMARK UNBOUND:                 0.318
REMARK  Name = 
REMARK  6 active torsions:
REMARK  status: ('A' for Active; 'I' for Inactive)
REMARK    1  A    between atoms: C_1  and  O_2
REMARK    2  A    between atoms: O_2  and  C_3
REMARK    3  A    between atoms: C_5  and  C_6
REMARK    4  A    between atoms: C_6  and  N_7
REMARK    5  A    between atoms: C_11  and  C_12
REMARK    6  A    between atoms: C_21  and  C_22
REMARK                            x       y       z     vdW  Elec       q    Type
REMARK                         _______ _______ _______ _____ _____    ______ ____
ROOT
ATOM      1  C   UNL     1      43.977   5.185  11.832  0.00  0.00    +0.000 C 
ATOM      2  C   UNL     1      42.553   5.632  11.542  0.00  0.00    +0.000 C 
ATOM      3  C   UNL     1      42.850   4.983  12.850  0.00  0.00    +0.000 C 
ENDROOT
BRANCH   1   4
ATOM      4  N   UNL     1      44.528   3.935  11.320  0.00  0.00    +0.000 N 
ATOM      5  C   UNL     1      45.101   3.687  10.082  0.00  0.00    +0.000 A 
ATOM      6  C   UNL     1      45.656   4.648   9.250  0.00  0.00    +0.000 A 
ATOM      7  C   UNL     1      46.213   4.246   8.029  0.00  0.00    +0.000 A 
ATOM      8  C   UNL     1      46.220   2.894   7.672  0.00  0.00    +0.000 A 
ATOM      9  C   UNL     1      45.671   2.008   8.580  0.00  0.00    +0.000 A 
ATOM     10  N   UNL     1      45.118   2.378   9.760  0.00  0.00    +0.000 NA
ATOM     11  H   UNL     1      44.169   3.055  11.669  0.00  0.00    +0.000 HD
BRANCH   8  12
ATOM     12  C   UNL     1      46.797   2.475   6.373  0.00  0.00    +0.000 C 
ATOM     13  N   UNL     1      46.945   3.400   5.377  0.00  0.00    +0.000 N 
ATOM     14  O   UNL     1      47.150   1.314   6.185  0.00  0.00    +0.000 OA
ATOM     15  H   UNL     1      46.708   4.377   5.428  0.00  0.00    +0.000 HD
ATOM     16  H   UNL     1      47.351   3.067   4.510  0.00  0.00    +0.000 HD
ENDBRANCH   8  12
ENDBRANCH   1   4
BRANCH   1  19
ATOM     17  C   UNL     1      45.790   8.591  12.119  0.00  0.00    +0.000 A 
ATOM     18  C   UNL     1      44.811   7.604  11.894  0.00  0.00    +0.000 A 
ATOM     19  C   UNL     1      45.028   6.241  12.178  0.00  0.00    +0.000 A 
ATOM     20  C   UNL     1      46.252   5.905  12.777  0.00  0.00    +0.000 A 
ATOM     21  C   UNL     1      47.221   6.872  13.038  0.00  0.00    +0.000 A 
ATOM     22  C   UNL     1      47.000   8.215  12.714  0.00  0.00    +0.000 A 
BRANCH  17  24
ATOM     23  C   UNL     1      44.265   9.949  10.891  0.00  0.00    +0.000 C 
ATOM     24  O   UNL     1      45.400   9.852  11.749  0.00  0.00    +0.000 OA
ENDBRANCH  17  24
BRANCH  22  25
ATOM     25  C   UNL     1      48.042   9.124  13.061  0.00  0.00    +0.000 C 
ATOM     26  N   UNL     1      48.890   9.886  13.309  0.00  0.00    +0.000 NA
ENDBRANCH  22  25
ENDBRANCH   1  19
TORSDOF 5
ENDMDL
MODEL 4
REMARK VINA RESULT:    -7.320      2.179      7.160
REMARK INTER + INTRA:          -9.141
REMARK INTER:                  -9.623
REMARK INTRA:                   0.482
REMARK UNBOUND:                 0.318
REMARK  Name = 
REMARK  6 active torsions:
REMARK  status: ('A' for Active; 'I' for Inactive)
REMARK    1  A    between atoms: C_1  and  O_2
REMARK    2  A    between atoms: O_2  and  C_3
REMARK    3  A    between atoms: C_5  and  C_6
REMARK    4  A    between atoms: C_6  and  N_7
REMARK    5  A    between atoms: C_11  and  C_12
REMARK    6  A    between atoms: C_21  and  C_22
REMARK                            x       y       z     vdW  Elec       q    Type
REMARK                         _______ _______ _______ _____ _____    ______ ____
ROOT
ATOM      1  C   UNL     1      44.443   4.583  10.927  0.00  0.00    +0.000 C 
ATOM      2  C   UNL     1      44.108   3.660  12.087  0.00  0.00    +0.000 C 
ATOM      3  C   UNL     1      43.007   4.119  11.194  0.00  0.00    +0.000 C 
ENDROOT
BRANCH   1   4
ATOM      4  N   UNL     1      44.628   6.021  11.094  0.00  0.00    +0.000 N 
ATOM      5  C   UNL     1      45.516   6.685  11.928  0.00  0.00    +0.000 A 
ATOM      6  C   UNL     1      46.686   6.147  12.442  0.00  0.00    +0.000 A 
ATOM      7  C   UNL     1      47.495   6.945  13.262  0.00  0.00    +0.000 A 
ATOM      8  C   UNL     1      47.128   8.266  13.537  0.00  0.00    +0.000 A 
ATOM      9  C   UNL     1      45.960   8.721  12.954  0.00  0.00    +0.000 A 
ATOM     10  N   UNL     1      45.160   7.963  12.168  0.00  0.00    +0.000 NA
ATOM     11  H   UNL     1      43.850   6.645  10.922  0.00  0.00    +0.000 HD
BRANCH   8  12
ATOM     12  C   UNL     1      47.978   9.102  14.417  0.00  0.00    +0.000 C 
ATOM     13  N   UNL     1      47.702   9.159  15.755  0.00  0.00    +0.000 N 
ATOM     14  O   UNL     1      48.927   9.734  13.962  0.00  0.00    +0.000 OA
ATOM     15  H   UNL     1      46.964   8.671  16.236  0.00  0.00    +0.000 HD
ATOM     16  H   UNL     1      48.315   9.739  16.317  0.00  0.00    +0.000 HD
ENDBRANCH   8  12
ENDBRANCH   1   4
BRANCH   1  19
ATOM     17  C   UNL     1      45.855   2.032   8.384  0.00  0.00    +0.000 A 
ATOM     18  C   UNL     1      45.159   2.609   9.463  0.00  0.00    +0.000 A 
ATOM     19  C   UNL     1      45.130   3.999   9.691  0.00  0.00    +0.000 A 
ATOM     20  C   UNL     1      45.770   4.812   8.742  0.00  0.00    +0.000 A 
ATOM     21  C   UNL     1      46.437   4.261   7.649  0.00  0.00    +0.000 A 
ATOM     22  C   UNL     1      46.485   2.875   7.461  0.00  0.00    +0.000 A 
BRANCH  17  24
ATOM     23  C   UNL     1      46.846  -0.016   7.676  0.00  0.00    +0.000 C 
ATOM     24  O   UNL     1      45.790   0.663   8.352  0.00  0.00    +0.000 OA
ENDBRANCH  17  24
BRANCH  22  25
ATOM     25  C   UNL     1      47.160   2.424   6.289  0.00  0.00    +0.000 C 
ATOM     26  N   UNL     1      47.746   2.076   5.343  0.00  0.00    +0.000 NA
ENDBRANCH  22  25
ENDBRANCH   1  19
TORSDOF 5
ENDMDL
MODEL 5
REMARK VINA RESULT:    -6.837      2.779      7.019
REMARK INTER + INTRA:          -8.516
REMARK INTER:                  -8.626
REMARK INTRA:                   0.110
REMARK UNBOUND:                 0.318
REMARK  Name = 
REMARK  6 active torsions:
REMARK  status: ('A' for Active; 'I' for Inactive)
REMARK    1  A    between atoms: C_1  and  O_2
REMARK    2  A    between atoms: O_2  and  C_3
REMARK    3  A    between atoms: C_5  and  C_6
REMARK    4  A    between atoms: C_6  and  N_7
REMARK    5  A    between atoms: C_11  and  C_12
REMARK    6  A    between atoms: C_21  and  C_22
REMARK                            x       y       z     vdW  Elec       q    Type
REMARK                         _______ _______ _______ _____ _____    ______ ____
ROOT
ATOM      1  C   UNL     1      43.723   5.624  11.550  0.00  0.00    +0.000 C 
ATOM      2  C   UNL     1      43.048   5.260  12.863  0.00  0.00    +0.000 C 
ATOM      3  C   UNL     1      42.196   5.590  11.685  0.00  0.00    +0.000 C 
ENDROOT
BRANCH   1   4
ATOM      4  N   UNL     1      44.252   6.958  11.282  0.00  0.00    +0.000 N 
ATOM      5  C   UNL     1      45.358   7.576  11.845  0.00  0.00    +0.000 A 
ATOM      6  C   UNL     1      46.424   6.920  12.442  0.00  0.00    +0.000 A 
ATOM      7  C   UNL     1      47.484   7.679  12.957  0.00  0.00    +0.000 A 
ATOM      8  C   UNL     1      47.464   9.073  12.850  0.00  0.00    +0.000 A 
ATOM      9  C   UNL     1      46.374   9.633  12.211  0.00  0.00    +0.000 A 
ATOM     10  N   UNL     1      45.335   8.918  11.717  0.00  0.00    +0.000 NA
ATOM     11  H   UNL     1      43.623   7.687  10.970  0.00  0.00    +0.000 HD
BRANCH   8  12
ATOM     12  C   UNL     1      48.579   9.874  13.409  0.00  0.00    +0.000 C 
ATOM     13  N   UNL     1      48.350  10.673  14.494  0.00  0.00    +0.000 N 
ATOM     14  O   UNL     1      49.702   9.821  12.916  0.00  0.00    +0.000 OA
ATOM     15  H   UNL     1      47.478  10.779  14.987  0.00  0.00    +0.000 HD
ATOM     16  H   UNL     1      49.145  11.196  14.844  0.00  0.00    +0.000 HD
ENDBRANCH   8  12
ENDBRANCH   1   4
BRANCH   1  19
ATOM     17  C   UNL     1      45.724   3.825   8.772  0.00  0.00    +0.000 A 
ATOM     18  C   UNL     1      45.193   4.817   9.617  0.00  0.00    +0.000 A 
ATOM     19  C   UNL     1      44.358   4.515  10.711  0.00  0.00    +0.000 A 
ATOM     20  C   UNL     1      44.133   3.156  10.980  0.00  0.00    +0.000 A 
ATOM     21  C   UNL     1      44.676   2.157  10.175  0.00  0.00    +0.000 A 
ATOM     22  C   UNL     1      45.473   2.481   9.071  0.00  0.00    +0.000 A 
BRANCH  17  24
ATOM     23  C   UNL     1      46.428   3.623   6.504  0.00  0.00    +0.000 C 
ATOM     24  O   UNL     1      46.486   4.321   7.746  0.00  0.00    +0.000 OA
ENDBRANCH  17  24
BRANCH  22  25
ATOM     25  C   UNL     1      46.008   1.380   8.340  0.00  0.00    +0.000 C 
ATOM     26  N   UNL     1      46.456   0.462   7.777  0.00  0.00    +0.000 NA
ENDBRANCH  22  25
ENDBRANCH   1  19
TORSDOF 5
ENDMDL
MODEL 6
REMARK VINA RESULT:    -6.666      4.349      6.483
REMARK INTER + INTRA:          -8.296
REMARK INTER:                  -7.797
REMARK INTRA:                  -0.498
REMARK UNBOUND:                 0.318
REMARK  Name = 
REMARK  6 active torsions:
REMARK  status: ('A' for Active; 'I' for Inactive)
REMARK    1  A    between atoms: C_1  and  O_2
REMARK    2  A    between atoms: O_2  and  C_3
REMARK    3  A    between atoms: C_5  and  C_6
REMARK    4  A    between atoms: C_6  and  N_7
REMARK    5  A    between atoms: C_11  and  C_12
REMARK    6  A    between atoms: C_21  and  C_22
REMARK                            x       y       z     vdW  Elec       q    Type
REMARK                         _______ _______ _______ _____ _____    ______ ____
ROOT
ATOM      1  C   UNL     1      48.595   7.807  12.870  0.00  0.00    +0.000 C 
ATOM      2  C   UNL     1      49.451   7.466  11.662  0.00  0.00    +0.000 C 
ATOM      3  C   UNL     1      50.071   8.211  12.793  0.00  0.00    +0.000 C 
ENDROOT
BRANCH   1   4
ATOM      4  N   UNL     1      47.682   8.946  12.891  0.00  0.00    +0.000 N 
ATOM      5  C   UNL     1      46.445   9.071  12.277  0.00  0.00    +0.000 A 
ATOM      6  C   UNL     1      45.635   8.015  11.887  0.00  0.00    +0.000 A 
ATOM      7  C   UNL     1      44.399   8.295  11.288  0.00  0.00    +0.000 A 
ATOM      8  C   UNL     1      43.992   9.621  11.109  0.00  0.00    +0.000 A 
ATOM      9  C   UNL     1      44.854  10.603  11.558  0.00  0.00    +0.000 A 
ATOM     10  N   UNL     1      46.056  10.353  12.128  0.00  0.00    +0.000 NA
ATOM     11  H   UNL     1      48.056   9.879  13.013  0.00  0.00    +0.000 HD
BRANCH   8  12
ATOM     12  C   UNL     1      42.690   9.913  10.462  0.00  0.00    +0.000 C 
ATOM     13  N   UNL     1      41.536   9.494  11.064  0.00  0.00    +0.000 N 
ATOM     14  O   UNL     1      42.637  10.531   9.403  0.00  0.00    +0.000 OA
ATOM     15  H   UNL     1      41.461   8.999  11.937  0.00  0.00    +0.000 HD
ATOM     16  H   UNL     1      40.671   9.724  10.588  0.00  0.00    +0.000 HD
ENDBRANCH   8  12
ENDBRANCH   1   4
BRANCH   1  19
ATOM     17  C   UNL     1      47.043   4.602  14.382  0.00  0.00    +0.000 A 
ATOM     18  C   UNL     1      47.459   5.594  13.474  0.00  0.00    +0.000 A 
ATOM     19  C   UNL     1      48.242   6.699  13.864  0.00  0.00    +0.000 A 
ATOM     20  C   UNL     1      48.665   6.737  15.202  0.00  0.00    +0.000 A 
ATOM     21  C   UNL     1      48.291   5.746  16.108  0.00  0.00    +0.000 A 
ATOM     22  C   UNL     1      47.483   4.677  15.708  0.00  0.00    +0.000 A 
BRANCH  17  24
ATOM     23  C   UNL     1      45.479   4.005  12.686  0.00  0.00    +0.000 C 
ATOM     24  O   UNL     1      46.263   3.627  13.816  0.00  0.00    +0.000 OA
ENDBRANCH  17  24
BRANCH  22  25
ATOM     25  C   UNL     1      47.194   3.701  16.708  0.00  0.00    +0.000 C 
ATOM     26  N   UNL     1      46.940   2.881  17.497  0.00  0.00    +0.000 NA
ENDBRANCH  22  25
ENDBRANCH   1  19
TORSDOF 5
ENDMDL
MODEL 7
REMARK VINA RESULT:    -6.648      4.018      6.815
REMARK INTER + INTRA:          -8.272
REMARK INTER:                  -7.824
REMARK INTRA:                  -0.448
REMARK UNBOUND:                 0.318
REMARK  Name = 
REMARK  6 active torsions:
REMARK  status: ('A' for Active; 'I' for Inactive)
REMARK    1  A    between atoms: C_1  and  O_2
REMARK    2  A    between atoms: O_2  and  C_3
REMARK    3  A    between atoms: C_5  and  C_6
REMARK    4  A    between atoms: C_6  and  N_7
REMARK    5  A    between atoms: C_11  and  C_12
REMARK    6  A    between atoms: C_21  and  C_22
REMARK                            x       y       z     vdW  Elec       q    Type
REMARK                         _______ _______ _______ _____ _____    ______ ____
ROOT
ATOM      1  C   UNL     1      48.037   4.529  16.955  0.00  0.00    +0.000 C 
ATOM      2  C   UNL     1      48.009   5.980  17.406  0.00  0.00    +0.000 C 
ATOM      3  C   UNL     1      47.263   4.966  18.203  0.00  0.00    +0.000 C 
ENDROOT
BRANCH   1   4
ATOM      4  N   UNL     1      47.179   4.021  15.889  0.00  0.00    +0.000 N 
ATOM      5  C   UNL     1      46.857   4.621  14.680  0.00  0.00    +0.000 A 
ATOM      6  C   UNL     1      47.607   5.603  14.051  0.00  0.00    +0.000 A 
ATOM      7  C   UNL     1      47.163   6.108  12.821  0.00  0.00    +0.000 A 
ATOM      8  C   UNL     1      45.994   5.609  12.238  0.00  0.00    +0.000 A 
ATOM      9  C   UNL     1      45.334   4.609  12.927  0.00  0.00    +0.000 A 
ATOM     10  N   UNL     1      45.739   4.116  14.121  0.00  0.00    +0.000 NA
ATOM     11  H   UNL     1      46.428   3.381  16.119  0.00  0.00    +0.000 HD
BRANCH   8  12
ATOM     12  C   UNL     1      45.521   6.156  10.944  0.00  0.00    +0.000 C 
ATOM     13  N   UNL     1      44.644   7.204  10.942  0.00  0.00    +0.000 N 
ATOM     14  O   UNL     1      45.913   5.686   9.880  0.00  0.00    +0.000 OA
ATOM     15  H   UNL     1      44.272   7.677  11.750  0.00  0.00    +0.000 HD
ATOM     16  H   UNL     1      44.354   7.548  10.034  0.00  0.00    +0.000 HD
ENDBRANCH   8  12
ENDBRANCH   1   4
BRANCH   1  19
ATOM     17  C   UNL     1      51.677   3.587  17.865  0.00  0.00    +0.000 A 
ATOM     18  C   UNL     1      50.469   4.295  17.716  0.00  0.00    +0.000 A 
ATOM     19  C   UNL     1      49.303   3.703  17.191  0.00  0.00    +0.000 A 
ATOM     20  C   UNL     1      49.367   2.335  16.886  0.00  0.00    +0.000 A 
ATOM     21  C   UNL     1      50.544   1.609  17.058  0.00  0.00    +0.000 A 
ATOM     22  C   UNL     1      51.702   2.224  17.546  0.00  0.00    +0.000 A 
BRANCH  17  24
ATOM     23  C   UNL     1      52.776   4.481  19.781  0.00  0.00    +0.000 C 
ATOM     24  O   UNL     1      52.704   4.345  18.363  0.00  0.00    +0.000 OA
ENDBRANCH  17  24
BRANCH  22  25
ATOM     25  C   UNL     1      52.837   1.378  17.718  0.00  0.00    +0.000 C 
ATOM     26  N   UNL     1      53.748   0.672  17.892  0.00  0.00    +0.000 NA
ENDBRANCH  22  25
ENDBRANCH   1  19
TORSDOF 5
ENDMDL
MODEL 8
REMARK VINA RESULT:    -6.574      1.852      7.212
REMARK INTER + INTRA:          -8.178
REMARK INTER:                  -8.175
REMARK INTRA:                  -0.002
REMARK UNBOUND:                 0.318
REMARK  Name = 
REMARK  6 active torsions:
REMARK  status: ('A' for Active; 'I' for Inactive)
REMARK    1  A    between atoms: C_1  and  O_2
REMARK    2  A    between atoms: O_2  and  C_3
REMARK    3  A    between atoms: C_5  and  C_6
REMARK    4  A    between atoms: C_6  and  N_7
REMARK    5  A    between atoms: C_11  and  C_12
REMARK    6  A    between atoms: C_21  and  C_22
REMARK                            x       y       z     vdW  Elec       q    Type
REMARK                         _______ _______ _______ _____ _____    ______ ____
ROOT
ATOM      1  C   UNL     1      44.768   4.319  11.634  0.00  0.00    +0.000 C 
ATOM      2  C   UNL     1      43.770   3.437  12.366  0.00  0.00    +0.000 C 
ATOM      3  C   UNL     1      43.307   4.745  11.822  0.00  0.00    +0.000 C 
ENDROOT
BRANCH   1   4
ATOM      4  N   UNL     1      45.717   5.180  12.333  0.00  0.00    +0.000 N 
ATOM      5  C   UNL     1      46.435   4.912  13.489  0.00  0.00    +0.000 A 
ATOM      6  C   UNL     1      46.731   3.645  13.971  0.00  0.00    +0.000 A 
ATOM      7  C   UNL     1      47.481   3.528  15.149  0.00  0.00    +0.000 A 
ATOM      8  C   UNL     1      47.933   4.675  15.810  0.00  0.00    +0.000 A 
ATOM      9  C   UNL     1      47.614   5.891  15.235  0.00  0.00    +0.000 A 
ATOM     10  N   UNL     1      46.881   6.025  14.104  0.00  0.00    +0.000 NA
ATOM     11  H   UNL     1      45.620   6.185  12.263  0.00  0.00    +0.000 HD
BRANCH   8  12
ATOM     12  C   UNL     1      48.714   4.547  17.063  0.00  0.00    +0.000 C 
ATOM     13  N   UNL     1      48.881   3.311  17.623  0.00  0.00    +0.000 N 
ATOM     14  O   UNL     1      49.215   5.532  17.597  0.00  0.00    +0.000 OA
ATOM     15  H   UNL     1      48.531   2.438  17.264  0.00  0.00    +0.000 HD
ATOM     16  H   UNL     1      49.428   3.273  18.476  0.00  0.00    +0.000 HD
ENDBRANCH   8  12
ENDBRANCH   1   4
BRANCH   1  19
ATOM     17  C   UNL     1      45.701   2.200   8.535  0.00  0.00    +0.000 A 
ATOM     18  C   UNL     1      45.234   2.592   9.804  0.00  0.00    +0.000 A 
ATOM     19  C   UNL     1      45.191   3.939  10.214  0.00  0.00    +0.000 A 
ATOM     20  C   UNL     1      45.564   4.904   9.265  0.00  0.00    +0.000 A 
ATOM     21  C   UNL     1      45.997   4.538   7.992  0.00  0.00    +0.000 A 
ATOM     22  C   UNL     1      46.068   3.192   7.617  0.00  0.00    +0.000 A 
BRANCH  17  24
ATOM     23  C   UNL     1      46.863   0.274   7.749  0.00  0.00    +0.000 C 
ATOM     24  O   UNL     1      45.696   0.844   8.337  0.00  0.00    +0.000 OA
ENDBRANCH  17  24
BRANCH  22  25
ATOM     25  C   UNL     1      46.488   2.934   6.279  0.00  0.00    +0.000 C 
ATOM     26  N   UNL     1      46.793   2.728   5.173  0.00  0.00    +0.000 NA
ENDBRANCH  22  25
ENDBRANCH   1  19
TORSDOF 5
ENDMDL
MODEL 9
REMARK VINA RESULT:    -6.251      3.501      5.209
REMARK INTER + INTRA:          -7.760
REMARK INTER:                  -7.069
REMARK INTRA:                  -0.691
REMARK UNBOUND:                 0.318
REMARK  Name = 
REMARK  6 active torsions:
REMARK  status: ('A' for Active; 'I' for Inactive)
REMARK    1  A    between atoms: C_1  and  O_2
REMARK    2  A    between atoms: O_2  and  C_3
REMARK    3  A    between atoms: C_5  and  C_6
REMARK    4  A    between atoms: C_6  and  N_7
REMARK    5  A    between atoms: C_11  and  C_12
REMARK    6  A    between atoms: C_21  and  C_22
REMARK                            x       y       z     vdW  Elec       q    Type
REMARK                         _______ _______ _______ _____ _____    ______ ____
ROOT
ATOM      1  C   UNL     1      48.530   8.011  12.916  0.00  0.00    +0.000 C 
ATOM      2  C   UNL     1      49.760   7.619  12.113  0.00  0.00    +0.000 C 
ATOM      3  C   UNL     1      49.345   9.050  12.138  0.00  0.00    +0.000 C 
ENDROOT
BRANCH   1   4
ATOM      4  N   UNL     1      47.173   7.840  12.408  0.00  0.00    +0.000 N 
ATOM      5  C   UNL     1      46.445   6.668  12.268  0.00  0.00    +0.000 A 
ATOM      6  C   UNL     1      46.677   5.494  12.969  0.00  0.00    +0.000 A 
ATOM      7  C   UNL     1      45.848   4.389  12.733  0.00  0.00    +0.000 A 
ATOM      8  C   UNL     1      44.796   4.486  11.817  0.00  0.00    +0.000 A 
ATOM      9  C   UNL     1      44.625   5.706  11.192  0.00  0.00    +0.000 A 
ATOM     10  N   UNL     1      45.422   6.781  11.398  0.00  0.00    +0.000 NA
ATOM     11  H   UNL     1      46.806   8.506  11.739  0.00  0.00    +0.000 HD
BRANCH   8  12
ATOM     12  C   UNL     1      43.929   3.311  11.560  0.00  0.00    +0.000 C 
ATOM     13  N   UNL     1      43.728   2.397  12.557  0.00  0.00    +0.000 N 
ATOM     14  O   UNL     1      43.387   3.154  10.470  0.00  0.00    +0.000 OA
ATOM     15  H   UNL     1      44.106   2.435  13.490  0.00  0.00    +0.000 HD
ATOM     16  H   UNL     1      43.123   1.615  12.336  0.00  0.00    +0.000 HD
ENDBRANCH   8  12
ENDBRANCH   1   4
BRANCH   1  19
ATOM     17  C   UNL     1      49.184   6.974  16.585  0.00  0.00    +0.000 A 
ATOM     18  C   UNL     1      49.158   6.991  15.178  0.00  0.00    +0.000 A 
ATOM     19  C   UNL     1      48.629   8.069  14.441  0.00  0.00    +0.000 A 
ATOM     20  C   UNL     1      48.189   9.182  15.174  0.00  0.00    +0.000 A 
ATOM     21  C   UNL     1      48.237   9.198  16.567  0.00  0.00    +0.000 A 
ATOM     22  C   UNL     1      48.733   8.101  17.280  0.00  0.00    +0.000 A 
BRANCH  17  24
ATOM     23  C   UNL     1      48.872   4.669  17.105  0.00  0.00    +0.000 C 
ATOM     24  O   UNL     1      49.709   5.824  17.115  0.00  0.00    +0.000 OA
ENDBRANCH  17  24
BRANCH  22  25
ATOM     25  C   UNL     1      48.771   8.241  18.698  0.00  0.00    +0.000 C 
ATOM     26  N   UNL     1      48.780   8.323  19.862  0.00  0.00    +0.000 NA
ENDBRANCH  22  25
ENDBRANCH   1  19
TORSDOF 5
ENDMDL
