MODEL 1
REMARK VINA RESULT:    -8.443      0.000      0.000
REMARK INTER + INTRA:         -12.864
REMARK INTER:                 -11.899
REMARK INTRA:                  -0.965
REMARK UNBOUND:                -0.965
REMARK  Name = 
REMARK  7 active torsions:
REMARK  status: ('A' for Active; 'I' for Inactive)
REMARK    1  A    between atoms: C_2  and  C_3
REMARK    2  A    between atoms: C_6  and  C_7
REMARK    3  A    between atoms: C_7  and  N_8
REMARK    4  A    between atoms: C_9  and  C_11
REMARK    5  A    between atoms: C_22  and  C_23
REMARK    6  A    between atoms: C_23  and  N_24
REMARK    7  A    between atoms: C_25  and  C_27
REMARK                            x       y       z     vdW  Elec       q    Type
REMARK                         _______ _______ _______ _____ _____    ______ ____
ROOT
ATOM      1  C   UNL     1      45.168   6.729  12.098  0.00  0.00    +0.000 A 
ATOM      2  C   UNL     1      46.162   6.913  13.071  0.00  0.00    +0.000 A 
ATOM      3  C   UNL     1      46.721   5.821  13.731  0.00  0.00    +0.000 A 
ATOM      4  C   UNL     1      46.297   4.523  13.426  0.00  0.00    +0.000 A 
ATOM      5  C   UNL     1      45.300   4.340  12.455  0.00  0.00    +0.000 A 
ATOM      6  C   UNL     1      44.703   5.433  11.798  0.00  0.00    +0.000 A 
ENDROOT
BRANCH   1   8
ATOM      7  N   UNL     1      44.245   8.835  10.894  0.00  0.00    +0.000 NA
ATOM      8  C   UNL     1      44.658   7.891  11.429  0.00  0.00    +0.000 C 
ENDBRANCH   1   8
BRANCH   4   9
ATOM      9  C   UNL     1      46.939   3.344  14.110  0.00  0.00    +0.000 C 
BRANCH   9  10
ATOM     10  N   UNL     1      47.881   3.773  15.112  0.00  0.00    +0.000 N 
ATOM     11  C   UNL     1      47.618   3.707  16.456  0.00  0.00    +0.000 C 
ATOM     12  O   UNL     1      46.562   3.262  16.899  0.00  0.00    +0.000 OA
ATOM     13  H   UNL     1      48.660   4.334  14.783  0.00  0.00    +0.000 HD
BRANCH  11  14
ATOM     14  C   UNL     1      48.700   4.136  17.353  0.00  0.00    +0.000 A 
ATOM     15  C   UNL     1      48.544   5.284  18.117  0.00  0.00    +0.000 A 
ATOM     16  S   UNL     1      49.869   5.616  19.137  0.00  0.00    +0.000 S 
ATOM     17  C   UNL     1      50.723   4.264  18.558  0.00  0.00    +0.000 A 
ATOM     18  N   UNL     1      51.972   3.978  19.012  0.00  0.00    +0.000 NA
ATOM     19  C   UNL     1      52.515   2.942  18.472  0.00  0.00    +0.000 A 
ATOM     20  N   UNL     1      51.918   2.158  17.517  0.00  0.00    +0.000 N 
ATOM     21  C   UNL     1      50.642   2.381  17.060  0.00  0.00    +0.000 A 
ATOM     22  O   UNL     1      50.112   1.615  16.263  0.00  0.00    +0.000 OA
ATOM     23  C   UNL     1      49.997   3.554  17.619  0.00  0.00    +0.000 A 
ATOM     24  H   UNL     1      52.387   1.343  17.149  0.00  0.00    +0.000 HD
ENDBRANCH  11  14
ENDBRANCH   9  10
ENDBRANCH   4   9
BRANCH   6  25
ATOM     25  C   UNL     1      43.580   5.173  10.817  0.00  0.00    +0.000 C 
BRANCH  25  26
ATOM     26  N   UNL     1      43.931   4.226   9.789  0.00  0.00    +0.000 N 
ATOM     27  C   UNL     1      44.988   4.408   8.923  0.00  0.00    +0.000 C 
ATOM     28  O   UNL     1      45.723   5.391   8.942  0.00  0.00    +0.000 OA
ATOM     29  H   UNL     1      43.366   3.392   9.652  0.00  0.00    +0.000 HD
BRANCH  27  30
ATOM     30  C   UNL     1      45.220   3.205   7.989  0.00  0.00    +0.000 C 
ATOM     31  C   UNL     1      45.692   1.963   8.734  0.00  0.00    +0.000 C 
ATOM     32  C   UNL     1      46.626   1.309   7.747  0.00  0.00    +0.000 C 
ATOM     33  C   UNL     1      47.229   2.502   7.042  0.00  0.00    +0.000 C 
ATOM     34  O   UNL     1      46.198   3.493   6.973  0.00  0.00    +0.000 OA
ENDBRANCH  27  30
ENDBRANCH  25  26
ENDBRANCH   6  25
TORSDOF 7
ENDMDL
MODEL 2
REMARK VINA RESULT:    -8.039      2.220      3.170
REMARK INTER + INTRA:         -12.294
REMARK INTER:                 -11.061
REMARK INTRA:                  -1.233
REMARK UNBOUND:                -0.965
REMARK  Name = 
REMARK  7 active torsions:
REMARK  status: ('A' for Active; 'I' for Inactive)
REMARK    1  A    between atoms: C_2  and  C_3
REMARK    2  A    between atoms: C_6  and  C_7
REMARK    3  A    between atoms: C_7  and  N_8
REMARK    4  A    between atoms: C_9  and  C_11
REMARK    5  A    between atoms: C_22  and  C_23
REMARK    6  A    between atoms: C_23  and  N_24
REMARK    7  A    between atoms: C_25  and  C_27
REMARK                            x       y       z     vdW  Elec       q    Type
REMARK                         _______ _______ _______ _____ _____    ______ ____
ROOT
ATOM      1  C   UNL     1      45.087   8.672  11.503  0.00  0.00    +0.000 A 
ATOM      2  C   UNL     1      46.033   9.654  11.831  0.00  0.00    +0.000 A 
ATOM      3  C   UNL     1      47.321   9.295  12.225  0.00  0.00    +0.000 A 
ATOM      4  C   UNL     1      47.686   7.947  12.294  0.00  0.00    +0.000 A 
ATOM      5  C   UNL     1      46.737   6.965  11.968  0.00  0.00    +0.000 A 
ATOM      6  C   UNL     1      45.423   7.306  11.595  0.00  0.00    +0.000 A 
ENDROOT
BRANCH   1   8
ATOM      7  N   UNL     1      42.742   9.459  10.715  0.00  0.00    +0.000 NA
ATOM      8  C   UNL     1      43.789   9.105  11.070  0.00  0.00    +0.000 C 
ENDBRANCH   1   8
BRANCH   4   9
ATOM      9  C   UNL     1      49.093   7.569  12.675  0.00  0.00    +0.000 C 
BRANCH   9  10
ATOM     10  N   UNL     1      49.118   6.841  13.918  0.00  0.00    +0.000 N 
ATOM     11  C   UNL     1      49.013   7.454  15.140  0.00  0.00    +0.000 C 
ATOM     12  O   UNL     1      48.876   8.669  15.258  0.00  0.00    +0.000 OA
ATOM     13  H   UNL     1      49.439   5.880  13.867  0.00  0.00    +0.000 HD
BRANCH  11  14
ATOM     14  C   UNL     1      49.004   6.568  16.313  0.00  0.00    +0.000 A 
ATOM     15  C   UNL     1      49.749   6.907  17.435  0.00  0.00    +0.000 A 
ATOM     16  S   UNL     1      49.593   5.800  18.723  0.00  0.00    +0.000 S 
ATOM     17  C   UNL     1      48.562   4.801  17.811  0.00  0.00    +0.000 A 
ATOM     18  N   UNL     1      48.073   3.642  18.327  0.00  0.00    +0.000 NA
ATOM     19  C   UNL     1      47.327   2.969  17.522  0.00  0.00    +0.000 A 
ATOM     20  N   UNL     1      47.018   3.352  16.241  0.00  0.00    +0.000 N 
ATOM     21  C   UNL     1      47.451   4.533  15.691  0.00  0.00    +0.000 A 
ATOM     22  O   UNL     1      47.093   4.880  14.571  0.00  0.00    +0.000 OA
ATOM     23  C   UNL     1      48.319   5.317  16.550  0.00  0.00    +0.000 A 
ATOM     24  H   UNL     1      46.407   2.791  15.666  0.00  0.00    +0.000 HD
ENDBRANCH  11  14
ENDBRANCH   9  10
ENDBRANCH   4   9
BRANCH   6  25
ATOM     25  C   UNL     1      44.426   6.199  11.331  0.00  0.00    +0.000 C 
BRANCH  25  26
ATOM     26  N   UNL     1      44.753   5.405  10.173  0.00  0.00    +0.000 N 
ATOM     27  C   UNL     1      44.234   4.148   9.948  0.00  0.00    +0.000 C 
ATOM     28  O   UNL     1      43.452   3.587  10.711  0.00  0.00    +0.000 OA
ATOM     29  H   UNL     1      45.424   5.751   9.492  0.00  0.00    +0.000 HD
BRANCH  27  30
ATOM     30  C   UNL     1      44.653   3.552   8.591  0.00  0.00    +0.000 C 
ATOM     31  C   UNL     1      45.443   2.258   8.735  0.00  0.00    +0.000 C 
ATOM     32  C   UNL     1      46.420   2.328   7.587  0.00  0.00    +0.000 C 
ATOM     33  C   UNL     1      46.689   3.811   7.488  0.00  0.00    +0.000 C 
ATOM     34  O   UNL     1      45.462   4.466   7.828  0.00  0.00    +0.000 OA
ENDBRANCH  27  30
ENDBRANCH  25  26
ENDBRANCH   6  25
TORSDOF 7
ENDMDL
MODEL 3
REMARK VINA RESULT:    -7.395      3.472      8.496
REMARK INTER + INTRA:         -11.387
REMARK INTER:                  -9.842
REMARK INTRA:                  -1.544
REMARK UNBOUND:                -0.965
REMARK  Name = 
REMARK  7 active torsions:
REMARK  status: ('A' for Active; 'I' for Inactive)
REMARK    1  A    between atoms: C_2  and  C_3
REMARK    2  A    between atoms: C_6  and  C_7
REMARK    3  A    between atoms: C_7  and  N_8
REMARK    4  A    between atoms: C_9  and  C_11
REMARK    5  A    between atoms: C_22  and  C_23
REMARK    6  A    between atoms: C_23  and  N_24
REMARK    7  A    between atoms: C_25  and  C_27
REMARK                            x       y       z     vdW  Elec       q    Type
REMARK                         _______ _______ _______ _____ _____    ______ ____
ROOT
ATOM      1  C   UNL     1      51.388   4.022  17.565  0.00  0.00    +0.000 A 
ATOM      2  C   UNL     1      50.852   2.734  17.416  0.00  0.00    +0.000 A 
ATOM      3  C   UNL     1      49.491   2.553  17.182  0.00  0.00    +0.000 A 
ATOM      4  C   UNL     1      48.641   3.659  17.088  0.00  0.00    +0.000 A 
ATOM      5  C   UNL     1      49.176   4.948  17.240  0.00  0.00    +0.000 A 
ATOM      6  C   UNL     1      50.545   5.149  17.506  0.00  0.00    +0.000 A 
ENDROOT
BRANCH   1   8
ATOM      7  N   UNL     1      53.948   4.249  17.929  0.00  0.00    +0.000 NA
ATOM      8  C   UNL     1      52.803   4.144  17.769  0.00  0.00    +0.000 C 
ENDBRANCH   1   8
BRANCH   4   9
ATOM      9  C   UNL     1      47.178   3.458  16.788  0.00  0.00    +0.000 C 
BRANCH   9  10
ATOM     10  N   UNL     1      46.718   4.394  15.793  0.00  0.00    +0.000 N 
ATOM     11  C   UNL     1      46.749   4.124  14.449  0.00  0.00    +0.000 C 
ATOM     12  O   UNL     1      47.157   3.056  14.001  0.00  0.00    +0.000 OA
ATOM     13  H   UNL     1      46.578   5.348  16.108  0.00  0.00    +0.000 HD
BRANCH  11  14
ATOM     14  C   UNL     1      46.197   5.160  13.565  0.00  0.00    +0.000 A 
ATOM     15  C   UNL     1      46.950   6.290  13.278  0.00  0.00    +0.000 A 
ATOM     16  S   UNL     1      46.186   7.371  12.202  0.00  0.00    +0.000 S 
ATOM     17  C   UNL     1      44.798   6.391  12.119  0.00  0.00    +0.000 A 
ATOM     18  N   UNL     1      43.725   6.760  11.371  0.00  0.00    +0.000 NA
ATOM     19  C   UNL     1      42.732   5.942  11.417  0.00  0.00    +0.000 A 
ATOM     20  N   UNL     1      42.714   4.777  12.143  0.00  0.00    +0.000 N 
ATOM     21  C   UNL     1      43.789   4.341  12.878  0.00  0.00    +0.000 A 
ATOM     22  O   UNL     1      43.766   3.258  13.453  0.00  0.00    +0.000 OA
ATOM     23  C   UNL     1      44.926   5.243  12.881  0.00  0.00    +0.000 A 
ATOM     24  H   UNL     1      41.913   4.164  12.120  0.00  0.00    +0.000 HD
ENDBRANCH  11  14
ENDBRANCH   9  10
ENDBRANCH   4   9
BRANCH   6  25
ATOM     25  C   UNL     1      51.046   6.559  17.736  0.00  0.00    +0.000 C 
BRANCH  25  26
ATOM     26  N   UNL     1      50.844   7.426  16.602  0.00  0.00    +0.000 N 
ATOM     27  C   UNL     1      51.774   7.584  15.598  0.00  0.00    +0.000 C 
ATOM     28  O   UNL     1      52.859   7.010  15.576  0.00  0.00    +0.000 OA
ATOM     29  H   UNL     1      49.998   7.986  16.535  0.00  0.00    +0.000 HD
BRANCH  27  30
ATOM     30  C   UNL     1      51.278   8.481  14.448  0.00  0.00    +0.000 C 
ATOM     31  C   UNL     1      50.096   7.879  13.700  0.00  0.00    +0.000 C 
ATOM     32  C   UNL     1      50.326   8.333  12.280  0.00  0.00    +0.000 C 
ATOM     33  C   UNL     1      51.834   8.343  12.189  0.00  0.00    +0.000 C 
ATOM     34  O   UNL     1      52.312   8.738  13.480  0.00  0.00    +0.000 OA
ENDBRANCH  27  30
ENDBRANCH  25  26
ENDBRANCH   6  25
TORSDOF 7
ENDMDL
MODEL 4
REMARK VINA RESULT:    -7.277      3.321      8.674
REMARK INTER + INTRA:         -11.220
REMARK INTER:                 -10.205
REMARK INTRA:                  -1.016
REMARK UNBOUND:                -0.965
REMARK  Name = 
REMARK  7 active torsions:
REMARK  status: ('A' for Active; 'I' for Inactive)
REMARK    1  A    between atoms: C_2  and  C_3
REMARK    2  A    between atoms: C_6  and  C_7
REMARK    3  A    between atoms: C_7  and  N_8
REMARK    4  A    between atoms: C_9  and  C_11
REMARK    5  A    between atoms: C_22  and  C_23
REMARK    6  A    between atoms: C_23  and  N_24
REMARK    7  A    between atoms: C_25  and  C_27
REMARK                            x       y       z     vdW  Elec       q    Type
REMARK                         _______ _______ _______ _____ _____    ______ ____
ROOT
ATOM      1  C   UNL     1      48.692   6.382  17.317  0.00  0.00    +0.000 A 
ATOM      2  C   UNL     1      49.024   7.673  16.880  0.00  0.00    +0.000 A 
ATOM      3  C   UNL     1      48.950   8.006  15.529  0.00  0.00    +0.000 A 
ATOM      4  C   UNL     1      48.540   7.053  14.591  0.00  0.00    +0.000 A 
ATOM      5  C   UNL     1      48.212   5.759  15.029  0.00  0.00    +0.000 A 
ATOM      6  C   UNL     1      48.307   5.396  16.387  0.00  0.00    +0.000 A 
ENDROOT
BRANCH   1   8
ATOM      7  N   UNL     1      48.802   5.886  19.863  0.00  0.00    +0.000 NA
ATOM      8  C   UNL     1      48.754   6.112  18.725  0.00  0.00    +0.000 C 
ENDBRANCH   1   8
BRANCH   4   9
ATOM      9  C   UNL     1      48.417   7.432  13.139  0.00  0.00    +0.000 C 
BRANCH   9  10
ATOM     10  N   UNL     1      47.627   6.470  12.414  0.00  0.00    +0.000 N 
ATOM     11  C   UNL     1      46.412   6.774  11.857  0.00  0.00    +0.000 C 
ATOM     12  O   UNL     1      45.919   7.897  11.925  0.00  0.00    +0.000 OA
ATOM     13  H   UNL     1      47.898   5.497  12.521  0.00  0.00    +0.000 HD
BRANCH  11  14
ATOM     14  C   UNL     1      45.752   5.697  11.106  0.00  0.00    +0.000 A 
ATOM     15  C   UNL     1      45.881   5.644   9.725  0.00  0.00    +0.000 A 
ATOM     16  S   UNL     1      45.095   4.310   9.011  0.00  0.00    +0.000 S 
ATOM     17  C   UNL     1      44.511   3.780  10.518  0.00  0.00    +0.000 A 
ATOM     18  N   UNL     1      43.725   2.674  10.615  0.00  0.00    +0.000 NA
ATOM     19  C   UNL     1      43.330   2.400  11.809  0.00  0.00    +0.000 A 
ATOM     20  N   UNL     1      43.655   3.130  12.925  0.00  0.00    +0.000 N 
ATOM     21  C   UNL     1      44.480   4.227  12.884  0.00  0.00    +0.000 A 
ATOM     22  O   UNL     1      44.811   4.810  13.910  0.00  0.00    +0.000 OA
ATOM     23  C   UNL     1      44.931   4.594  11.555  0.00  0.00    +0.000 A 
ATOM     24  H   UNL     1      43.333   2.849  13.839  0.00  0.00    +0.000 HD
ENDBRANCH  11  14
ENDBRANCH   9  10
ENDBRANCH   4   9
BRANCH   6  25
ATOM     25  C   UNL     1      48.013   3.966  16.784  0.00  0.00    +0.000 C 
BRANCH  25  26
ATOM     26  N   UNL     1      49.100   3.338  17.492  0.00  0.00    +0.000 N 
ATOM     27  C   UNL     1      49.811   2.269  16.989  0.00  0.00    +0.000 C 
ATOM     28  O   UNL     1      49.582   1.751  15.899  0.00  0.00    +0.000 OA
ATOM     29  H   UNL     1      49.352   3.656  18.424  0.00  0.00    +0.000 HD
BRANCH  27  30
ATOM     30  C   UNL     1      50.989   1.848  17.887  0.00  0.00    +0.000 C 
ATOM     31  C   UNL     1      52.065   2.921  17.989  0.00  0.00    +0.000 C 
ATOM     32  C   UNL     1      53.338   2.118  18.086  0.00  0.00    +0.000 C 
ATOM     33  C   UNL     1      53.020   0.914  17.230  0.00  0.00    +0.000 C 
ATOM     34  O   UNL     1      51.626   0.647  17.413  0.00  0.00    +0.000 OA
ENDBRANCH  27  30
ENDBRANCH  25  26
ENDBRANCH   6  25
TORSDOF 7
ENDMDL
MODEL 5
REMARK VINA RESULT:    -7.254      1.617      2.027
REMARK INTER + INTRA:         -11.187
REMARK INTER:                 -10.043
REMARK INTRA:                  -1.144
REMARK UNBOUND:                -0.965
REMARK  Name = 
REMARK  7 active torsions:
REMARK  status: ('A' for Active; 'I' for Inactive)
REMARK    1  A    between atoms: C_2  and  C_3
REMARK    2  A    between atoms: C_6  and  C_7
REMARK    3  A    between atoms: C_7  and  N_8
REMARK    4  A    between atoms: C_9  and  C_11
REMARK    5  A    between atoms: C_22  and  C_23
REMARK    6  A    between atoms: C_23  and  N_24
REMARK    7  A    between atoms: C_25  and  C_27
REMARK                            x       y       z     vdW  Elec       q    Type
REMARK                         _______ _______ _______ _____ _____    ______ ____
ROOT
ATOM      1  C   UNL     1      47.344   7.946  12.660  0.00  0.00    +0.000 A 
ATOM      2  C   UNL     1      48.264   7.755  13.702  0.00  0.00    +0.000 A 
ATOM      3  C   UNL     1      48.190   6.627  14.517  0.00  0.00    +0.000 A 
ATOM      4  C   UNL     1      47.195   5.668  14.302  0.00  0.00    +0.000 A 
ATOM      5  C   UNL     1      46.273   5.861  13.260  0.00  0.00    +0.000 A 
ATOM      6  C   UNL     1      46.315   7.009  12.444  0.00  0.00    +0.000 A 
ENDROOT
BRANCH   1   8
ATOM      7  N   UNL     1      47.612  10.054  11.169  0.00  0.00    +0.000 NA
ATOM      8  C   UNL     1      47.495   9.109  11.833  0.00  0.00    +0.000 C 
ENDBRANCH   1   8
BRANCH   4   9
ATOM      9  C   UNL     1      47.150   4.429  15.156  0.00  0.00    +0.000 C 
BRANCH   9  10
ATOM     10  N   UNL     1      48.376   4.261  15.895  0.00  0.00    +0.000 N 
ATOM     11  C   UNL     1      48.441   4.363  17.260  0.00  0.00    +0.000 C 
ATOM     12  O   UNL     1      47.451   4.590  17.951  0.00  0.00    +0.000 OA
ATOM     13  H   UNL     1      49.233   4.284  15.351  0.00  0.00    +0.000 HD
BRANCH  11  14
ATOM     14  C   UNL     1      49.755   4.115  17.870  0.00  0.00    +0.000 A 
ATOM     15  C   UNL     1      50.292   5.047  18.747  0.00  0.00    +0.000 A 
ATOM     16  S   UNL     1      51.798   4.588  19.401  0.00  0.00    +0.000 S 
ATOM     17  C   UNL     1      51.813   3.148  18.496  0.00  0.00    +0.000 A 
ATOM     18  N   UNL     1      52.860   2.284  18.571  0.00  0.00    +0.000 NA
ATOM     19  C   UNL     1      52.756   1.247  17.816  0.00  0.00    +0.000 A 
ATOM     20  N   UNL     1      51.691   0.989  16.989  0.00  0.00    +0.000 N 
ATOM     21  C   UNL     1      50.591   1.808  16.912  0.00  0.00    +0.000 A 
ATOM     22  O   UNL     1      49.624   1.507  16.221  0.00  0.00    +0.000 OA
ATOM     23  C   UNL     1      50.672   3.006  17.726  0.00  0.00    +0.000 A 
ATOM     24  H   UNL     1      51.657   0.144  16.438  0.00  0.00    +0.000 HD
ENDBRANCH  11  14
ENDBRANCH   9  10
ENDBRANCH   4   9
BRANCH   6  25
ATOM     25  C   UNL     1      45.246   7.195  11.389  0.00  0.00    +0.000 C 
BRANCH  25  26
ATOM     26  N   UNL     1      45.153   6.087  10.472  0.00  0.00    +0.000 N 
ATOM     27  C   UNL     1      44.154   5.140  10.531  0.00  0.00    +0.000 C 
ATOM     28  O   UNL     1      43.256   5.147  11.369  0.00  0.00    +0.000 OA
ATOM     29  H   UNL     1      45.868   5.954   9.761  0.00  0.00    +0.000 HD
BRANCH  27  30
ATOM     30  C   UNL     1      44.216   4.121   9.378  0.00  0.00    +0.000 C 
ATOM     31  C   UNL     1      44.692   2.747   9.831  0.00  0.00    +0.000 C 
ATOM     32  C   UNL     1      45.476   2.250   8.642  0.00  0.00    +0.000 C 
ATOM     33  C   UNL     1      46.068   3.528   8.095  0.00  0.00    +0.000 C 
ATOM     34  O   UNL     1      45.095   4.553   8.323  0.00  0.00    +0.000 OA
ENDBRANCH  27  30
ENDBRANCH  25  26
ENDBRANCH   6  25
TORSDOF 7
ENDMDL
MODEL 6
REMARK VINA RESULT:    -7.192      3.412      8.878
REMARK INTER + INTRA:         -11.100
REMARK INTER:                  -9.564
REMARK INTRA:                  -1.536
REMARK UNBOUND:                -0.965
REMARK  Name = 
REMARK  7 active torsions:
REMARK  status: ('A' for Active; 'I' for Inactive)
REMARK    1  A    between atoms: C_2  and  C_3
REMARK    2  A    between atoms: C_6  and  C_7
REMARK    3  A    between atoms: C_7  and  N_8
REMARK    4  A    between atoms: C_9  and  C_11
REMARK    5  A    between atoms: C_22  and  C_23
REMARK    6  A    between atoms: C_23  and  N_24
REMARK    7  A    between atoms: C_25  and  C_27
REMARK                            x       y       z     vdW  Elec       q    Type
REMARK                         _______ _______ _______ _____ _____    ______ ____
ROOT
ATOM      1  C   UNL     1      51.386   3.874  17.582  0.00  0.00    +0.000 A 
ATOM      2  C   UNL     1      50.817   2.605  17.396  0.00  0.00    +0.000 A 
ATOM      3  C   UNL     1      49.452   2.468  17.151  0.00  0.00    +0.000 A 
ATOM      4  C   UNL     1      48.633   3.599  17.084  0.00  0.00    +0.000 A 
ATOM      5  C   UNL     1      49.202   4.869  17.273  0.00  0.00    +0.000 A 
ATOM      6  C   UNL     1      50.575   5.025  17.550  0.00  0.00    +0.000 A 
ENDROOT
BRANCH   1   8
ATOM      7  N   UNL     1      53.949   4.010  17.974  0.00  0.00    +0.000 NA
ATOM      8  C   UNL     1      52.803   3.951  17.795  0.00  0.00    +0.000 C 
ENDBRANCH   1   8
BRANCH   4   9
ATOM      9  C   UNL     1      47.167   3.447  16.772  0.00  0.00    +0.000 C 
BRANCH   9  10
ATOM     10  N   UNL     1      46.746   4.396  15.773  0.00  0.00    +0.000 N 
ATOM     11  C   UNL     1      46.797   4.132  14.429  0.00  0.00    +0.000 C 
ATOM     12  O   UNL     1      47.192   3.058  13.983  0.00  0.00    +0.000 OA
ATOM     13  H   UNL     1      46.619   5.352  16.090  0.00  0.00    +0.000 HD
BRANCH  11  14
ATOM     14  C   UNL     1      46.284   5.184  13.539  0.00  0.00    +0.000 A 
ATOM     15  C   UNL     1      47.074   6.290  13.257  0.00  0.00    +0.000 A 
ATOM     16  S   UNL     1      46.353   7.392  12.174  0.00  0.00    +0.000 S 
ATOM     17  C   UNL     1      44.936   6.456  12.081  0.00  0.00    +0.000 A 
ATOM     18  N   UNL     1      43.880   6.857  11.324  0.00  0.00    +0.000 NA
ATOM     19  C   UNL     1      42.862   6.070  11.363  0.00  0.00    +0.000 A 
ATOM     20  N   UNL     1      42.803   4.907  12.091  0.00  0.00    +0.000 N 
ATOM     21  C   UNL     1      43.858   4.439  12.835  0.00  0.00    +0.000 A 
ATOM     22  O   UNL     1      43.797   3.358  13.410  0.00  0.00    +0.000 OA
ATOM     23  C   UNL     1      45.022   5.305  12.845  0.00  0.00    +0.000 A 
ATOM     24  H   UNL     1      41.983   4.319  12.062  0.00  0.00    +0.000 HD
ENDBRANCH  11  14
ENDBRANCH   9  10
ENDBRANCH   4   9
BRANCH   6  25
ATOM     25  C   UNL     1      51.113   6.414  17.820  0.00  0.00    +0.000 C 
BRANCH  25  26
ATOM     26  N   UNL     1      50.443   7.440  17.061  0.00  0.00    +0.000 N 
ATOM     27  C   UNL     1      49.869   8.552  17.639  0.00  0.00    +0.000 C 
ATOM     28  O   UNL     1      49.869   8.770  18.847  0.00  0.00    +0.000 OA
ATOM     29  H   UNL     1      50.343   7.345  16.054  0.00  0.00    +0.000 HD
BRANCH  27  30
ATOM     30  C   UNL     1      49.310   9.550  16.607  0.00  0.00    +0.000 C 
ATOM     31  C   UNL     1      48.391   8.891  15.587  0.00  0.00    +0.000 C 
ATOM     32  C   UNL     1      48.667   9.672  14.326  0.00  0.00    +0.000 C 
ATOM     33  C   UNL     1      50.132  10.010  14.476  0.00  0.00    +0.000 C 
ATOM     34  O   UNL     1      50.358  10.213  15.875  0.00  0.00    +0.000 OA
ENDBRANCH  27  30
ENDBRANCH  25  26
ENDBRANCH   6  25
TORSDOF 7
ENDMDL
MODEL 7
REMARK VINA RESULT:    -7.036      3.491      8.664
REMARK INTER + INTRA:         -10.880
REMARK INTER:                  -9.651
REMARK INTRA:                  -1.229
REMARK UNBOUND:                -0.965
REMARK  Name = 
REMARK  7 active torsions:
REMARK  status: ('A' for Active; 'I' for Inactive)
REMARK    1  A    between atoms: C_2  and  C_3
REMARK    2  A    between atoms: C_6  and  C_7
REMARK    3  A    between atoms: C_7  and  N_8
REMARK    4  A    between atoms: C_9  and  C_11
REMARK    5  A    between atoms: C_22  and  C_23
REMARK    6  A    between atoms: C_23  and  N_24
REMARK    7  A    between atoms: C_25  and  C_27
REMARK                            x       y       z     vdW  Elec       q    Type
REMARK                         _______ _______ _______ _____ _____    ______ ____
ROOT
ATOM      1  C   UNL     1      50.718   8.233  13.318  0.00  0.00    +0.000 A 
ATOM      2  C   UNL     1      50.384   8.200  11.956  0.00  0.00    +0.000 A 
ATOM      3  C   UNL     1      49.051   8.150  11.552  0.00  0.00    +0.000 A 
ATOM      4  C   UNL     1      48.028   8.135  12.505  0.00  0.00    +0.000 A 
ATOM      5  C   UNL     1      48.363   8.165  13.869  0.00  0.00    +0.000 A 
ATOM      6  C   UNL     1      49.705   8.187  14.296  0.00  0.00    +0.000 A 
ENDROOT
BRANCH   1   8
ATOM      7  N   UNL     1      53.228   8.388  13.961  0.00  0.00    +0.000 NA
ATOM      8  C   UNL     1      52.106   8.320  13.669  0.00  0.00    +0.000 C 
ENDBRANCH   1   8
BRANCH   4   9
ATOM      9  C   UNL     1      46.588   8.129  12.061  0.00  0.00    +0.000 C 
BRANCH   9  10
ATOM     10  N   UNL     1      46.123   6.786  11.823  0.00  0.00    +0.000 N 
ATOM     11  C   UNL     1      44.823   6.496  11.499  0.00  0.00    +0.000 C 
ATOM     12  O   UNL     1      43.966   7.367  11.375  0.00  0.00    +0.000 OA
ATOM     13  H   UNL     1      46.742   6.039  12.121  0.00  0.00    +0.000 HD
BRANCH  11  14
ATOM     14  C   UNL     1      44.518   5.082  11.237  0.00  0.00    +0.000 A 
ATOM     15  C   UNL     1      43.757   4.364  12.149  0.00  0.00    +0.000 A 
ATOM     16  S   UNL     1      43.454   2.754  11.675  0.00  0.00    +0.000 S 
ATOM     17  C   UNL     1      44.371   2.943  10.256  0.00  0.00    +0.000 A 
ATOM     18  N   UNL     1      44.543   1.909   9.390  0.00  0.00    +0.000 NA
ATOM     19  C   UNL     1      45.280   2.180   8.370  0.00  0.00    +0.000 A 
ATOM     20  N   UNL     1      45.862   3.399   8.130  0.00  0.00    +0.000 N 
ATOM     21  C   UNL     1      45.683   4.485   8.952  0.00  0.00    +0.000 A 
ATOM     22  O   UNL     1      46.155   5.580   8.667  0.00  0.00    +0.000 OA
ATOM     23  C   UNL     1      44.880   4.224  10.132  0.00  0.00    +0.000 A 
ATOM     24  H   UNL     1      46.412   3.556   7.298  0.00  0.00    +0.000 HD
ENDBRANCH  11  14
ENDBRANCH   9  10
ENDBRANCH   4   9
BRANCH   6  25
ATOM     25  C   UNL     1      50.000   8.141  15.779  0.00  0.00    +0.000 C 
BRANCH  25  26
ATOM     26  N   UNL     1      49.353   7.044  16.454  0.00  0.00    +0.000 N 
ATOM     27  C   UNL     1      50.013   5.894  16.831  0.00  0.00    +0.000 C 
ATOM     28  O   UNL     1      51.207   5.694  16.624  0.00  0.00    +0.000 OA
ATOM     29  H   UNL     1      48.354   7.080  16.640  0.00  0.00    +0.000 HD
BRANCH  27  30
ATOM     30  C   UNL     1      49.127   4.919  17.629  0.00  0.00    +0.000 C 
ATOM     31  C   UNL     1      49.363   3.463  17.250  0.00  0.00    +0.000 C 
ATOM     32  C   UNL     1      47.992   2.849  17.391  0.00  0.00    +0.000 C 
ATOM     33  C   UNL     1      47.090   3.990  16.985  0.00  0.00    +0.000 C 
ATOM     34  O   UNL     1      47.725   5.189  17.442  0.00  0.00    +0.000 OA
ENDBRANCH  27  30
ENDBRANCH  25  26
ENDBRANCH   6  25
TORSDOF 7
ENDMDL
MODEL 8
REMARK VINA RESULT:    -7.014      3.313      6.327
REMARK INTER + INTRA:         -10.850
REMARK INTER:                  -8.968
REMARK INTRA:                  -1.882
REMARK UNBOUND:                -0.965
REMARK  Name = 
REMARK  7 active torsions:
REMARK  status: ('A' for Active; 'I' for Inactive)
REMARK    1  A    between atoms: C_2  and  C_3
REMARK    2  A    between atoms: C_6  and  C_7
REMARK    3  A    between atoms: C_7  and  N_8
REMARK    4  A    between atoms: C_9  and  C_11
REMARK    5  A    between atoms: C_22  and  C_23
REMARK    6  A    between atoms: C_23  and  N_24
REMARK    7  A    between atoms: C_25  and  C_27
REMARK                            x       y       z     vdW  Elec       q    Type
REMARK                         _______ _______ _______ _____ _____    ______ ____
ROOT
ATOM      1  C   UNL     1      45.312   5.085  11.883  0.00  0.00    +0.000 A 
ATOM      2  C   UNL     1      44.779   6.256  11.325  0.00  0.00    +0.000 A 
ATOM      3  C   UNL     1      45.187   7.509  11.779  0.00  0.00    +0.000 A 
ATOM      4  C   UNL     1      46.139   7.611  12.798  0.00  0.00    +0.000 A 
ATOM      5  C   UNL     1      46.670   6.438  13.359  0.00  0.00    +0.000 A 
ATOM      6  C   UNL     1      46.249   5.163  12.932  0.00  0.00    +0.000 A 
ENDROOT
BRANCH   1   8
ATOM      7  N   UNL     1      44.521   2.808  10.919  0.00  0.00    +0.000 NA
ATOM      8  C   UNL     1      44.878   3.826  11.347  0.00  0.00    +0.000 C 
ENDBRANCH   1   8
BRANCH   4   9
ATOM      9  C   UNL     1      46.610   8.968  13.252  0.00  0.00    +0.000 C 
BRANCH   9  10
ATOM     10  N   UNL     1      47.122   8.917  14.599  0.00  0.00    +0.000 N 
ATOM     11  C   UNL     1      48.422   9.218  14.911  0.00  0.00    +0.000 C 
ATOM     12  O   UNL     1      49.239   9.567  14.063  0.00  0.00    +0.000 OA
ATOM     13  H   UNL     1      46.543   8.436  15.279  0.00  0.00    +0.000 HD
BRANCH  11  14
ATOM     14  C   UNL     1      48.777   9.169  16.337  0.00  0.00    +0.000 A 
ATOM     15  C   UNL     1      48.242  10.107  17.209  0.00  0.00    +0.000 A 
ATOM     16  S   UNL     1      48.715   9.884  18.832  0.00  0.00    +0.000 S 
ATOM     17  C   UNL     1      49.694   8.555  18.421  0.00  0.00    +0.000 A 
ATOM     18  N   UNL     1      50.418   7.900  19.366  0.00  0.00    +0.000 NA
ATOM     19  C   UNL     1      51.135   6.930  18.916  0.00  0.00    +0.000 A 
ATOM     20  N   UNL     1      51.192   6.548  17.599  0.00  0.00    +0.000 N 
ATOM     21  C   UNL     1      50.445   7.151  16.615  0.00  0.00    +0.000 A 
ATOM     22  O   UNL     1      50.463   6.734  15.462  0.00  0.00    +0.000 OA
ATOM     23  C   UNL     1      49.640   8.269  17.068  0.00  0.00    +0.000 A 
ATOM     24  H   UNL     1      51.756   5.763  17.311  0.00  0.00    +0.000 HD
ENDBRANCH  11  14
ENDBRANCH   9  10
ENDBRANCH   4   9
BRANCH   6  25
ATOM     25  C   UNL     1      46.802   3.939  13.628  0.00  0.00    +0.000 C 
BRANCH  25  26
ATOM     26  N   UNL     1      46.703   4.009  15.065  0.00  0.00    +0.000 N 
ATOM     27  C   UNL     1      47.553   3.332  15.914  0.00  0.00    +0.000 C 
ATOM     28  O   UNL     1      48.466   2.607  15.529  0.00  0.00    +0.000 OA
ATOM     29  H   UNL     1      45.957   4.547  15.497  0.00  0.00    +0.000 HD
BRANCH  27  30
ATOM     30  C   UNL     1      47.307   3.655  17.400  0.00  0.00    +0.000 C 
ATOM     31  C   UNL     1      47.361   5.148  17.695  0.00  0.00    +0.000 C 
ATOM     32  C   UNL     1      47.959   5.199  19.079  0.00  0.00    +0.000 C 
ATOM     33  C   UNL     1      48.898   4.016  19.063  0.00  0.00    +0.000 C 
ATOM     34  O   UNL     1      48.270   3.013  18.257  0.00  0.00    +0.000 OA
ENDBRANCH  27  30
ENDBRANCH  25  26
ENDBRANCH   6  25
TORSDOF 7
ENDMDL
MODEL 9
REMARK VINA RESULT:    -6.995      3.723      8.963
REMARK INTER + INTRA:         -10.822
REMARK INTER:                  -8.776
REMARK INTRA:                  -2.046
REMARK UNBOUND:                -0.965
REMARK  Name = 
REMARK  7 active torsions:
REMARK  status: ('A' for Active; 'I' for Inactive)
REMARK    1  A    between atoms: C_2  and  C_3
REMARK    2  A    between atoms: C_6  and  C_7
REMARK    3  A    between atoms: C_7  and  N_8
REMARK    4  A    between atoms: C_9  and  C_11
REMARK    5  A    between atoms: C_22  and  C_23
REMARK    6  A    between atoms: C_23  and  N_24
REMARK    7  A    between atoms: C_25  and  C_27
REMARK                            x       y       z     vdW  Elec       q    Type
REMARK                         _______ _______ _______ _____ _____    ______ ____
ROOT
ATOM      1  C   UNL     1      51.327   2.966  17.756  0.00  0.00    +0.000 A 
ATOM      2  C   UNL     1      50.577   1.946  17.152  0.00  0.00    +0.000 A 
ATOM      3  C   UNL     1      49.231   2.139  16.849  0.00  0.00    +0.000 A 
ATOM      4  C   UNL     1      48.612   3.358  17.141  0.00  0.00    +0.000 A 
ATOM      5  C   UNL     1      49.362   4.378  17.748  0.00  0.00    +0.000 A 
ATOM      6  C   UNL     1      50.716   4.192  18.088  0.00  0.00    +0.000 A 
ENDROOT
BRANCH   1   8
ATOM      7  N   UNL     1      53.844   2.527  18.217  0.00  0.00    +0.000 NA
ATOM      8  C   UNL     1      52.718   2.719  18.011  0.00  0.00    +0.000 C 
ENDBRANCH   1   8
BRANCH   4   9
ATOM      9  C   UNL     1      47.169   3.576  16.768  0.00  0.00    +0.000 C 
BRANCH   9  10
ATOM     10  N   UNL     1      47.041   4.596  15.758  0.00  0.00    +0.000 N 
ATOM     11  C   UNL     1      47.074   4.322  14.416  0.00  0.00    +0.000 C 
ATOM     12  O   UNL     1      47.200   3.180  13.980  0.00  0.00    +0.000 OA
ATOM     13  H   UNL     1      47.149   5.554  16.075  0.00  0.00    +0.000 HD
BRANCH  11  14
ATOM     14  C   UNL     1      46.879   5.465  13.513  0.00  0.00    +0.000 A 
ATOM     15  C   UNL     1      45.805   5.470  12.634  0.00  0.00    +0.000 A 
ATOM     16  S   UNL     1      45.695   6.886  11.690  0.00  0.00    +0.000 S 
ATOM     17  C   UNL     1      47.109   7.525  12.387  0.00  0.00    +0.000 A 
ATOM     18  N   UNL     1      47.599   8.731  11.996  0.00  0.00    +0.000 NA
ATOM     19  C   UNL     1      48.689   9.083  12.585  0.00  0.00    +0.000 A 
ATOM     20  N   UNL     1      49.336   8.339  13.538  0.00  0.00    +0.000 N 
ATOM     21  C   UNL     1      48.857   7.136  13.997  0.00  0.00    +0.000 A 
ATOM     22  O   UNL     1      49.420   6.534  14.905  0.00  0.00    +0.000 OA
ATOM     23  C   UNL     1      47.643   6.681  13.345  0.00  0.00    +0.000 A 
ATOM     24  H   UNL     1      50.176   8.681  13.981  0.00  0.00    +0.000 HD
ENDBRANCH  11  14
ENDBRANCH   9  10
ENDBRANCH   4   9
BRANCH   6  25
ATOM     25  C   UNL     1      51.449   5.302  18.810  0.00  0.00    +0.000 C 
BRANCH  25  26
ATOM     26  N   UNL     1      50.700   6.532  18.868  0.00  0.00    +0.000 N 
ATOM     27  C   UNL     1      51.061   7.670  18.179  0.00  0.00    +0.000 C 
ATOM     28  O   UNL     1      52.052   7.743  17.458  0.00  0.00    +0.000 OA
ATOM     29  H   UNL     1      49.882   6.602  19.469  0.00  0.00    +0.000 HD
BRANCH  27  30
ATOM     30  C   UNL     1      50.042   8.815  18.322  0.00  0.00    +0.000 C 
ATOM     31  C   UNL     1      48.824   8.420  19.146  0.00  0.00    +0.000 C 
ATOM     32  C   UNL     1      47.704   9.187  18.488  0.00  0.00    +0.000 C 
ATOM     33  C   UNL     1      48.135   9.197  17.040  0.00  0.00    +0.000 C 
ATOM     34  O   UNL     1      49.565   9.276  17.045  0.00  0.00    +0.000 OA
ENDBRANCH  27  30
ENDBRANCH  25  26
ENDBRANCH   6  25
TORSDOF 7
ENDMDL
