MODEL 1
REMARK VINA RESULT:    -8.524      0.000      0.000
REMARK INTER + INTRA:         -11.404
REMARK INTER:                 -11.016
REMARK INTRA:                  -0.388
REMARK UNBOUND:                -0.388
REMARK  Name = 
REMARK  6 active torsions:
REMARK  status: ('A' for Active; 'I' for Inactive)
REMARK    1  A    between atoms: C_1  and  C_2
REMARK    2  A    between atoms: C_2  and  N_3
REMARK    3  A    between atoms: C_2  and  C_16
REMARK    4  A    between atoms: C_4  and  C_6
REMARK    5  A    between atoms: C_19  and  O_20
REMARK    6  A    between atoms: O_20  and  C_21
REMARK                            x       y       z     vdW  Elec       q    Type
REMARK                         _______ _______ _______ _____ _____    ______ ____
ROOT
ATOM      1  C   UNL     1      42.967   5.046  13.517  0.00  0.00    +0.000 C 
ATOM      2  C   UNL     1      44.318   4.441  13.120  0.00  0.00    +0.000 C 
ENDROOT
BRANCH   2   3
ATOM      3  C   UNL     1      44.619   4.472  11.631  0.00  0.00    +0.000 A 
ATOM      4  C   UNL     1      44.139   3.418  10.837  0.00  0.00    +0.000 A 
ATOM      5  C   UNL     1      44.417   3.362   9.471  0.00  0.00    +0.000 A 
ATOM      6  C   UNL     1      45.145   4.381   8.858  0.00  0.00    +0.000 A 
ATOM      7  C   UNL     1      45.659   5.418   9.639  0.00  0.00    +0.000 A 
ATOM      8  C   UNL     1      45.403   5.459  11.016  0.00  0.00    +0.000 A 
BRANCH   6   9
ATOM      9  O   UNL     1      45.460   4.392   7.517  0.00  0.00    +0.000 OA
BRANCH   9  10
ATOM     10  C   UNL     1      46.260   3.365   7.025  0.00  0.00    +0.000 A 
ATOM     11  C   UNL     1      46.808   3.545   5.764  0.00  0.00    +0.000 A 
ATOM     12  C   UNL     1      47.627   2.541   5.251  0.00  0.00    +0.000 A 
ATOM     13  C   UNL     1      47.867   1.401   6.011  0.00  0.00    +0.000 A 
ATOM     14  C   UNL     1      47.262   1.302   7.253  0.00  0.00    +0.000 A 
ATOM     15  N   UNL     1      46.448   2.248   7.764  0.00  0.00    +0.000 NA
ENDBRANCH   9  10
ENDBRANCH   6   9
ENDBRANCH   2   3
BRANCH   2  16
ATOM     16  N   UNL     1      45.401   5.090  13.834  0.00  0.00    +0.000 N 
ATOM     17  C   UNL     1      46.527   4.416  14.230  0.00  0.00    +0.000 C 
ATOM     18  O   UNL     1      46.725   3.238  13.944  0.00  0.00    +0.000 OA
ATOM     19  H   UNL     1      45.213   6.014  14.207  0.00  0.00    +0.000 HD
BRANCH  17  20
ATOM     20  C   UNL     1      47.524   5.196  14.968  0.00  0.00    +0.000 A 
ATOM     21  C   UNL     1      48.230   6.201  14.323  0.00  0.00    +0.000 A 
ATOM     22  S   UNL     1      49.343   7.008  15.332  0.00  0.00    +0.000 S 
ATOM     23  C   UNL     1      48.954   6.008  16.652  0.00  0.00    +0.000 A 
ATOM     24  N   UNL     1      49.593   6.142  17.845  0.00  0.00    +0.000 NA
ATOM     25  C   UNL     1      49.232   5.288  18.743  0.00  0.00    +0.000 A 
ATOM     26  N   UNL     1      48.275   4.321  18.562  0.00  0.00    +0.000 N 
ATOM     27  C   UNL     1      47.561   4.186  17.394  0.00  0.00    +0.000 A 
ATOM     28  O   UNL     1      46.644   3.376  17.298  0.00  0.00    +0.000 OA
ATOM     29  C   UNL     1      47.962   5.092  16.338  0.00  0.00    +0.000 A 
ATOM     30  H   UNL     1      48.019   3.704  19.318  0.00  0.00    +0.000 HD
ENDBRANCH  17  20
ENDBRANCH   2  16
TORSDOF 5
ENDMDL
MODEL 2
REMARK VINA RESULT:    -8.434      1.713      2.399
REMARK INTER + INTRA:         -11.288
REMARK INTER:                 -11.246
REMARK INTRA:                  -0.041
REMARK UNBOUND:                -0.388
REMARK  Name = 
REMARK  6 active torsions:
REMARK  status: ('A' for Active; 'I' for Inactive)
REMARK    1  A    between atoms: C_1  and  C_2
REMARK    2  A    between atoms: C_2  and  N_3
REMARK    3  A    between atoms: C_2  and  C_16
REMARK    4  A    between atoms: C_4  and  C_6
REMARK    5  A    between atoms: C_19  and  O_20
REMARK    6  A    between atoms: O_20  and  C_21
REMARK                            x       y       z     vdW  Elec       q    Type
REMARK                         _______ _______ _______ _____ _____    ______ ____
ROOT
ATOM      1  C   UNL     1      46.876   8.608  11.967  0.00  0.00    +0.000 C 
ATOM      2  C   UNL     1      46.067   7.552  12.730  0.00  0.00    +0.000 C 
ENDROOT
BRANCH   2   3
ATOM      3  C   UNL     1      45.683   6.329  11.913  0.00  0.00    +0.000 A 
ATOM      4  C   UNL     1      46.039   6.302  10.555  0.00  0.00    +0.000 A 
ATOM      5  C   UNL     1      45.680   5.231   9.738  0.00  0.00    +0.000 A 
ATOM      6  C   UNL     1      44.991   4.140  10.269  0.00  0.00    +0.000 A 
ATOM      7  C   UNL     1      44.598   4.167  11.607  0.00  0.00    +0.000 A 
ATOM      8  C   UNL     1      44.936   5.256  12.422  0.00  0.00    +0.000 A 
BRANCH   6   9
ATOM      9  O   UNL     1      44.600   3.049   9.523  0.00  0.00    +0.000 OA
BRANCH   9  10
ATOM     10  C   UNL     1      45.451   2.609   8.515  0.00  0.00    +0.000 A 
ATOM     11  C   UNL     1      45.673   3.477   7.456  0.00  0.00    +0.000 A 
ATOM     12  C   UNL     1      46.533   3.070   6.439  0.00  0.00    +0.000 A 
ATOM     13  C   UNL     1      47.137   1.818   6.514  0.00  0.00    +0.000 A 
ATOM     14  C   UNL     1      46.841   1.014   7.601  0.00  0.00    +0.000 A 
ATOM     15  N   UNL     1      45.997   1.373   8.588  0.00  0.00    +0.000 NA
ENDBRANCH   9  10
ENDBRANCH   6   9
ENDBRANCH   2   3
BRANCH   2  16
ATOM     16  N   UNL     1      46.776   7.121  13.919  0.00  0.00    +0.000 N 
ATOM     17  C   UNL     1      48.022   6.553  13.866  0.00  0.00    +0.000 C 
ATOM     18  O   UNL     1      48.649   6.437  12.816  0.00  0.00    +0.000 OA
ATOM     19  H   UNL     1      46.238   7.071  14.778  0.00  0.00    +0.000 HD
BRANCH  17  20
ATOM     20  C   UNL     1      48.602   6.141  15.147  0.00  0.00    +0.000 A 
ATOM     21  C   UNL     1      49.697   6.821  15.660  0.00  0.00    +0.000 A 
ATOM     22  S   UNL     1      50.238   6.211  17.157  0.00  0.00    +0.000 S 
ATOM     23  C   UNL     1      49.057   4.986  17.146  0.00  0.00    +0.000 A 
ATOM     24  N   UNL     1      48.994   4.066  18.146  0.00  0.00    +0.000 NA
ATOM     25  C   UNL     1      48.081   3.167  17.986  0.00  0.00    +0.000 A 
ATOM     26  N   UNL     1      47.213   3.114  16.925  0.00  0.00    +0.000 N 
ATOM     27  C   UNL     1      47.201   4.057  15.923  0.00  0.00    +0.000 A 
ATOM     28  O   UNL     1      46.348   4.038  15.040  0.00  0.00    +0.000 OA
ATOM     29  C   UNL     1      48.238   5.062  16.031  0.00  0.00    +0.000 A 
ATOM     30  H   UNL     1      46.502   2.401  16.877  0.00  0.00    +0.000 HD
ENDBRANCH  17  20
ENDBRANCH   2  16
TORSDOF 5
ENDMDL
MODEL 3
REMARK VINA RESULT:    -8.158      1.998      3.061
REMARK INTER + INTRA:         -10.930
REMARK INTER:                 -10.900
REMARK INTRA:                  -0.030
REMARK UNBOUND:                -0.388
REMARK  Name = 
REMARK  6 active torsions:
REMARK  status: ('A' for Active; 'I' for Inactive)
REMARK    1  A    between atoms: C_1  and  C_2
REMARK    2  A    between atoms: C_2  and  N_3
REMARK    3  A    between atoms: C_2  and  C_16
REMARK    4  A    between atoms: C_4  and  C_6
REMARK    5  A    between atoms: C_19  and  O_20
REMARK    6  A    between atoms: O_20  and  C_21
REMARK                            x       y       z     vdW  Elec       q    Type
REMARK                         _______ _______ _______ _____ _____    ______ ____
ROOT
ATOM      1  C   UNL     1      47.950   9.086  12.530  0.00  0.00    +0.000 C 
ATOM      2  C   UNL     1      46.848   8.278  13.226  0.00  0.00    +0.000 C 
ENDROOT
BRANCH   2   3
ATOM      3  C   UNL     1      46.152   7.257  12.343  0.00  0.00    +0.000 A 
ATOM      4  C   UNL     1      44.965   6.673  12.815  0.00  0.00    +0.000 A 
ATOM      5  C   UNL     1      44.299   5.697  12.075  0.00  0.00    +0.000 A 
ATOM      6  C   UNL     1      44.780   5.310  10.823  0.00  0.00    +0.000 A 
ATOM      7  C   UNL     1      45.977   5.855  10.355  0.00  0.00    +0.000 A 
ATOM      8  C   UNL     1      46.661   6.816  11.112  0.00  0.00    +0.000 A 
BRANCH   6   9
ATOM      9  O   UNL     1      44.178   4.352  10.038  0.00  0.00    +0.000 OA
BRANCH   9  10
ATOM     10  C   UNL     1      44.970   3.662   9.127  0.00  0.00    +0.000 A 
ATOM     11  C   UNL     1      45.167   2.309   9.362  0.00  0.00    +0.000 A 
ATOM     12  C   UNL     1      45.944   1.588   8.458  0.00  0.00    +0.000 A 
ATOM     13  C   UNL     1      46.493   2.240   7.357  0.00  0.00    +0.000 A 
ATOM     14  C   UNL     1      46.255   3.596   7.214  0.00  0.00    +0.000 A 
ATOM     15  N   UNL     1      45.527   4.322   8.085  0.00  0.00    +0.000 NA
ENDBRANCH   9  10
ENDBRANCH   6   9
ENDBRANCH   2   3
BRANCH   2  16
ATOM     16  N   UNL     1      47.367   7.608  14.403  0.00  0.00    +0.000 N 
ATOM     17  C   UNL     1      48.513   6.857  14.375  0.00  0.00    +0.000 C 
ATOM     18  O   UNL     1      49.213   6.759  13.370  0.00  0.00    +0.000 OA
ATOM     19  H   UNL     1      46.748   7.550  15.205  0.00  0.00    +0.000 HD
BRANCH  17  20
ATOM     20  C   UNL     1      48.899   6.216  15.635  0.00  0.00    +0.000 A 
ATOM     21  C   UNL     1      49.973   6.710  16.360  0.00  0.00    +0.000 A 
ATOM     22  S   UNL     1      50.279   5.848  17.799  0.00  0.00    +0.000 S 
ATOM     23  C   UNL     1      49.016   4.754  17.475  0.00  0.00    +0.000 A 
ATOM     24  N   UNL     1      48.760   3.713  18.312  0.00  0.00    +0.000 NA
ATOM     25  C   UNL     1      47.806   2.936  17.920  0.00  0.00    +0.000 A 
ATOM     26  N   UNL     1      47.072   3.115  16.775  0.00  0.00    +0.000 N 
ATOM     27  C   UNL     1      47.256   4.185  15.931  0.00  0.00    +0.000 A 
ATOM     28  O   UNL     1      46.518   4.372  14.968  0.00  0.00    +0.000 OA
ATOM     29  C   UNL     1      48.347   5.063  16.302  0.00  0.00    +0.000 A 
ATOM     30  H   UNL     1      46.319   2.486  16.543  0.00  0.00    +0.000 HD
ENDBRANCH  17  20
ENDBRANCH   2  16
TORSDOF 5
ENDMDL
MODEL 4
REMARK VINA RESULT:    -7.567      3.387      4.127
REMARK INTER + INTRA:         -10.167
REMARK INTER:                  -9.634
REMARK INTRA:                  -0.533
REMARK UNBOUND:                -0.388
REMARK  Name = 
REMARK  6 active torsions:
REMARK  status: ('A' for Active; 'I' for Inactive)
REMARK    1  A    between atoms: C_1  and  C_2
REMARK    2  A    between atoms: C_2  and  N_3
REMARK    3  A    between atoms: C_2  and  C_16
REMARK    4  A    between atoms: C_4  and  C_6
REMARK    5  A    between atoms: C_19  and  O_20
REMARK    6  A    between atoms: O_20  and  C_21
REMARK                            x       y       z     vdW  Elec       q    Type
REMARK                         _______ _______ _______ _____ _____    ______ ____
ROOT
ATOM      1  C   UNL     1      45.286   8.425  12.873  0.00  0.00    +0.000 C 
ATOM      2  C   UNL     1      46.253   7.236  12.848  0.00  0.00    +0.000 C 
ENDROOT
BRANCH   2   3
ATOM      3  C   UNL     1      45.835   6.094  11.937  0.00  0.00    +0.000 A 
ATOM      4  C   UNL     1      45.984   6.264  10.551  0.00  0.00    +0.000 A 
ATOM      5  C   UNL     1      45.580   5.272   9.657  0.00  0.00    +0.000 A 
ATOM      6  C   UNL     1      45.056   4.069  10.129  0.00  0.00    +0.000 A 
ATOM      7  C   UNL     1      44.868   3.898  11.501  0.00  0.00    +0.000 A 
ATOM      8  C   UNL     1      45.249   4.905  12.398  0.00  0.00    +0.000 A 
BRANCH   6   9
ATOM      9  O   UNL     1      44.634   3.048   9.307  0.00  0.00    +0.000 OA
BRANCH   9  10
ATOM     10  C   UNL     1      45.530   2.554   8.365  0.00  0.00    +0.000 A 
ATOM     11  C   UNL     1      45.860   3.394   7.311  0.00  0.00    +0.000 A 
ATOM     12  C   UNL     1      46.768   2.933   6.360  0.00  0.00    +0.000 A 
ATOM     13  C   UNL     1      47.311   1.659   6.494  0.00  0.00    +0.000 A 
ATOM     14  C   UNL     1      46.909   0.886   7.571  0.00  0.00    +0.000 A 
ATOM     15  N   UNL     1      46.016   1.298   8.493  0.00  0.00    +0.000 NA
ENDBRANCH   9  10
ENDBRANCH   6   9
ENDBRANCH   2   3
BRANCH   2  16
ATOM     16  N   UNL     1      47.589   7.667  12.483  0.00  0.00    +0.000 N 
ATOM     17  C   UNL     1      48.712   7.155  13.077  0.00  0.00    +0.000 C 
ATOM     18  O   UNL     1      48.667   6.248  13.904  0.00  0.00    +0.000 OA
ATOM     19  H   UNL     1      47.659   8.504  11.914  0.00  0.00    +0.000 HD
BRANCH  17  20
ATOM     20  C   UNL     1      49.993   7.708  12.626  0.00  0.00    +0.000 A 
ATOM     21  C   UNL     1      50.357   7.606  11.291  0.00  0.00    +0.000 A 
ATOM     22  S   UNL     1      51.873   8.305  10.943  0.00  0.00    +0.000 S 
ATOM     23  C   UNL     1      52.115   8.724  12.575  0.00  0.00    +0.000 A 
ATOM     24  N   UNL     1      53.264   9.327  12.980  0.00  0.00    +0.000 NA
ATOM     25  C   UNL     1      53.334   9.545  14.250  0.00  0.00    +0.000 A 
ATOM     26  N   UNL     1      52.350   9.228  15.152  0.00  0.00    +0.000 N 
ATOM     27  C   UNL     1      51.148   8.673  14.781  0.00  0.00    +0.000 A 
ATOM     28  O   UNL     1      50.249   8.493  15.598  0.00  0.00    +0.000 OA
ATOM     29  C   UNL     1      51.038   8.366  13.370  0.00  0.00    +0.000 A 
ATOM     30  H   UNL     1      52.456   9.454  16.129  0.00  0.00    +0.000 HD
ENDBRANCH  17  20
ENDBRANCH   2  16
TORSDOF 5
ENDMDL
MODEL 5
REMARK VINA RESULT:    -7.420      2.750      4.032
REMARK INTER + INTRA:          -9.977
REMARK INTER:                  -8.986
REMARK INTRA:                  -0.991
REMARK UNBOUND:                -0.388
REMARK  Name = 
REMARK  6 active torsions:
REMARK  status: ('A' for Active; 'I' for Inactive)
REMARK    1  A    between atoms: C_1  and  C_2
REMARK    2  A    between atoms: C_2  and  N_3
REMARK    3  A    between atoms: C_2  and  C_16
REMARK    4  A    between atoms: C_4  and  C_6
REMARK    5  A    between atoms: C_19  and  O_20
REMARK    6  A    between atoms: O_20  and  C_21
REMARK                            x       y       z     vdW  Elec       q    Type
REMARK                         _______ _______ _______ _____ _____    ______ ____
ROOT
ATOM      1  C   UNL     1      49.227   8.624  13.090  0.00  0.00    +0.000 C 
ATOM      2  C   UNL     1      47.811   8.540  13.671  0.00  0.00    +0.000 C 
ENDROOT
BRANCH   2   3
ATOM      3  C   UNL     1      46.847   7.672  12.879  0.00  0.00    +0.000 A 
ATOM      4  C   UNL     1      47.073   6.286  12.852  0.00  0.00    +0.000 A 
ATOM      5  C   UNL     1      46.253   5.437  12.109  0.00  0.00    +0.000 A 
ATOM      6  C   UNL     1      45.161   5.948  11.408  0.00  0.00    +0.000 A 
ATOM      7  C   UNL     1      44.944   7.327  11.395  0.00  0.00    +0.000 A 
ATOM      8  C   UNL     1      45.784   8.183  12.119  0.00  0.00    +0.000 A 
BRANCH   6   9
ATOM      9  O   UNL     1      44.311   5.173  10.651  0.00  0.00    +0.000 OA
BRANCH   9  10
ATOM     10  C   UNL     1      44.873   4.306   9.720  0.00  0.00    +0.000 A 
ATOM     11  C   UNL     1      44.663   2.948   9.918  0.00  0.00    +0.000 A 
ATOM     12  C   UNL     1      45.201   2.056   8.993  0.00  0.00    +0.000 A 
ATOM     13  C   UNL     1      45.924   2.547   7.910  0.00  0.00    +0.000 A 
ATOM     14  C   UNL     1      46.096   3.917   7.805  0.00  0.00    +0.000 A 
ATOM     15  N   UNL     1      45.606   4.801   8.697  0.00  0.00    +0.000 NA
ENDBRANCH   9  10
ENDBRANCH   6   9
ENDBRANCH   2   3
BRANCH   2  16
ATOM     16  N   UNL     1      47.845   8.075  15.044  0.00  0.00    +0.000 N 
ATOM     17  C   UNL     1      48.292   8.861  16.074  0.00  0.00    +0.000 C 
ATOM     18  O   UNL     1      48.625  10.032  15.913  0.00  0.00    +0.000 OA
ATOM     19  H   UNL     1      47.715   7.080  15.193  0.00  0.00    +0.000 HD
BRANCH  17  20
ATOM     20  C   UNL     1      48.297   8.246  17.404  0.00  0.00    +0.000 A 
ATOM     21  C   UNL     1      47.806   8.953  18.493  0.00  0.00    +0.000 A 
ATOM     22  S   UNL     1      47.884   8.086  19.959  0.00  0.00    +0.000 S 
ATOM     23  C   UNL     1      48.621   6.755  19.196  0.00  0.00    +0.000 A 
ATOM     24  N   UNL     1      48.999   5.661  19.909  0.00  0.00    +0.000 NA
ATOM     25  C   UNL     1      49.588   4.748  19.212  0.00  0.00    +0.000 A 
ATOM     26  N   UNL     1      49.819   4.822  17.861  0.00  0.00    +0.000 N 
ATOM     27  C   UNL     1      49.401   5.882  17.090  0.00  0.00    +0.000 A 
ATOM     28  O   UNL     1      49.533   5.873  15.870  0.00  0.00    +0.000 OA
ATOM     29  C   UNL     1      48.775   6.956  17.833  0.00  0.00    +0.000 A 
ATOM     30  H   UNL     1      50.258   4.058  17.372  0.00  0.00    +0.000 HD
ENDBRANCH  17  20
ENDBRANCH   2  16
TORSDOF 5
ENDMDL
MODEL 6
REMARK VINA RESULT:    -7.416      2.266      3.325
REMARK INTER + INTRA:          -9.971
REMARK INTER:                  -9.336
REMARK INTRA:                  -0.635
REMARK UNBOUND:                -0.388
REMARK  Name = 
REMARK  6 active torsions:
REMARK  status: ('A' for Active; 'I' for Inactive)
REMARK    1  A    between atoms: C_1  and  C_2
REMARK    2  A    between atoms: C_2  and  N_3
REMARK    3  A    between atoms: C_2  and  C_16
REMARK    4  A    between atoms: C_4  and  C_6
REMARK    5  A    between atoms: C_19  and  O_20
REMARK    6  A    between atoms: O_20  and  C_21
REMARK                            x       y       z     vdW  Elec       q    Type
REMARK                         _______ _______ _______ _____ _____    ______ ____
ROOT
ATOM      1  C   UNL     1      43.227   5.111  13.555  0.00  0.00    +0.000 C 
ATOM      2  C   UNL     1      44.624   4.769  13.023  0.00  0.00    +0.000 C 
ENDROOT
BRANCH   2   3
ATOM      3  C   UNL     1      44.691   4.510  11.527  0.00  0.00    +0.000 A 
ATOM      4  C   UNL     1      44.049   3.367  11.024  0.00  0.00    +0.000 A 
ATOM      5  C   UNL     1      44.108   3.046   9.668  0.00  0.00    +0.000 A 
ATOM      6  C   UNL     1      44.777   3.883   8.774  0.00  0.00    +0.000 A 
ATOM      7  C   UNL     1      45.451   5.003   9.263  0.00  0.00    +0.000 A 
ATOM      8  C   UNL     1      45.414   5.311  10.630  0.00  0.00    +0.000 A 
BRANCH   6   9
ATOM      9  O   UNL     1      44.881   3.629   7.424  0.00  0.00    +0.000 OA
BRANCH   9  10
ATOM     10  C   UNL     1      45.994   2.926   6.976  0.00  0.00    +0.000 A 
ATOM     11  C   UNL     1      46.584   3.367   5.800  0.00  0.00    +0.000 A 
ATOM     12  C   UNL     1      47.709   2.691   5.334  0.00  0.00    +0.000 A 
ATOM     13  C   UNL     1      48.203   1.607   6.053  0.00  0.00    +0.000 A 
ATOM     14  C   UNL     1      47.537   1.229   7.207  0.00  0.00    +0.000 A 
ATOM     15  N   UNL     1      46.433   1.850   7.669  0.00  0.00    +0.000 NA
ENDBRANCH   9  10
ENDBRANCH   6   9
ENDBRANCH   2   3
BRANCH   2  16
ATOM     16  N   UNL     1      45.573   5.811  13.365  0.00  0.00    +0.000 N 
ATOM     17  C   UNL     1      46.869   5.537  13.715  0.00  0.00    +0.000 C 
ATOM     18  O   UNL     1      47.331   4.399  13.694  0.00  0.00    +0.000 OA
ATOM     19  H   UNL     1      45.194   6.737  13.530  0.00  0.00    +0.000 HD
BRANCH  17  20
ATOM     20  C   UNL     1      47.705   6.689  14.063  0.00  0.00    +0.000 A 
ATOM     21  C   UNL     1      48.616   6.591  15.105  0.00  0.00    +0.000 A 
ATOM     22  S   UNL     1      49.505   8.022  15.370  0.00  0.00    +0.000 S 
ATOM     23  C   UNL     1      48.667   8.836  14.132  0.00  0.00    +0.000 A 
ATOM     24  N   UNL     1      48.919  10.144  13.859  0.00  0.00    +0.000 NA
ATOM     25  C   UNL     1      48.178  10.646  12.929  0.00  0.00    +0.000 A 
ATOM     26  N   UNL     1      47.218   9.955  12.235  0.00  0.00    +0.000 N 
ATOM     27  C   UNL     1      46.970   8.617  12.435  0.00  0.00    +0.000 A 
ATOM     28  O   UNL     1      46.175   8.003  11.730  0.00  0.00    +0.000 OA
ATOM     29  C   UNL     1      47.744   8.016  13.502  0.00  0.00    +0.000 A 
ATOM     30  H   UNL     1      46.694  10.402  11.498  0.00  0.00    +0.000 HD
ENDBRANCH  17  20
ENDBRANCH   2  16
TORSDOF 5
ENDMDL
MODEL 7
REMARK VINA RESULT:    -7.372      2.916      3.855
REMARK INTER + INTRA:          -9.915
REMARK INTER:                  -8.817
REMARK INTRA:                  -1.098
REMARK UNBOUND:                -0.388
REMARK  Name = 
REMARK  6 active torsions:
REMARK  status: ('A' for Active; 'I' for Inactive)
REMARK    1  A    between atoms: C_1  and  C_2
REMARK    2  A    between atoms: C_2  and  N_3
REMARK    3  A    between atoms: C_2  and  C_16
REMARK    4  A    between atoms: C_4  and  C_6
REMARK    5  A    between atoms: C_19  and  O_20
REMARK    6  A    between atoms: O_20  and  C_21
REMARK                            x       y       z     vdW  Elec       q    Type
REMARK                         _______ _______ _______ _____ _____    ______ ____
ROOT
ATOM      1  C   UNL     1      47.512   4.073  16.275  0.00  0.00    +0.000 C 
ATOM      2  C   UNL     1      47.901   5.025  15.139  0.00  0.00    +0.000 C 
ENDROOT
BRANCH   2   3
ATOM      3  C   UNL     1      47.034   4.921  13.895  0.00  0.00    +0.000 A 
ATOM      4  C   UNL     1      46.386   3.702  13.639  0.00  0.00    +0.000 A 
ATOM      5  C   UNL     1      45.611   3.526  12.493  0.00  0.00    +0.000 A 
ATOM      6  C   UNL     1      45.432   4.578  11.595  0.00  0.00    +0.000 A 
ATOM      7  C   UNL     1      46.098   5.784  11.815  0.00  0.00    +0.000 A 
ATOM      8  C   UNL     1      46.898   5.952  12.953  0.00  0.00    +0.000 A 
BRANCH   6   9
ATOM      9  O   UNL     1      44.684   4.476  10.442  0.00  0.00    +0.000 OA
BRANCH   9  10
ATOM     10  C   UNL     1      45.278   3.890   9.329  0.00  0.00    +0.000 A 
ATOM     11  C   UNL     1      45.254   2.504   9.260  0.00  0.00    +0.000 A 
ATOM     12  C   UNL     1      45.827   1.889   8.149  0.00  0.00    +0.000 A 
ATOM     13  C   UNL     1      46.400   2.674   7.153  0.00  0.00    +0.000 A 
ATOM     14  C   UNL     1      46.391   4.048   7.317  0.00  0.00    +0.000 A 
ATOM     15  N   UNL     1      45.863   4.669   8.391  0.00  0.00    +0.000 NA
ENDBRANCH   9  10
ENDBRANCH   6   9
ENDBRANCH   2   3
BRANCH   2  16
ATOM     16  N   UNL     1      47.905   6.400  15.599  0.00  0.00    +0.000 N 
ATOM     17  C   UNL     1      49.063   7.104  15.798  0.00  0.00    +0.000 C 
ATOM     18  O   UNL     1      50.170   6.642  15.533  0.00  0.00    +0.000 OA
ATOM     19  H   UNL     1      47.029   6.763  15.959  0.00  0.00    +0.000 HD
BRANCH  17  20
ATOM     20  C   UNL     1      48.912   8.475  16.293  0.00  0.00    +0.000 A 
ATOM     21  C   UNL     1      49.391   9.538  15.541  0.00  0.00    +0.000 A 
ATOM     22  S   UNL     1      49.127  11.059  16.264  0.00  0.00    +0.000 S 
ATOM     23  C   UNL     1      48.407  10.345  17.630  0.00  0.00    +0.000 A 
ATOM     24  N   UNL     1      47.983  11.105  18.675  0.00  0.00    +0.000 NA
ATOM     25  C   UNL     1      47.500  10.429  19.664  0.00  0.00    +0.000 A 
ATOM     26  N   UNL     1      47.386   9.062  19.695  0.00  0.00    +0.000 N 
ATOM     27  C   UNL     1      47.745   8.259  18.638  0.00  0.00    +0.000 A 
ATOM     28  O   UNL     1      47.538   7.049  18.658  0.00  0.00    +0.000 OA
ATOM     29  C   UNL     1      48.337   8.965  17.521  0.00  0.00    +0.000 A 
ATOM     30  H   UNL     1      46.970   8.599  20.489  0.00  0.00    +0.000 HD
ENDBRANCH  17  20
ENDBRANCH   2  16
TORSDOF 5
ENDMDL
MODEL 8
REMARK VINA RESULT:    -7.368      2.065      2.816
REMARK INTER + INTRA:          -9.909
REMARK INTER:                  -8.973
REMARK INTRA:                  -0.937
REMARK UNBOUND:                -0.388
REMARK  Name = 
REMARK  6 active torsions:
REMARK  status: ('A' for Active; 'I' for Inactive)
REMARK    1  A    between atoms: C_1  and  C_2
REMARK    2  A    between atoms: C_2  and  N_3
REMARK    3  A    between atoms: C_2  and  C_16
REMARK    4  A    between atoms: C_4  and  C_6
REMARK    5  A    between atoms: C_19  and  O_20
REMARK    6  A    between atoms: O_20  and  C_21
REMARK                            x       y       z     vdW  Elec       q    Type
REMARK                         _______ _______ _______ _____ _____    ______ ____
ROOT
ATOM      1  C   UNL     1      46.689   7.329  13.564  0.00  0.00    +0.000 C 
ATOM      2  C   UNL     1      46.298   5.883  13.887  0.00  0.00    +0.000 C 
ENDROOT
BRANCH   2   3
ATOM      3  C   UNL     1      45.880   5.052  12.684  0.00  0.00    +0.000 A 
ATOM      4  C   UNL     1      45.720   5.706  11.452  0.00  0.00    +0.000 A 
ATOM      5  C   UNL     1      45.296   5.011  10.319  0.00  0.00    +0.000 A 
ATOM      6  C   UNL     1      45.062   3.637  10.381  0.00  0.00    +0.000 A 
ATOM      7  C   UNL     1      45.182   2.980  11.606  0.00  0.00    +0.000 A 
ATOM      8  C   UNL     1      45.582   3.683  12.750  0.00  0.00    +0.000 A 
BRANCH   6   9
ATOM      9  O   UNL     1      44.640   2.887   9.306  0.00  0.00    +0.000 OA
BRANCH   9  10
ATOM     10  C   UNL     1      45.542   2.662   8.272  0.00  0.00    +0.000 A 
ATOM     11  C   UNL     1      46.204   1.442   8.270  0.00  0.00    +0.000 A 
ATOM     12  C   UNL     1      47.103   1.181   7.238  0.00  0.00    +0.000 A 
ATOM     13  C   UNL     1      47.307   2.140   6.251  0.00  0.00    +0.000 A 
ATOM     14  C   UNL     1      46.613   3.334   6.345  0.00  0.00    +0.000 A 
ATOM     15  N   UNL     1      45.755   3.622   7.344  0.00  0.00    +0.000 NA
ENDBRANCH   9  10
ENDBRANCH   6   9
ENDBRANCH   2   3
BRANCH   2  16
ATOM     16  N   UNL     1      47.373   5.201  14.581  0.00  0.00    +0.000 N 
ATOM     17  C   UNL     1      47.159   4.450  15.707  0.00  0.00    +0.000 C 
ATOM     18  O   UNL     1      46.036   4.246  16.160  0.00  0.00    +0.000 OA
ATOM     19  H   UNL     1      48.319   5.460  14.323  0.00  0.00    +0.000 HD
BRANCH  17  20
ATOM     20  C   UNL     1      48.346   3.844  16.317  0.00  0.00    +0.000 A 
ATOM     21  C   UNL     1      48.501   2.466  16.305  0.00  0.00    +0.000 A 
ATOM     22  S   UNL     1      49.938   1.935  17.053  0.00  0.00    +0.000 S 
ATOM     23  C   UNL     1      50.377   3.527  17.463  0.00  0.00    +0.000 A 
ATOM     24  N   UNL     1      51.510   3.781  18.171  0.00  0.00    +0.000 NA
ATOM     25  C   UNL     1      51.695   5.027  18.452  0.00  0.00    +0.000 A 
ATOM     26  N   UNL     1      50.858   6.046  18.074  0.00  0.00    +0.000 N 
ATOM     27  C   UNL     1      49.734   5.844  17.308  0.00  0.00    +0.000 A 
ATOM     28  O   UNL     1      49.061   6.787  16.902  0.00  0.00    +0.000 OA
ATOM     29  C   UNL     1      49.456   4.456  17.004  0.00  0.00    +0.000 A 
ATOM     30  H   UNL     1      51.079   7.004  18.302  0.00  0.00    +0.000 HD
ENDBRANCH  17  20
ENDBRANCH   2  16
TORSDOF 5
ENDMDL
MODEL 9
REMARK VINA RESULT:    -7.335      3.257      4.476
REMARK INTER + INTRA:          -9.866
REMARK INTER:                  -8.640
REMARK INTRA:                  -1.226
REMARK UNBOUND:                -0.388
REMARK  Name = 
REMARK  6 active torsions:
REMARK  status: ('A' for Active; 'I' for Inactive)
REMARK    1  A    between atoms: C_1  and  C_2
REMARK    2  A    between atoms: C_2  and  N_3
REMARK    3  A    between atoms: C_2  and  C_16
REMARK    4  A    between atoms: C_4  and  C_6
REMARK    5  A    between atoms: C_19  and  O_20
REMARK    6  A    between atoms: O_20  and  C_21
REMARK                            x       y       z     vdW  Elec       q    Type
REMARK                         _______ _______ _______ _____ _____    ______ ____
ROOT
ATOM      1  C   UNL     1      47.718   9.795  12.841  0.00  0.00    +0.000 C 
ATOM      2  C   UNL     1      47.187   8.595  13.634  0.00  0.00    +0.000 C 
ENDROOT
BRANCH   2   3
ATOM      3  C   UNL     1      46.361   7.610  12.823  0.00  0.00    +0.000 A 
ATOM      4  C   UNL     1      46.745   6.260  12.832  0.00  0.00    +0.000 A 
ATOM      5  C   UNL     1      46.058   5.311  12.075  0.00  0.00    +0.000 A 
ATOM      6  C   UNL     1      44.943   5.682  11.323  0.00  0.00    +0.000 A 
ATOM      7  C   UNL     1      44.569   7.026  11.276  0.00  0.00    +0.000 A 
ATOM      8  C   UNL     1      45.277   7.984  12.014  0.00  0.00    +0.000 A 
BRANCH   6   9
ATOM      9  O   UNL     1      44.218   4.802  10.550  0.00  0.00    +0.000 OA
BRANCH   9  10
ATOM     10  C   UNL     1      44.899   4.063   9.589  0.00  0.00    +0.000 A 
ATOM     11  C   UNL     1      44.848   2.681   9.707  0.00  0.00    +0.000 A 
ATOM     12  C   UNL     1      45.508   1.913   8.750  0.00  0.00    +0.000 A 
ATOM     13  C   UNL     1      46.191   2.547   7.717  0.00  0.00    +0.000 A 
ATOM     14  C   UNL     1      46.200   3.932   7.692  0.00  0.00    +0.000 A 
ATOM     15  N   UNL     1      45.589   4.699   8.616  0.00  0.00    +0.000 NA
ENDBRANCH   9  10
ENDBRANCH   6   9
ENDBRANCH   2   3
BRANCH   2  16
ATOM     16  N   UNL     1      48.273   7.882  14.278  0.00  0.00    +0.000 N 
ATOM     17  C   UNL     1      48.673   8.157  15.559  0.00  0.00    +0.000 C 
ATOM     18  O   UNL     1      48.093   8.973  16.271  0.00  0.00    +0.000 OA
ATOM     19  H   UNL     1      48.860   7.309  13.681  0.00  0.00    +0.000 HD
BRANCH  17  20
ATOM     20  C   UNL     1      49.804   7.376  16.067  0.00  0.00    +0.000 A 
ATOM     21  C   UNL     1      49.635   6.555  17.173  0.00  0.00    +0.000 A 
ATOM     22  S   UNL     1      51.050   5.718  17.624  0.00  0.00    +0.000 S 
ATOM     23  C   UNL     1      51.950   6.462  16.386  0.00  0.00    +0.000 A 
ATOM     24  N   UNL     1      53.278   6.212  16.238  0.00  0.00    +0.000 NA
ATOM     25  C   UNL     1      53.844   6.880  15.289  0.00  0.00    +0.000 A 
ATOM     26  N   UNL     1      53.199   7.765  14.463  0.00  0.00    +0.000 N 
ATOM     27  C   UNL     1      51.846   8.004  14.537  0.00  0.00    +0.000 A 
ATOM     28  O   UNL     1      51.281   8.725  13.719  0.00  0.00    +0.000 OA
ATOM     29  C   UNL     1      51.172   7.313  15.616  0.00  0.00    +0.000 A 
ATOM     30  H   UNL     1      53.696   8.231  13.720  0.00  0.00    +0.000 HD
ENDBRANCH  17  20
ENDBRANCH   2  16
TORSDOF 5
ENDMDL
