MODEL 1
REMARK VINA RESULT:    -8.683      0.000      0.000
REMARK INTER + INTRA:         -11.685
REMARK INTER:                 -11.221
REMARK INTRA:                  -0.465
REMARK UNBOUND:                -0.465
REMARK  Name = 
REMARK  5 active torsions:
REMARK  status: ('A' for Active; 'I' for Inactive)
REMARK    1  A    between atoms: N_5  and  C_6
REMARK    2  A    between atoms: C_6  and  C_7
REMARK    3  A    between atoms: C_10  and  C_11
REMARK    4  A    between atoms: C_11  and  N_12
REMARK    5  A    between atoms: C_13  and  C_15
REMARK                            x       y       z     vdW  Elec       q    Type
REMARK                         _______ _______ _______ _____ _____    ______ ____
ROOT
ATOM      1  C   UNL     1      45.671   6.855  12.489  0.00  0.00    +0.000 C 
ENDROOT
BRANCH   1   5
ATOM      2  C   UNL     1      44.978   3.725   9.732  0.00  0.00    +0.000 A 
ATOM      3  C   UNL     1      44.710   3.481  11.071  0.00  0.00    +0.000 A 
ATOM      4  C   UNL     1      44.943   4.494  11.995  0.00  0.00    +0.000 A 
ATOM      5  C   UNL     1      45.440   5.707  11.544  0.00  0.00    +0.000 A 
ATOM      6  N   UNL     1      45.699   5.913  10.232  0.00  0.00    +0.000 NA
ATOM      7  N   UNL     1      45.470   4.917   9.323  0.00  0.00    +0.000 NA
BRANCH   2   8
ATOM      8  C   UNL     1      44.681   2.709   8.672  0.00  0.00    +0.000 C 
BRANCH   8  13
ATOM      9  N   UNL     1      48.714   2.617   6.215  0.00  0.00    +0.000 N 
ATOM     10  C   UNL     1      47.660   2.278   6.949  0.00  0.00    +0.000 A 
ATOM     11  N   UNL     1      47.512   0.975   7.308  0.00  0.00    +0.000 NA
ATOM     12  C   UNL     1      46.395   0.981   8.002  0.00  0.00    +0.000 A 
ATOM     13  N   UNL     1      45.903   2.250   8.045  0.00  0.00    +0.000 N 
ATOM     14  N   UNL     1      46.686   3.094   7.345  0.00  0.00    +0.000 NA
ATOM     15  H   UNL     1      49.214   1.862   5.769  0.00  0.00    +0.000 HD
ATOM     16  H   UNL     1      48.644   3.464   5.670  0.00  0.00    +0.000 HD
ENDBRANCH   8  13
ENDBRANCH   2   8
ENDBRANCH   1   5
BRANCH   1  17
ATOM     17  N   UNL     1      46.468   6.476  13.631  0.00  0.00    +0.000 N 
ATOM     18  C   UNL     1      47.822   6.662  13.699  0.00  0.00    +0.000 C 
ATOM     19  O   UNL     1      48.467   7.116  12.760  0.00  0.00    +0.000 OA
ATOM     20  H   UNL     1      45.964   6.100  14.429  0.00  0.00    +0.000 HD
BRANCH  18  21
ATOM     21  C   UNL     1      48.462   6.272  14.961  0.00  0.00    +0.000 A 
ATOM     22  C   UNL     1      49.457   7.065  15.514  0.00  0.00    +0.000 A 
ATOM     23  S   UNL     1      50.025   6.496  17.020  0.00  0.00    +0.000 S 
ATOM     24  C   UNL     1      48.921   5.200  17.009  0.00  0.00    +0.000 A 
ATOM     25  N   UNL     1      48.815   4.359  18.073  0.00  0.00    +0.000 NA
ATOM     26  C   UNL     1      47.930   3.431  17.933  0.00  0.00    +0.000 A 
ATOM     27  N   UNL     1      47.161   3.247  16.814  0.00  0.00    +0.000 N 
ATOM     28  C   UNL     1      47.275   4.036  15.694  0.00  0.00    +0.000 A 
ATOM     29  O   UNL     1      46.665   3.766  14.665  0.00  0.00    +0.000 OA
ATOM     30  C   UNL     1      48.197   5.147  15.831  0.00  0.00    +0.000 A 
ATOM     31  H   UNL     1      46.530   2.462  16.743  0.00  0.00    +0.000 HD
ENDBRANCH  18  21
ENDBRANCH   1  17
TORSDOF 5
ENDMDL
MODEL 2
REMARK VINA RESULT:    -8.355      1.655      2.257
REMARK INTER + INTRA:         -11.262
REMARK INTER:                 -10.923
REMARK INTRA:                  -0.339
REMARK UNBOUND:                -0.465
REMARK  Name = 
REMARK  5 active torsions:
REMARK  status: ('A' for Active; 'I' for Inactive)
REMARK    1  A    between atoms: N_5  and  C_6
REMARK    2  A    between atoms: C_6  and  C_7
REMARK    3  A    between atoms: C_10  and  C_11
REMARK    4  A    between atoms: C_11  and  N_12
REMARK    5  A    between atoms: C_13  and  C_15
REMARK                            x       y       z     vdW  Elec       q    Type
REMARK                         _______ _______ _______ _____ _____    ______ ____
ROOT
ATOM      1  C   UNL     1      46.038   6.388  12.755  0.00  0.00    +0.000 C 
ENDROOT
BRANCH   1   5
ATOM      2  C   UNL     1      44.989   3.618   9.737  0.00  0.00    +0.000 A 
ATOM      3  C   UNL     1      45.334   4.903   9.346  0.00  0.00    +0.000 A 
ATOM      4  C   UNL     1      45.670   5.832  10.325  0.00  0.00    +0.000 A 
ATOM      5  C   UNL     1      45.642   5.441  11.654  0.00  0.00    +0.000 A 
ATOM      6  N   UNL     1      45.296   4.180  12.006  0.00  0.00    +0.000 NA
ATOM      7  N   UNL     1      44.965   3.267  11.044  0.00  0.00    +0.000 NA
BRANCH   2   8
ATOM      8  C   UNL     1      44.690   2.544   8.736  0.00  0.00    +0.000 C 
BRANCH   8  13
ATOM      9  N   UNL     1      48.671   2.548   6.194  0.00  0.00    +0.000 N 
ATOM     10  C   UNL     1      47.635   2.182   6.941  0.00  0.00    +0.000 A 
ATOM     11  N   UNL     1      47.505   0.869   7.268  0.00  0.00    +0.000 NA
ATOM     12  C   UNL     1      46.403   0.848   7.985  0.00  0.00    +0.000 A 
ATOM     13  N   UNL     1      45.903   2.111   8.073  0.00  0.00    +0.000 N 
ATOM     14  N   UNL     1      46.665   2.979   7.379  0.00  0.00    +0.000 NA
ATOM     15  H   UNL     1      49.167   1.808   5.718  0.00  0.00    +0.000 HD
ATOM     16  H   UNL     1      48.583   3.408   5.674  0.00  0.00    +0.000 HD
ENDBRANCH   8  13
ENDBRANCH   2   8
ENDBRANCH   1   5
BRANCH   1  17
ATOM     17  N   UNL     1      46.364   5.700  13.982  0.00  0.00    +0.000 N 
ATOM     18  C   UNL     1      47.635   5.621  14.485  0.00  0.00    +0.000 C 
ATOM     19  O   UNL     1      48.602   6.086  13.892  0.00  0.00    +0.000 OA
ATOM     20  H   UNL     1      45.585   5.308  14.500  0.00  0.00    +0.000 HD
BRANCH  18  21
ATOM     21  C   UNL     1      47.773   4.935  15.774  0.00  0.00    +0.000 A 
ATOM     22  C   UNL     1      47.398   3.605  15.902  0.00  0.00    +0.000 A 
ATOM     23  S   UNL     1      47.706   2.954  17.449  0.00  0.00    +0.000 S 
ATOM     24  C   UNL     1      48.402   4.413  17.985  0.00  0.00    +0.000 A 
ATOM     25  N   UNL     1      48.965   4.511  19.219  0.00  0.00    +0.000 NA
ATOM     26  C   UNL     1      49.464   5.670  19.487  0.00  0.00    +0.000 A 
ATOM     27  N   UNL     1      49.426   6.750  18.647  0.00  0.00    +0.000 N 
ATOM     28  C   UNL     1      48.816   6.715  17.415  0.00  0.00    +0.000 A 
ATOM     29  O   UNL     1      48.688   7.732  16.742  0.00  0.00    +0.000 OA
ATOM     30  C   UNL     1      48.313   5.410  17.030  0.00  0.00    +0.000 A 
ATOM     31  H   UNL     1      49.779   7.649  18.942  0.00  0.00    +0.000 HD
ENDBRANCH  18  21
ENDBRANCH   1  17
TORSDOF 5
ENDMDL
MODEL 3
REMARK VINA RESULT:    -8.262      1.831      3.163
REMARK INTER + INTRA:         -11.142
REMARK INTER:                 -10.285
REMARK INTRA:                  -0.857
REMARK UNBOUND:                -0.465
REMARK  Name = 
REMARK  5 active torsions:
REMARK  status: ('A' for Active; 'I' for Inactive)
REMARK    1  A    between atoms: N_5  and  C_6
REMARK    2  A    between atoms: C_6  and  C_7
REMARK    3  A    between atoms: C_10  and  C_11
REMARK    4  A    between atoms: C_11  and  N_12
REMARK    5  A    between atoms: C_13  and  C_15
REMARK                            x       y       z     vdW  Elec       q    Type
REMARK                         _______ _______ _______ _____ _____    ______ ____
ROOT
ATOM      1  C   UNL     1      44.613   5.223  13.294  0.00  0.00    +0.000 C 
ENDROOT
BRANCH   1   5
ATOM      2  C   UNL     1      44.722   3.661   9.367  0.00  0.00    +0.000 A 
ATOM      3  C   UNL     1      44.232   2.845  10.376  0.00  0.00    +0.000 A 
ATOM      4  C   UNL     1      44.199   3.337  11.676  0.00  0.00    +0.000 A 
ATOM      5  C   UNL     1      44.663   4.620  11.916  0.00  0.00    +0.000 A 
ATOM      6  N   UNL     1      45.142   5.391  10.912  0.00  0.00    +0.000 NA
ATOM      7  N   UNL     1      45.174   4.907   9.633  0.00  0.00    +0.000 NA
BRANCH   2   8
ATOM      8  C   UNL     1      44.717   3.228   7.932  0.00  0.00    +0.000 C 
BRANCH   8  13
ATOM      9  N   UNL     1      49.045   2.533   6.175  0.00  0.00    +0.000 N 
ATOM     10  C   UNL     1      47.873   2.371   6.777  0.00  0.00    +0.000 A 
ATOM     11  N   UNL     1      47.575   1.152   7.299  0.00  0.00    +0.000 NA
ATOM     12  C   UNL     1      46.373   1.327   7.802  0.00  0.00    +0.000 A 
ATOM     13  N   UNL     1      45.979   2.611   7.579  0.00  0.00    +0.000 N 
ATOM     14  N   UNL     1      46.918   3.290   6.891  0.00  0.00    +0.000 NA
ATOM     15  H   UNL     1      49.546   1.690   5.929  0.00  0.00    +0.000 HD
ATOM     16  H   UNL     1      49.121   3.285   5.506  0.00  0.00    +0.000 HD
ENDBRANCH   8  13
ENDBRANCH   2   8
ENDBRANCH   1   5
BRANCH   1  17
ATOM     17  N   UNL     1      45.828   5.926  13.632  0.00  0.00    +0.000 N 
ATOM     18  C   UNL     1      46.908   5.322  14.217  0.00  0.00    +0.000 C 
ATOM     19  O   UNL     1      46.895   4.141  14.550  0.00  0.00    +0.000 OA
ATOM     20  H   UNL     1      45.873   6.904  13.366  0.00  0.00    +0.000 HD
BRANCH  18  21
ATOM     21  C   UNL     1      48.081   6.175  14.435  0.00  0.00    +0.000 A 
ATOM     22  C   UNL     1      48.680   6.233  15.684  0.00  0.00    +0.000 A 
ATOM     23  S   UNL     1      50.077   7.214  15.727  0.00  0.00    +0.000 S 
ATOM     24  C   UNL     1      49.958   7.551  14.062  0.00  0.00    +0.000 A 
ATOM     25  N   UNL     1      50.914   8.277  13.423  0.00  0.00    +0.000 NA
ATOM     26  C   UNL     1      50.702   8.444  12.161  0.00  0.00    +0.000 A 
ATOM     27  N   UNL     1      49.606   7.979  11.485  0.00  0.00    +0.000 N 
ATOM     28  C   UNL     1      48.587   7.291  12.101  0.00  0.00    +0.000 A 
ATOM     29  O   UNL     1      47.562   6.999  11.494  0.00  0.00    +0.000 OA
ATOM     30  C   UNL     1      48.818   7.002  13.504  0.00  0.00    +0.000 A 
ATOM     31  H   UNL     1      49.467   8.198  10.509  0.00  0.00    +0.000 HD
ENDBRANCH  18  21
ENDBRANCH   1  17
TORSDOF 5
ENDMDL
MODEL 4
REMARK VINA RESULT:    -8.217      1.758      2.254
REMARK INTER + INTRA:         -11.084
REMARK INTER:                 -10.324
REMARK INTRA:                  -0.760
REMARK UNBOUND:                -0.465
REMARK  Name = 
REMARK  5 active torsions:
REMARK  status: ('A' for Active; 'I' for Inactive)
REMARK    1  A    between atoms: N_5  and  C_6
REMARK    2  A    between atoms: C_6  and  C_7
REMARK    3  A    between atoms: C_10  and  C_11
REMARK    4  A    between atoms: C_11  and  N_12
REMARK    5  A    between atoms: C_13  and  C_15
REMARK                            x       y       z     vdW  Elec       q    Type
REMARK                         _______ _______ _______ _____ _____    ______ ____
ROOT
ATOM      1  C   UNL     1      44.469   5.076  13.306  0.00  0.00    +0.000 C 
ENDROOT
BRANCH   1   5
ATOM      2  C   UNL     1      44.534   3.897   9.246  0.00  0.00    +0.000 A 
ATOM      3  C   UNL     1      45.292   4.998   9.613  0.00  0.00    +0.000 A 
ATOM      4  C   UNL     1      45.275   5.408  10.942  0.00  0.00    +0.000 A 
ATOM      5  C   UNL     1      44.495   4.706  11.847  0.00  0.00    +0.000 A 
ATOM      6  N   UNL     1      43.760   3.639  11.458  0.00  0.00    +0.000 NA
ATOM      7  N   UNL     1      43.777   3.235  10.151  0.00  0.00    +0.000 NA
BRANCH   2   8
ATOM      8  C   UNL     1      44.563   3.350   7.851  0.00  0.00    +0.000 C 
BRANCH   8  13
ATOM      9  N   UNL     1      48.872   2.454   6.137  0.00  0.00    +0.000 N 
ATOM     10  C   UNL     1      47.716   2.374   6.786  0.00  0.00    +0.000 A 
ATOM     11  N   UNL     1      47.458   1.256   7.515  0.00  0.00    +0.000 NA
ATOM     12  C   UNL     1      46.262   1.490   8.009  0.00  0.00    +0.000 A 
ATOM     13  N   UNL     1      45.832   2.708   7.579  0.00  0.00    +0.000 N 
ATOM     14  N   UNL     1      46.741   3.279   6.763  0.00  0.00    +0.000 NA
ATOM     15  H   UNL     1      49.388   1.593   6.027  0.00  0.00    +0.000 HD
ATOM     16  H   UNL     1      48.915   3.082   5.348  0.00  0.00    +0.000 HD
ENDBRANCH   8  13
ENDBRANCH   2   8
ENDBRANCH   1   5
BRANCH   1  17
ATOM     17  N   UNL     1      45.678   5.744  13.726  0.00  0.00    +0.000 N 
ATOM     18  C   UNL     1      46.811   5.078  14.110  0.00  0.00    +0.000 C 
ATOM     19  O   UNL     1      46.857   3.854  14.179  0.00  0.00    +0.000 OA
ATOM     20  H   UNL     1      45.675   6.757  13.676  0.00  0.00    +0.000 HD
BRANCH  18  21
ATOM     21  C   UNL     1      47.966   5.917  14.447  0.00  0.00    +0.000 A 
ATOM     22  C   UNL     1      48.584   6.681  13.469  0.00  0.00    +0.000 A 
ATOM     23  S   UNL     1      49.857   7.652  14.063  0.00  0.00    +0.000 S 
ATOM     24  C   UNL     1      49.588   7.123  15.659  0.00  0.00    +0.000 A 
ATOM     25  N   UNL     1      50.291   7.647  16.699  0.00  0.00    +0.000 NA
ATOM     26  C   UNL     1      49.975   7.163  17.853  0.00  0.00    +0.000 A 
ATOM     27  N   UNL     1      49.043   6.181  18.060  0.00  0.00    +0.000 N 
ATOM     28  C   UNL     1      48.351   5.582  17.033  0.00  0.00    +0.000 A 
ATOM     29  O   UNL     1      47.618   4.621  17.240  0.00  0.00    +0.000 OA
ATOM     30  C   UNL     1      48.607   6.150  15.723  0.00  0.00    +0.000 A 
ATOM     31  H   UNL     1      48.887   5.800  18.982  0.00  0.00    +0.000 HD
ENDBRANCH  18  21
ENDBRANCH   1  17
TORSDOF 5
ENDMDL
MODEL 5
REMARK VINA RESULT:    -7.993      1.318      1.895
REMARK INTER + INTRA:         -10.794
REMARK INTER:                  -9.878
REMARK INTRA:                  -0.916
REMARK UNBOUND:                -0.465
REMARK  Name = 
REMARK  5 active torsions:
REMARK  status: ('A' for Active; 'I' for Inactive)
REMARK    1  A    between atoms: N_5  and  C_6
REMARK    2  A    between atoms: C_6  and  C_7
REMARK    3  A    between atoms: C_10  and  C_11
REMARK    4  A    between atoms: C_11  and  N_12
REMARK    5  A    between atoms: C_13  and  C_15
REMARK                            x       y       z     vdW  Elec       q    Type
REMARK                         _______ _______ _______ _____ _____    ______ ____
ROOT
ATOM      1  C   UNL     1      47.086   7.857  13.424  0.00  0.00    +0.000 C 
ENDROOT
BRANCH   1   5
ATOM      2  C   UNL     1      44.641   5.351  11.053  0.00  0.00    +0.000 A 
ATOM      3  C   UNL     1      44.299   6.692  11.145  0.00  0.00    +0.000 A 
ATOM      4  C   UNL     1      45.084   7.530  11.929  0.00  0.00    +0.000 A 
ATOM      5  C   UNL     1      46.174   6.993  12.596  0.00  0.00    +0.000 A 
ATOM      6  N   UNL     1      46.480   5.678  12.492  0.00  0.00    +0.000 NA
ATOM      7  N   UNL     1      45.708   4.854  11.720  0.00  0.00    +0.000 NA
BRANCH   2   8
ATOM      8  C   UNL     1      43.888   4.406  10.167  0.00  0.00    +0.000 C 
BRANCH   8  13
ATOM      9  N   UNL     1      46.933   3.693   6.627  0.00  0.00    +0.000 N 
ATOM     10  C   UNL     1      46.112   3.520   7.657  0.00  0.00    +0.000 A 
ATOM     11  N   UNL     1      45.890   2.256   8.104  0.00  0.00    +0.000 NA
ATOM     12  C   UNL     1      45.048   2.434   9.099  0.00  0.00    +0.000 A 
ATOM     13  N   UNL     1      44.784   3.763   9.227  0.00  0.00    +0.000 N 
ATOM     14  N   UNL     1      45.434   4.477   8.286  0.00  0.00    +0.000 NA
ATOM     15  H   UNL     1      47.158   2.869   6.088  0.00  0.00    +0.000 HD
ATOM     16  H   UNL     1      46.826   4.540   6.089  0.00  0.00    +0.000 HD
ENDBRANCH   8  13
ENDBRANCH   2   8
ENDBRANCH   1   5
BRANCH   1  17
ATOM     17  N   UNL     1      47.534   7.191  14.624  0.00  0.00    +0.000 N 
ATOM     18  C   UNL     1      48.835   6.823  14.839  0.00  0.00    +0.000 C 
ATOM     19  O   UNL     1      49.707   6.983  13.992  0.00  0.00    +0.000 OA
ATOM     20  H   UNL     1      46.838   7.048  15.348  0.00  0.00    +0.000 HD
BRANCH  18  21
ATOM     21  C   UNL     1      49.123   6.210  16.141  0.00  0.00    +0.000 A 
ATOM     22  C   UNL     1      49.985   6.834  17.030  0.00  0.00    +0.000 A 
ATOM     23  S   UNL     1      50.135   6.017  18.522  0.00  0.00    +0.000 S 
ATOM     24  C   UNL     1      49.009   4.831  18.048  0.00  0.00    +0.000 A 
ATOM     25  N   UNL     1      48.604   3.862  18.913  0.00  0.00    +0.000 NA
ATOM     26  C   UNL     1      47.740   3.038  18.424  0.00  0.00    +0.000 A 
ATOM     27  N   UNL     1      47.265   3.075  17.139  0.00  0.00    +0.000 N 
ATOM     28  C   UNL     1      47.690   3.999  16.214  0.00  0.00    +0.000 A 
ATOM     29  O   UNL     1      47.342   3.927  15.040  0.00  0.00    +0.000 OA
ATOM     30  C   UNL     1      48.599   5.001  16.738  0.00  0.00    +0.000 A 
ATOM     31  H   UNL     1      46.636   2.362  16.798  0.00  0.00    +0.000 HD
ENDBRANCH  18  21
ENDBRANCH   1  17
TORSDOF 5
ENDMDL
MODEL 6
REMARK VINA RESULT:    -7.611      2.431      3.751
REMARK INTER + INTRA:         -10.301
REMARK INTER:                  -9.423
REMARK INTRA:                  -0.878
REMARK UNBOUND:                -0.465
REMARK  Name = 
REMARK  5 active torsions:
REMARK  status: ('A' for Active; 'I' for Inactive)
REMARK    1  A    between atoms: N_5  and  C_6
REMARK    2  A    between atoms: C_6  and  C_7
REMARK    3  A    between atoms: C_10  and  C_11
REMARK    4  A    between atoms: C_11  and  N_12
REMARK    5  A    between atoms: C_13  and  C_15
REMARK                            x       y       z     vdW  Elec       q    Type
REMARK                         _______ _______ _______ _____ _____    ______ ____
ROOT
ATOM      1  C   UNL     1      47.110   4.297  14.886  0.00  0.00    +0.000 C 
ENDROOT
BRANCH   1   5
ATOM      2  C   UNL     1      44.984   4.370  11.232  0.00  0.00    +0.000 A 
ATOM      3  C   UNL     1      45.649   5.524  11.618  0.00  0.00    +0.000 A 
ATOM      4  C   UNL     1      46.344   5.523  12.822  0.00  0.00    +0.000 A 
ATOM      5  C   UNL     1      46.340   4.373  13.595  0.00  0.00    +0.000 A 
ATOM      6  N   UNL     1      45.677   3.263  13.195  0.00  0.00    +0.000 NA
ATOM      7  N   UNL     1      44.993   3.263  12.010  0.00  0.00    +0.000 NA
BRANCH   2   8
ATOM      8  C   UNL     1      44.279   4.270   9.913  0.00  0.00    +0.000 C 
BRANCH   8  13
ATOM      9  N   UNL     1      47.163   3.688   6.218  0.00  0.00    +0.000 N 
ATOM     10  C   UNL     1      46.394   3.479   7.281  0.00  0.00    +0.000 A 
ATOM     11  N   UNL     1      46.215   2.201   7.710  0.00  0.00    +0.000 NA
ATOM     12  C   UNL     1      45.418   2.343   8.746  0.00  0.00    +0.000 A 
ATOM     13  N   UNL     1      45.139   3.664   8.918  0.00  0.00    +0.000 N 
ATOM     14  N   UNL     1      45.732   4.409   7.964  0.00  0.00    +0.000 NA
ATOM     15  H   UNL     1      47.376   2.880   5.650  0.00  0.00    +0.000 HD
ATOM     16  H   UNL     1      47.018   4.545   5.705  0.00  0.00    +0.000 HD
ENDBRANCH   8  13
ENDBRANCH   2   8
ENDBRANCH   1   5
BRANCH   1  17
ATOM     17  N   UNL     1      47.587   5.589  15.318  0.00  0.00    +0.000 N 
ATOM     18  C   UNL     1      48.630   5.752  16.190  0.00  0.00    +0.000 C 
ATOM     19  O   UNL     1      49.198   4.800  16.715  0.00  0.00    +0.000 OA
ATOM     20  H   UNL     1      47.141   6.399  14.899  0.00  0.00    +0.000 HD
BRANCH  18  21
ATOM     21  C   UNL     1      49.020   7.138  16.472  0.00  0.00    +0.000 A 
ATOM     22  C   UNL     1      48.895   7.652  17.755  0.00  0.00    +0.000 A 
ATOM     23  S   UNL     1      49.472   9.251  17.909  0.00  0.00    +0.000 S 
ATOM     24  C   UNL     1      49.958   9.292  16.277  0.00  0.00    +0.000 A 
ATOM     25  N   UNL     1      50.623  10.364  15.769  0.00  0.00    +0.000 NA
ATOM     26  C   UNL     1      50.940  10.253  14.523  0.00  0.00    +0.000 A 
ATOM     27  N   UNL     1      50.627   9.182  13.730  0.00  0.00    +0.000 N 
ATOM     28  C   UNL     1      49.906   8.102  14.185  0.00  0.00    +0.000 A 
ATOM     29  O   UNL     1      49.534   7.220  13.418  0.00  0.00    +0.000 OA
ATOM     30  C   UNL     1      49.598   8.139  15.602  0.00  0.00    +0.000 A 
ATOM     31  H   UNL     1      50.849   9.184  12.745  0.00  0.00    +0.000 HD
ENDBRANCH  18  21
ENDBRANCH   1  17
TORSDOF 5
ENDMDL
MODEL 7
REMARK VINA RESULT:    -7.551      2.860      3.562
REMARK INTER + INTRA:         -10.223
REMARK INTER:                  -9.608
REMARK INTRA:                  -0.615
REMARK UNBOUND:                -0.465
REMARK  Name = 
REMARK  5 active torsions:
REMARK  status: ('A' for Active; 'I' for Inactive)
REMARK    1  A    between atoms: N_5  and  C_6
REMARK    2  A    between atoms: C_6  and  C_7
REMARK    3  A    between atoms: C_10  and  C_11
REMARK    4  A    between atoms: C_11  and  N_12
REMARK    5  A    between atoms: C_13  and  C_15
REMARK                            x       y       z     vdW  Elec       q    Type
REMARK                         _______ _______ _______ _____ _____    ______ ____
ROOT
ATOM      1  C   UNL     1      47.098   4.454  14.826  0.00  0.00    +0.000 C 
ENDROOT
BRANCH   1   5
ATOM      2  C   UNL     1      44.902   4.310  11.216  0.00  0.00    +0.000 A 
ATOM      3  C   UNL     1      45.475   5.520  11.578  0.00  0.00    +0.000 A 
ATOM      4  C   UNL     1      46.191   5.590  12.768  0.00  0.00    +0.000 A 
ATOM      5  C   UNL     1      46.299   4.451  13.550  0.00  0.00    +0.000 A 
ATOM      6  N   UNL     1      45.723   3.286  13.174  0.00  0.00    +0.000 NA
ATOM      7  N   UNL     1      45.019   3.217  12.003  0.00  0.00    +0.000 NA
BRANCH   2   8
ATOM      8  C   UNL     1      44.182   4.139   9.913  0.00  0.00    +0.000 C 
BRANCH   8  13
ATOM      9  N   UNL     1      47.042   3.686   6.181  0.00  0.00    +0.000 N 
ATOM     10  C   UNL     1      46.304   3.444   7.258  0.00  0.00    +0.000 A 
ATOM     11  N   UNL     1      46.210   2.164   7.706  0.00  0.00    +0.000 NA
ATOM     12  C   UNL     1      45.422   2.270   8.753  0.00  0.00    +0.000 A 
ATOM     13  N   UNL     1      45.063   3.574   8.912  0.00  0.00    +0.000 N 
ATOM     14  N   UNL     1      45.595   4.341   7.939  0.00  0.00    +0.000 NA
ATOM     15  H   UNL     1      47.296   2.885   5.621  0.00  0.00    +0.000 HD
ATOM     16  H   UNL     1      46.836   4.525   5.659  0.00  0.00    +0.000 HD
ENDBRANCH   8  13
ENDBRANCH   2   8
ENDBRANCH   1   5
BRANCH   1  17
ATOM     17  N   UNL     1      47.508   5.782  15.216  0.00  0.00    +0.000 N 
ATOM     18  C   UNL     1      48.587   6.030  16.020  0.00  0.00    +0.000 C 
ATOM     19  O   UNL     1      49.252   5.127  16.517  0.00  0.00    +0.000 OA
ATOM     20  H   UNL     1      46.981   6.552  14.817  0.00  0.00    +0.000 HD
BRANCH  18  21
ATOM     21  C   UNL     1      48.895   7.444  16.264  0.00  0.00    +0.000 A 
ATOM     22  C   UNL     1      49.643   8.164  15.345  0.00  0.00    +0.000 A 
ATOM     23  S   UNL     1      49.831   9.810  15.758  0.00  0.00    +0.000 S 
ATOM     24  C   UNL     1      48.873   9.626  17.153  0.00  0.00    +0.000 A 
ATOM     25  N   UNL     1      48.552  10.695  17.931  0.00  0.00    +0.000 NA
ATOM     26  C   UNL     1      47.811  10.411  18.948  0.00  0.00    +0.000 A 
ATOM     27  N   UNL     1      47.385   9.152  19.278  0.00  0.00    +0.000 N 
ATOM     28  C   UNL     1      47.732   8.035  18.555  0.00  0.00    +0.000 A 
ATOM     29  O   UNL     1      47.441   6.910  18.947  0.00  0.00    +0.000 OA
ATOM     30  C   UNL     1      48.496   8.310  17.352  0.00  0.00    +0.000 A 
ATOM     31  H   UNL     1      46.858   8.987  20.123  0.00  0.00    +0.000 HD
ENDBRANCH  18  21
ENDBRANCH   1  17
TORSDOF 5
ENDMDL
MODEL 8
REMARK VINA RESULT:    -7.428      3.481      7.837
REMARK INTER + INTRA:         -10.064
REMARK INTER:                  -9.506
REMARK INTRA:                  -0.558
REMARK UNBOUND:                -0.465
REMARK  Name = 
REMARK  5 active torsions:
REMARK  status: ('A' for Active; 'I' for Inactive)
REMARK    1  A    between atoms: N_5  and  C_6
REMARK    2  A    between atoms: C_6  and  C_7
REMARK    3  A    between atoms: C_10  and  C_11
REMARK    4  A    between atoms: C_11  and  N_12
REMARK    5  A    between atoms: C_13  and  C_15
REMARK                            x       y       z     vdW  Elec       q    Type
REMARK                         _______ _______ _______ _____ _____    ______ ____
ROOT
ATOM      1  C   UNL     1      48.320   7.692  12.453  0.00  0.00    +0.000 C 
ENDROOT
BRANCH   1   5
ATOM      2  C   UNL     1      49.633   6.418  16.265  0.00  0.00    +0.000 A 
ATOM      3  C   UNL     1      50.241   7.534  15.710  0.00  0.00    +0.000 A 
ATOM      4  C   UNL     1      49.831   7.962  14.452  0.00  0.00    +0.000 A 
ATOM      5  C   UNL     1      48.836   7.253  13.797  0.00  0.00    +0.000 A 
ATOM      6  N   UNL     1      48.265   6.163  14.361  0.00  0.00    +0.000 NA
ATOM      7  N   UNL     1      48.668   5.743  15.599  0.00  0.00    +0.000 NA
BRANCH   2   8
ATOM      8  C   UNL     1      49.967   5.944  17.647  0.00  0.00    +0.000 C 
BRANCH   8  13
ATOM      9  N   UNL     1      50.905   1.340  17.169  0.00  0.00    +0.000 N 
ATOM     10  C   UNL     1      51.009   2.647  17.380  0.00  0.00    +0.000 A 
ATOM     11  N   UNL     1      52.216   3.149  17.752  0.00  0.00    +0.000 NA
ATOM     12  C   UNL     1      51.977   4.436  17.883  0.00  0.00    +0.000 A 
ATOM     13  N   UNL     1      50.669   4.678  17.598  0.00  0.00    +0.000 N 
ATOM     14  N   UNL     1      50.020   3.534  17.304  0.00  0.00    +0.000 NA
ATOM     15  H   UNL     1      51.657   0.765  17.522  0.00  0.00    +0.000 HD
ATOM     16  H   UNL     1      49.984   0.932  17.243  0.00  0.00    +0.000 HD
ENDBRANCH   8  13
ENDBRANCH   2   8
ENDBRANCH   1   5
BRANCH   1  17
ATOM     17  N   UNL     1      47.522   6.675  11.810  0.00  0.00    +0.000 N 
ATOM     18  C   UNL     1      46.195   6.835  11.516  0.00  0.00    +0.000 C 
ATOM     19  O   UNL     1      45.572   7.843  11.834  0.00  0.00    +0.000 OA
ATOM     20  H   UNL     1      48.009   5.830  11.530  0.00  0.00    +0.000 HD
BRANCH  18  21
ATOM     21  C   UNL     1      45.556   5.721  10.808  0.00  0.00    +0.000 A 
ATOM     22  C   UNL     1      45.784   5.532   9.452  0.00  0.00    +0.000 A 
ATOM     23  S   UNL     1      45.022   4.141   8.819  0.00  0.00    +0.000 S 
ATOM     24  C   UNL     1      44.406   3.715  10.348  0.00  0.00    +0.000 A 
ATOM     25  N   UNL     1      43.722   2.554  10.531  0.00  0.00    +0.000 NA
ATOM     26  C   UNL     1      43.324   2.354  11.742  0.00  0.00    +0.000 A 
ATOM     27  N   UNL     1      43.521   3.223  12.782  0.00  0.00    +0.000 N 
ATOM     28  C   UNL     1      44.155   4.434  12.632  0.00  0.00    +0.000 A 
ATOM     29  O   UNL     1      44.202   5.243  13.553  0.00  0.00    +0.000 OA
ATOM     30  C   UNL     1      44.696   4.669  11.307  0.00  0.00    +0.000 A 
ATOM     31  H   UNL     1      43.129   3.037  13.694  0.00  0.00    +0.000 HD
ENDBRANCH  18  21
ENDBRANCH   1  17
TORSDOF 5
ENDMDL
MODEL 9
REMARK VINA RESULT:    -7.129      2.801      4.123
REMARK INTER + INTRA:          -9.677
REMARK INTER:                  -8.980
REMARK INTRA:                  -0.697
REMARK UNBOUND:                -0.465
REMARK  Name = 
REMARK  5 active torsions:
REMARK  status: ('A' for Active; 'I' for Inactive)
REMARK    1  A    between atoms: N_5  and  C_6
REMARK    2  A    between atoms: C_6  and  C_7
REMARK    3  A    between atoms: C_10  and  C_11
REMARK    4  A    between atoms: C_11  and  N_12
REMARK    5  A    between atoms: C_13  and  C_15
REMARK                            x       y       z     vdW  Elec       q    Type
REMARK                         _______ _______ _______ _____ _____    ______ ____
ROOT
ATOM      1  C   UNL     1      47.451   4.009  15.403  0.00  0.00    +0.000 C 
ENDROOT
BRANCH   1   5
ATOM      2  C   UNL     1      45.530   5.389  11.898  0.00  0.00    +0.000 A 
ATOM      3  C   UNL     1      46.654   6.075  12.335  0.00  0.00    +0.000 A 
ATOM      4  C   UNL     1      47.293   5.644  13.492  0.00  0.00    +0.000 A 
ATOM      5  C   UNL     1      46.779   4.549  14.170  0.00  0.00    +0.000 A 
ATOM      6  N   UNL     1      45.677   3.903  13.723  0.00  0.00    +0.000 NA
ATOM      7  N   UNL     1      45.049   4.327  12.584  0.00  0.00    +0.000 NA
BRANCH   2   8
ATOM      8  C   UNL     1      44.836   5.748  10.620  0.00  0.00    +0.000 C 
BRANCH   8  13
ATOM      9  N   UNL     1      46.804   3.799   6.795  0.00  0.00    +0.000 N 
ATOM     10  C   UNL     1      46.071   4.017   7.881  0.00  0.00    +0.000 A 
ATOM     11  N   UNL     1      45.196   3.054   8.276  0.00  0.00    +0.000 NA
ATOM     12  C   UNL     1      44.642   3.577   9.348  0.00  0.00    +0.000 A 
ATOM     13  N   UNL     1      45.176   4.808   9.572  0.00  0.00    +0.000 N 
ATOM     14  N   UNL     1      46.075   5.124   8.618  0.00  0.00    +0.000 NA
ATOM     15  H   UNL     1      46.505   3.044   6.193  0.00  0.00    +0.000 HD
ATOM     16  H   UNL     1      47.170   4.608   6.315  0.00  0.00    +0.000 HD
ENDBRANCH   8  13
ENDBRANCH   2   8
ENDBRANCH   1   5
BRANCH   1  17
ATOM     17  N   UNL     1      47.378   4.925  16.516  0.00  0.00    +0.000 N 
ATOM     18  C   UNL     1      48.474   5.544  17.055  0.00  0.00    +0.000 C 
ATOM     19  O   UNL     1      49.612   5.315  16.661  0.00  0.00    +0.000 OA
ATOM     20  H   UNL     1      46.449   5.141  16.863  0.00  0.00    +0.000 HD
BRANCH  18  21
ATOM     21  C   UNL     1      48.206   6.491  18.143  0.00  0.00    +0.000 A 
ATOM     22  C   UNL     1      47.999   6.030  19.435  0.00  0.00    +0.000 A 
ATOM     23  S   UNL     1      47.783   7.279  20.579  0.00  0.00    +0.000 S 
ATOM     24  C   UNL     1      48.015   8.479  19.394  0.00  0.00    +0.000 A 
ATOM     25  N   UNL     1      48.048   9.797  19.728  0.00  0.00    +0.000 NA
ATOM     26  C   UNL     1      48.243  10.595  18.732  0.00  0.00    +0.000 A 
ATOM     27  N   UNL     1      48.377  10.197  17.428  0.00  0.00    +0.000 N 
ATOM     28  C   UNL     1      48.292   8.882  17.037  0.00  0.00    +0.000 A 
ATOM     29  O   UNL     1      48.289   8.572  15.850  0.00  0.00    +0.000 OA
ATOM     30  C   UNL     1      48.158   7.937  18.129  0.00  0.00    +0.000 A 
ATOM     31  H   UNL     1      48.464  10.877  16.686  0.00  0.00    +0.000 HD
ENDBRANCH  18  21
ENDBRANCH   1  17
TORSDOF 5
ENDMDL
