MODEL 1
REMARK VINA RESULT:    -7.745      0.000      0.000
REMARK INTER + INTRA:         -10.413
REMARK INTER:                  -9.557
REMARK INTRA:                  -0.856
REMARK UNBOUND:                -0.856
REMARK  Name = 
REMARK  6 active torsions:
REMARK  status: ('A' for Active; 'I' for Inactive)
REMARK    1  A    between atoms: C_1  and  C_2
REMARK    2  A    between atoms: C_2  and  C_3
REMARK    3  A    between atoms: C_2  and  C_4
REMARK    4  A    between atoms: C_2  and  C_19
REMARK    5  A    between atoms: C_5  and  C_6
REMARK    6  A    between atoms: C_10  and  C_11
REMARK                            x       y       z     vdW  Elec       q    Type
REMARK                         _______ _______ _______ _____ _____    ______ ____
ROOT
ATOM      1  C   UNL     1      47.037   6.292  12.967  0.00  0.00    +0.000 A 
ATOM      2  C   UNL     1      47.762   7.450  12.725  0.00  0.00    +0.000 A 
ATOM      3  C   UNL     1      48.710   7.848  13.660  0.00  0.00    +0.000 A 
ATOM      4  C   UNL     1      48.891   7.087  14.812  0.00  0.00    +0.000 A 
ATOM      5  C   UNL     1      48.110   5.950  15.009  0.00  0.00    +0.000 A 
ATOM      6  N   UNL     1      47.201   5.550  14.087  0.00  0.00    +0.000 NA
ENDROOT
BRANCH   5   7
ATOM      7  C   UNL     1      48.193   5.110  16.217  0.00  0.00    +0.000 A 
ATOM      8  C   UNL     1      49.175   5.341  17.192  0.00  0.00    +0.000 A 
ATOM      9  C   UNL     1      49.239   4.520  18.308  0.00  0.00    +0.000 A 
ATOM     10  N   UNL     1      48.402   3.488  18.526  0.00  0.00    +0.000 NA
ATOM     11  C   UNL     1      47.472   3.268  17.579  0.00  0.00    +0.000 A 
ATOM     12  F   UNL     1      46.635   2.236  17.759  0.00  0.00    +0.000 F 
ATOM     13  C   UNL     1      47.328   4.031  16.432  0.00  0.00    +0.000 A 
ENDBRANCH   5   7
BRANCH   1  15
ATOM     14  C   UNL     1      45.400   4.647  12.083  0.00  0.00    +0.000 C 
ATOM     15  C   UNL     1      46.032   5.832  11.998  0.00  0.00    +0.000 C 
BRANCH  14  17
ATOM     16  C   UNL     1      43.498   2.947  11.781  0.00  0.00    +0.000 C 
ATOM     17  C   UNL     1      44.314   4.097  11.156  0.00  0.00    +0.000 C 
ATOM     18  C   UNL     1      43.350   5.275  10.885  0.00  0.00    +0.000 C 
BRANCH  17  19
ATOM     19  C   UNL     1      44.911   3.570   9.836  0.00  0.00    +0.000 A 
ATOM     20  C   UNL     1      45.323   4.445   8.825  0.00  0.00    +0.000 A 
ATOM     21  C   UNL     1      45.903   3.933   7.667  0.00  0.00    +0.000 A 
ATOM     22  C   UNL     1      46.075   2.563   7.542  0.00  0.00    +0.000 A 
ATOM     23  C   UNL     1      45.660   1.759   8.586  0.00  0.00    +0.000 A 
ATOM     24  N   UNL     1      45.094   2.228   9.721  0.00  0.00    +0.000 NA
ENDBRANCH  17  19
ENDBRANCH  14  17
ENDBRANCH   1  15
TORSDOF 4
ENDMDL
MODEL 2
REMARK VINA RESULT:    -7.524      2.947      8.005
REMARK INTER + INTRA:         -10.140
REMARK INTER:                  -9.314
REMARK INTRA:                  -0.826
REMARK UNBOUND:                -0.856
REMARK  Name = 
REMARK  6 active torsions:
REMARK  status: ('A' for Active; 'I' for Inactive)
REMARK    1  A    between atoms: C_1  and  C_2
REMARK    2  A    between atoms: C_2  and  C_3
REMARK    3  A    between atoms: C_2  and  C_4
REMARK    4  A    between atoms: C_2  and  C_19
REMARK    5  A    between atoms: C_5  and  C_6
REMARK    6  A    between atoms: C_10  and  C_11
REMARK                            x       y       z     vdW  Elec       q    Type
REMARK                         _______ _______ _______ _____ _____    ______ ____
ROOT
ATOM      1  C   UNL     1      45.189   6.058  11.232  0.00  0.00    +0.000 A 
ATOM      2  C   UNL     1      43.882   5.942  11.682  0.00  0.00    +0.000 A 
ATOM      3  C   UNL     1      43.094   4.916  11.175  0.00  0.00    +0.000 A 
ATOM      4  C   UNL     1      43.630   4.052  10.223  0.00  0.00    +0.000 A 
ATOM      5  C   UNL     1      44.941   4.241   9.791  0.00  0.00    +0.000 A 
ATOM      6  N   UNL     1      45.717   5.228  10.302  0.00  0.00    +0.000 NA
ENDROOT
BRANCH   5   7
ATOM      7  C   UNL     1      45.579   3.413   8.754  0.00  0.00    +0.000 A 
ATOM      8  C   UNL     1      46.096   3.990   7.583  0.00  0.00    +0.000 A 
ATOM      9  C   UNL     1      46.674   3.180   6.617  0.00  0.00    +0.000 A 
ATOM     10  N   UNL     1      46.774   1.842   6.726  0.00  0.00    +0.000 NA
ATOM     11  C   UNL     1      46.264   1.298   7.846  0.00  0.00    +0.000 A 
ATOM     12  F   UNL     1      46.333  -0.035   7.974  0.00  0.00    +0.000 F 
ATOM     13  C   UNL     1      45.670   2.021   8.866  0.00  0.00    +0.000 A 
ENDBRANCH   5   7
BRANCH   1  15
ATOM     14  C   UNL     1      47.389   6.993  11.904  0.00  0.00    +0.000 C 
ATOM     15  C   UNL     1      46.059   7.123  11.752  0.00  0.00    +0.000 C 
BRANCH  14  17
ATOM     16  C   UNL     1      49.769   7.943  11.724  0.00  0.00    +0.000 C 
ATOM     17  C   UNL     1      48.383   8.049  12.393  0.00  0.00    +0.000 C 
ATOM     18  C   UNL     1      47.771   9.417  12.012  0.00  0.00    +0.000 C 
BRANCH  17  19
ATOM     19  C   UNL     1      48.601   7.958  13.917  0.00  0.00    +0.000 A 
ATOM     20  C   UNL     1      48.337   9.048  14.754  0.00  0.00    +0.000 A 
ATOM     21  C   UNL     1      48.499   8.912  16.130  0.00  0.00    +0.000 A 
ATOM     22  C   UNL     1      48.906   7.692  16.649  0.00  0.00    +0.000 A 
ATOM     23  C   UNL     1      49.134   6.655  15.765  0.00  0.00    +0.000 A 
ATOM     24  N   UNL     1      48.986   6.758  14.426  0.00  0.00    +0.000 NA
ENDBRANCH  17  19
ENDBRANCH  14  17
ENDBRANCH   1  15
TORSDOF 4
ENDMDL
MODEL 3
REMARK VINA RESULT:    -7.140      2.569      7.569
REMARK INTER + INTRA:          -9.666
REMARK INTER:                  -8.775
REMARK INTRA:                  -0.892
REMARK UNBOUND:                -0.856
REMARK  Name = 
REMARK  6 active torsions:
REMARK  status: ('A' for Active; 'I' for Inactive)
REMARK    1  A    between atoms: C_1  and  C_2
REMARK    2  A    between atoms: C_2  and  C_3
REMARK    3  A    between atoms: C_2  and  C_4
REMARK    4  A    between atoms: C_2  and  C_19
REMARK    5  A    between atoms: C_5  and  C_6
REMARK    6  A    between atoms: C_10  and  C_11
REMARK                            x       y       z     vdW  Elec       q    Type
REMARK                         _______ _______ _______ _____ _____    ______ ____
ROOT
ATOM      1  C   UNL     1      47.911   6.166  14.204  0.00  0.00    +0.000 A 
ATOM      2  C   UNL     1      48.625   7.184  13.590  0.00  0.00    +0.000 A 
ATOM      3  C   UNL     1      48.255   7.575  12.309  0.00  0.00    +0.000 A 
ATOM      4  C   UNL     1      47.196   6.927  11.678  0.00  0.00    +0.000 A 
ATOM      5  C   UNL     1      46.538   5.891  12.339  0.00  0.00    +0.000 A 
ATOM      6  N   UNL     1      46.886   5.524  13.597  0.00  0.00    +0.000 NA
ENDROOT
BRANCH   5   7
ATOM      7  C   UNL     1      45.442   5.113  11.737  0.00  0.00    +0.000 A 
ATOM      8  C   UNL     1      44.587   4.333  12.532  0.00  0.00    +0.000 A 
ATOM      9  C   UNL     1      43.577   3.596  11.933  0.00  0.00    +0.000 A 
ATOM     10  N   UNL     1      43.354   3.575  10.604  0.00  0.00    +0.000 NA
ATOM     11  C   UNL     1      44.187   4.316   9.851  0.00  0.00    +0.000 A 
ATOM     12  F   UNL     1      44.000   4.301   8.523  0.00  0.00    +0.000 F 
ATOM     13  C   UNL     1      45.222   5.085  10.355  0.00  0.00    +0.000 A 
ENDBRANCH   5   7
BRANCH   1  15
ATOM     14  C   UNL     1      47.835   4.580  16.114  0.00  0.00    +0.000 C 
ATOM     15  C   UNL     1      48.265   5.730  15.563  0.00  0.00    +0.000 C 
BRANCH  14  17
ATOM     16  C   UNL     1      47.993   5.040  18.637  0.00  0.00    +0.000 C 
ATOM     17  C   UNL     1      48.179   4.019  17.495  0.00  0.00    +0.000 C 
ATOM     18  C   UNL     1      47.195   2.850  17.736  0.00  0.00    +0.000 C 
BRANCH  17  19
ATOM     19  C   UNL     1      49.637   3.522  17.557  0.00  0.00    +0.000 A 
ATOM     20  C   UNL     1      50.640   4.290  18.158  0.00  0.00    +0.000 A 
ATOM     21  C   UNL     1      51.936   3.785  18.239  0.00  0.00    +0.000 A 
ATOM     22  C   UNL     1      52.206   2.522  17.734  0.00  0.00    +0.000 A 
ATOM     23  C   UNL     1      51.163   1.813  17.169  0.00  0.00    +0.000 A 
ATOM     24  N   UNL     1      49.897   2.277  17.077  0.00  0.00    +0.000 NA
ENDBRANCH  17  19
ENDBRANCH  14  17
ENDBRANCH   1  15
TORSDOF 4
ENDMDL
MODEL 4
REMARK VINA RESULT:    -6.998      3.958      7.629
REMARK INTER + INTRA:          -9.491
REMARK INTER:                  -8.668
REMARK INTRA:                  -0.823
REMARK UNBOUND:                -0.856
REMARK  Name = 
REMARK  6 active torsions:
REMARK  status: ('A' for Active; 'I' for Inactive)
REMARK    1  A    between atoms: C_1  and  C_2
REMARK    2  A    between atoms: C_2  and  C_3
REMARK    3  A    between atoms: C_2  and  C_4
REMARK    4  A    between atoms: C_2  and  C_19
REMARK    5  A    between atoms: C_5  and  C_6
REMARK    6  A    between atoms: C_10  and  C_11
REMARK                            x       y       z     vdW  Elec       q    Type
REMARK                         _______ _______ _______ _____ _____    ______ ____
ROOT
ATOM      1  C   UNL     1      45.035   5.901  11.874  0.00  0.00    +0.000 A 
ATOM      2  C   UNL     1      43.730   5.726  12.312  0.00  0.00    +0.000 A 
ATOM      3  C   UNL     1      42.949   4.754  11.699  0.00  0.00    +0.000 A 
ATOM      4  C   UNL     1      43.489   4.002  10.658  0.00  0.00    +0.000 A 
ATOM      5  C   UNL     1      44.798   4.249  10.247  0.00  0.00    +0.000 A 
ATOM      6  N   UNL     1      45.567   5.181  10.860  0.00  0.00    +0.000 NA
ENDROOT
BRANCH   5   7
ATOM      7  C   UNL     1      45.440   3.542   9.125  0.00  0.00    +0.000 A 
ATOM      8  C   UNL     1      45.947   4.247   8.021  0.00  0.00    +0.000 A 
ATOM      9  C   UNL     1      46.529   3.551   6.972  0.00  0.00    +0.000 A 
ATOM     10  N   UNL     1      46.642   2.209   6.937  0.00  0.00    +0.000 NA
ATOM     11  C   UNL     1      46.141   1.544   7.993  0.00  0.00    +0.000 A 
ATOM     12  F   UNL     1      46.224   0.205   7.978  0.00  0.00    +0.000 F 
ATOM     13  C   UNL     1      45.544   2.147   9.087  0.00  0.00    +0.000 A 
ENDBRANCH   5   7
BRANCH   1  15
ATOM     14  C   UNL     1      46.512   7.897  11.826  0.00  0.00    +0.000 C 
ATOM     15  C   UNL     1      45.897   6.911  12.505  0.00  0.00    +0.000 C 
BRANCH  14  17
ATOM     16  C   UNL     1      46.839  10.430  12.107  0.00  0.00    +0.000 C 
ATOM     17  C   UNL     1      47.389   9.016  12.391  0.00  0.00    +0.000 C 
ATOM     18  C   UNL     1      47.407   8.809  13.923  0.00  0.00    +0.000 C 
BRANCH  17  19
ATOM     19  C   UNL     1      48.819   8.957  11.819  0.00  0.00    +0.000 A 
ATOM     20  C   UNL     1      49.516  10.124  11.485  0.00  0.00    +0.000 A 
ATOM     21  C   UNL     1      50.825  10.032  11.017  0.00  0.00    +0.000 A 
ATOM     22  C   UNL     1      51.420   8.785  10.905  0.00  0.00    +0.000 A 
ATOM     23  C   UNL     1      50.679   7.677  11.268  0.00  0.00    +0.000 A 
ATOM     24  N   UNL     1      49.408   7.736  11.724  0.00  0.00    +0.000 NA
ENDBRANCH  17  19
ENDBRANCH  14  17
ENDBRANCH   1  15
TORSDOF 4
ENDMDL
MODEL 5
REMARK VINA RESULT:    -6.480      2.564      4.179
REMARK INTER + INTRA:          -8.852
REMARK INTER:                  -8.053
REMARK INTRA:                  -0.799
REMARK UNBOUND:                -0.856
REMARK  Name = 
REMARK  6 active torsions:
REMARK  status: ('A' for Active; 'I' for Inactive)
REMARK    1  A    between atoms: C_1  and  C_2
REMARK    2  A    between atoms: C_2  and  C_3
REMARK    3  A    between atoms: C_2  and  C_4
REMARK    4  A    between atoms: C_2  and  C_19
REMARK    5  A    between atoms: C_5  and  C_6
REMARK    6  A    between atoms: C_10  and  C_11
REMARK                            x       y       z     vdW  Elec       q    Type
REMARK                         _______ _______ _______ _____ _____    ______ ____
ROOT
ATOM      1  C   UNL     1      46.537   5.060  14.119  0.00  0.00    +0.000 A 
ATOM      2  C   UNL     1      46.881   4.402  15.291  0.00  0.00    +0.000 A 
ATOM      3  C   UNL     1      47.922   4.911  16.058  0.00  0.00    +0.000 A 
ATOM      4  C   UNL     1      48.597   6.048  15.620  0.00  0.00    +0.000 A 
ATOM      5  C   UNL     1      48.222   6.644  14.418  0.00  0.00    +0.000 A 
ATOM      6  N   UNL     1      47.191   6.161  13.682  0.00  0.00    +0.000 NA
ENDROOT
BRANCH   5   7
ATOM      7  C   UNL     1      48.906   7.818  13.849  0.00  0.00    +0.000 A 
ATOM      8  C   UNL     1      48.179   8.860  13.252  0.00  0.00    +0.000 A 
ATOM      9  C   UNL     1      48.853   9.943  12.707  0.00  0.00    +0.000 A 
ATOM     10  N   UNL     1      50.195  10.065  12.709  0.00  0.00    +0.000 NA
ATOM     11  C   UNL     1      50.882   9.055  13.272  0.00  0.00    +0.000 A 
ATOM     12  F   UNL     1      52.220   9.141  13.273  0.00  0.00    +0.000 F 
ATOM     13  C   UNL     1      50.300   7.935  13.842  0.00  0.00    +0.000 A 
ENDBRANCH   5   7
BRANCH   1  15
ATOM     14  C   UNL     1      45.475   4.515  11.941  0.00  0.00    +0.000 C 
ATOM     15  C   UNL     1      45.434   4.559  13.286  0.00  0.00    +0.000 C 
BRANCH  14  17
ATOM     16  C   UNL     1      43.582   2.814  11.587  0.00  0.00    +0.000 C 
ATOM     17  C   UNL     1      44.404   3.976  10.990  0.00  0.00    +0.000 C 
ATOM     18  C   UNL     1      43.440   5.156  10.724  0.00  0.00    +0.000 C 
BRANCH  17  19
ATOM     19  C   UNL     1      45.021   3.472   9.671  0.00  0.00    +0.000 A 
ATOM     20  C   UNL     1      45.499   4.364   8.705  0.00  0.00    +0.000 A 
ATOM     21  C   UNL     1      46.095   3.869   7.548  0.00  0.00    +0.000 A 
ATOM     22  C   UNL     1      46.216   2.499   7.379  0.00  0.00    +0.000 A 
ATOM     23  C   UNL     1      45.736   1.676   8.380  0.00  0.00    +0.000 A 
ATOM     24  N   UNL     1      45.154   2.128   9.513  0.00  0.00    +0.000 NA
ENDBRANCH  17  19
ENDBRANCH  14  17
ENDBRANCH   1  15
TORSDOF 4
ENDMDL
MODEL 6
REMARK VINA RESULT:    -6.251      3.376      7.703
REMARK INTER + INTRA:          -8.570
REMARK INTER:                  -7.703
REMARK INTRA:                  -0.867
REMARK UNBOUND:                -0.856
REMARK  Name = 
REMARK  6 active torsions:
REMARK  status: ('A' for Active; 'I' for Inactive)
REMARK    1  A    between atoms: C_1  and  C_2
REMARK    2  A    between atoms: C_2  and  C_3
REMARK    3  A    between atoms: C_2  and  C_4
REMARK    4  A    between atoms: C_2  and  C_19
REMARK    5  A    between atoms: C_5  and  C_6
REMARK    6  A    between atoms: C_10  and  C_11
REMARK                            x       y       z     vdW  Elec       q    Type
REMARK                         _______ _______ _______ _____ _____    ______ ____
ROOT
ATOM      1  C   UNL     1      46.772   5.050  13.812  0.00  0.00    +0.000 A 
ATOM      2  C   UNL     1      45.708   4.683  13.001  0.00  0.00    +0.000 A 
ATOM      3  C   UNL     1      45.553   5.325  11.778  0.00  0.00    +0.000 A 
ATOM      4  C   UNL     1      46.453   6.323  11.413  0.00  0.00    +0.000 A 
ATOM      5  C   UNL     1      47.484   6.665  12.287  0.00  0.00    +0.000 A 
ATOM      6  N   UNL     1      47.648   6.023  13.470  0.00  0.00    +0.000 NA
ENDROOT
BRANCH   5   7
ATOM      7  C   UNL     1      48.454   7.739  12.014  0.00  0.00    +0.000 A 
ATOM      8  C   UNL     1      48.057   9.086  11.997  0.00  0.00    +0.000 A 
ATOM      9  C   UNL     1      48.990  10.072  11.717  0.00  0.00    +0.000 A 
ATOM     10  N   UNL     1      50.287   9.821  11.451  0.00  0.00    +0.000 NA
ATOM     11  C   UNL     1      50.653   8.526  11.457  0.00  0.00    +0.000 A 
ATOM     12  F   UNL     1      51.934   8.244  11.178  0.00  0.00    +0.000 F 
ATOM     13  C   UNL     1      49.797   7.472  11.726  0.00  0.00    +0.000 A 
ENDBRANCH   5   7
BRANCH   1  15
ATOM     14  C   UNL     1      47.882   4.792  16.018  0.00  0.00    +0.000 C 
ATOM     15  C   UNL     1      46.977   4.387  15.108  0.00  0.00    +0.000 C 
BRANCH  14  17
ATOM     16  C   UNL     1      47.860   5.189  18.557  0.00  0.00    +0.000 C 
ATOM     17  C   UNL     1      48.141   4.201  17.406  0.00  0.00    +0.000 C 
ATOM     18  C   UNL     1      47.165   3.010  17.549  0.00  0.00    +0.000 C 
BRANCH  17  19
ATOM     19  C   UNL     1      49.601   3.727  17.555  0.00  0.00    +0.000 A 
ATOM     20  C   UNL     1      49.967   2.405  17.280  0.00  0.00    +0.000 A 
ATOM     21  C   UNL     1      51.303   2.027  17.378  0.00  0.00    +0.000 A 
ATOM     22  C   UNL     1      52.252   2.973  17.735  0.00  0.00    +0.000 A 
ATOM     23  C   UNL     1      51.822   4.264  17.977  0.00  0.00    +0.000 A 
ATOM     24  N   UNL     1      50.532   4.659  17.890  0.00  0.00    +0.000 NA
ENDBRANCH  17  19
ENDBRANCH  14  17
ENDBRANCH   1  15
TORSDOF 4
ENDMDL
MODEL 7
REMARK VINA RESULT:    -6.157      2.600      8.167
REMARK INTER + INTRA:          -8.453
REMARK INTER:                  -7.652
REMARK INTRA:                  -0.802
REMARK UNBOUND:                -0.856
REMARK  Name = 
REMARK  6 active torsions:
REMARK  status: ('A' for Active; 'I' for Inactive)
REMARK    1  A    between atoms: C_1  and  C_2
REMARK    2  A    between atoms: C_2  and  C_3
REMARK    3  A    between atoms: C_2  and  C_4
REMARK    4  A    between atoms: C_2  and  C_19
REMARK    5  A    between atoms: C_5  and  C_6
REMARK    6  A    between atoms: C_10  and  C_11
REMARK                            x       y       z     vdW  Elec       q    Type
REMARK                         _______ _______ _______ _____ _____    ______ ____
ROOT
ATOM      1  C   UNL     1      47.562   5.897  14.150  0.00  0.00    +0.000 A 
ATOM      2  C   UNL     1      47.826   7.236  13.898  0.00  0.00    +0.000 A 
ATOM      3  C   UNL     1      47.219   7.838  12.802  0.00  0.00    +0.000 A 
ATOM      4  C   UNL     1      46.382   7.080  11.986  0.00  0.00    +0.000 A 
ATOM      5  C   UNL     1      46.181   5.733  12.278  0.00  0.00    +0.000 A 
ATOM      6  N   UNL     1      46.756   5.151  13.359  0.00  0.00    +0.000 NA
ENDROOT
BRANCH   5   7
ATOM      7  C   UNL     1      45.356   4.839  11.448  0.00  0.00    +0.000 A 
ATOM      8  C   UNL     1      44.585   3.819  12.028  0.00  0.00    +0.000 A 
ATOM      9  C   UNL     1      43.834   2.981  11.217  0.00  0.00    +0.000 A 
ATOM     10  N   UNL     1      43.793   3.080   9.875  0.00  0.00    +0.000 NA
ATOM     11  C   UNL     1      44.545   4.052   9.328  0.00  0.00    +0.000 A 
ATOM     12  F   UNL     1      44.539   4.164   7.992  0.00  0.00    +0.000 F 
ATOM     13  C   UNL     1      45.326   4.937  10.052  0.00  0.00    +0.000 A 
ENDBRANCH   5   7
BRANCH   1  15
ATOM     14  C   UNL     1      47.473   4.610  16.272  0.00  0.00    +0.000 C 
ATOM     15  C   UNL     1      48.177   5.227  15.305  0.00  0.00    +0.000 C 
BRANCH  14  17
ATOM     16  C   UNL     1      47.223   2.567  17.809  0.00  0.00    +0.000 C 
ATOM     17  C   UNL     1      48.015   3.851  17.484  0.00  0.00    +0.000 C 
ATOM     18  C   UNL     1      49.460   3.441  17.117  0.00  0.00    +0.000 C 
BRANCH  17  19
ATOM     19  C   UNL     1      48.006   4.728  18.752  0.00  0.00    +0.000 A 
ATOM     20  C   UNL     1      48.780   4.398  19.869  0.00  0.00    +0.000 A 
ATOM     21  C   UNL     1      48.783   5.242  20.977  0.00  0.00    +0.000 A 
ATOM     22  C   UNL     1      48.029   6.404  20.948  0.00  0.00    +0.000 A 
ATOM     23  C   UNL     1      47.300   6.676  19.805  0.00  0.00    +0.000 A 
ATOM     24  N   UNL     1      47.278   5.876  18.716  0.00  0.00    +0.000 NA
ENDBRANCH  17  19
ENDBRANCH  14  17
ENDBRANCH   1  15
TORSDOF 4
ENDMDL
MODEL 8
REMARK VINA RESULT:    -6.136      2.716      3.577
REMARK INTER + INTRA:          -8.427
REMARK INTER:                  -7.600
REMARK INTRA:                  -0.828
REMARK UNBOUND:                -0.856
REMARK  Name = 
REMARK  6 active torsions:
REMARK  status: ('A' for Active; 'I' for Inactive)
REMARK    1  A    between atoms: C_1  and  C_2
REMARK    2  A    between atoms: C_2  and  C_3
REMARK    3  A    between atoms: C_2  and  C_4
REMARK    4  A    between atoms: C_2  and  C_19
REMARK    5  A    between atoms: C_5  and  C_6
REMARK    6  A    between atoms: C_10  and  C_11
REMARK                            x       y       z     vdW  Elec       q    Type
REMARK                         _______ _______ _______ _____ _____    ______ ____
ROOT
ATOM      1  C   UNL     1      47.129   5.028  14.339  0.00  0.00    +0.000 A 
ATOM      2  C   UNL     1      46.998   3.821  15.011  0.00  0.00    +0.000 A 
ATOM      3  C   UNL     1      47.704   3.639  16.194  0.00  0.00    +0.000 A 
ATOM      4  C   UNL     1      48.531   4.660  16.657  0.00  0.00    +0.000 A 
ATOM      5  C   UNL     1      48.642   5.837  15.919  0.00  0.00    +0.000 A 
ATOM      6  N   UNL     1      47.935   6.023  14.777  0.00  0.00    +0.000 NA
ENDROOT
BRANCH   5   7
ATOM      7  C   UNL     1      49.526   6.951  16.299  0.00  0.00    +0.000 A 
ATOM      8  C   UNL     1      49.053   8.015  17.084  0.00  0.00    +0.000 A 
ATOM      9  C   UNL     1      49.906   9.059  17.410  0.00  0.00    +0.000 A 
ATOM     10  N   UNL     1      51.191   9.126  17.012  0.00  0.00    +0.000 NA
ATOM     11  C   UNL     1      51.630   8.108  16.250  0.00  0.00    +0.000 A 
ATOM     12  F   UNL     1      52.901   8.156  15.824  0.00  0.00    +0.000 F 
ATOM     13  C   UNL     1      50.857   7.022  15.874  0.00  0.00    +0.000 A 
ENDBRANCH   5   7
BRANCH   1  15
ATOM     14  C   UNL     1      45.047   5.312  13.016  0.00  0.00    +0.000 C 
ATOM     15  C   UNL     1      46.390   5.263  13.090  0.00  0.00    +0.000 C 
BRANCH  14  17
ATOM     16  C   UNL     1      42.674   5.448  12.040  0.00  0.00    +0.000 C 
ATOM     17  C   UNL     1      44.188   5.592  11.780  0.00  0.00    +0.000 C 
ATOM     18  C   UNL     1      44.469   7.063  11.393  0.00  0.00    +0.000 C 
BRANCH  17  19
ATOM     19  C   UNL     1      44.546   4.648  10.616  0.00  0.00    +0.000 A 
ATOM     20  C   UNL     1      45.296   5.094   9.523  0.00  0.00    +0.000 A 
ATOM     21  C   UNL     1      45.641   4.198   8.514  0.00  0.00    +0.000 A 
ATOM     22  C   UNL     1      45.247   2.873   8.618  0.00  0.00    +0.000 A 
ATOM     23  C   UNL     1      44.522   2.498   9.733  0.00  0.00    +0.000 A 
ATOM     24  N   UNL     1      44.173   3.345  10.727  0.00  0.00    +0.000 NA
ENDBRANCH  17  19
ENDBRANCH  14  17
ENDBRANCH   1  15
TORSDOF 4
ENDMDL
MODEL 9
REMARK VINA RESULT:    -6.128      2.453      3.865
REMARK INTER + INTRA:          -8.417
REMARK INTER:                  -7.630
REMARK INTRA:                  -0.787
REMARK UNBOUND:                -0.856
REMARK  Name = 
REMARK  6 active torsions:
REMARK  status: ('A' for Active; 'I' for Inactive)
REMARK    1  A    between atoms: C_1  and  C_2
REMARK    2  A    between atoms: C_2  and  C_3
REMARK    3  A    between atoms: C_2  and  C_4
REMARK    4  A    between atoms: C_2  and  C_19
REMARK    5  A    between atoms: C_5  and  C_6
REMARK    6  A    between atoms: C_10  and  C_11
REMARK                            x       y       z     vdW  Elec       q    Type
REMARK                         _______ _______ _______ _____ _____    ______ ____
ROOT
ATOM      1  C   UNL     1      47.830   4.936  15.603  0.00  0.00    +0.000 A 
ATOM      2  C   UNL     1      46.912   4.033  16.118  0.00  0.00    +0.000 A 
ATOM      3  C   UNL     1      47.213   3.386  17.311  0.00  0.00    +0.000 A 
ATOM      4  C   UNL     1      48.428   3.649  17.939  0.00  0.00    +0.000 A 
ATOM      5  C   UNL     1      49.320   4.545  17.354  0.00  0.00    +0.000 A 
ATOM      6  N   UNL     1      49.016   5.193  16.203  0.00  0.00    +0.000 NA
ENDROOT
BRANCH   5   7
ATOM      7  C   UNL     1      50.647   4.850  17.916  0.00  0.00    +0.000 A 
ATOM      8  C   UNL     1      51.589   5.590  17.185  0.00  0.00    +0.000 A 
ATOM      9  C   UNL     1      52.837   5.844  17.734  0.00  0.00    +0.000 A 
ATOM     10  N   UNL     1      53.219   5.416  18.953  0.00  0.00    +0.000 NA
ATOM     11  C   UNL     1      52.312   4.697  19.639  0.00  0.00    +0.000 A 
ATOM     12  F   UNL     1      52.670   4.242  20.849  0.00  0.00    +0.000 F 
ATOM     13  C   UNL     1      51.043   4.393  19.178  0.00  0.00    +0.000 A 
ENDBRANCH   5   7
BRANCH   1  15
ATOM     14  C   UNL     1      46.456   5.419  13.592  0.00  0.00    +0.000 C 
ATOM     15  C   UNL     1      47.544   5.649  14.350  0.00  0.00    +0.000 C 
BRANCH  14  17
ATOM     16  C   UNL     1      44.997   7.242  12.521  0.00  0.00    +0.000 C 
ATOM     17  C   UNL     1      46.046   6.132  12.302  0.00  0.00    +0.000 C 
ATOM     18  C   UNL     1      47.333   6.792  11.754  0.00  0.00    +0.000 C 
BRANCH  17  19
ATOM     19  C   UNL     1      45.462   5.146  11.271  0.00  0.00    +0.000 A 
ATOM     20  C   UNL     1      45.619   5.355   9.896  0.00  0.00    +0.000 A 
ATOM     21  C   UNL     1      45.120   4.416   8.997  0.00  0.00    +0.000 A 
ATOM     22  C   UNL     1      44.487   3.282   9.481  0.00  0.00    +0.000 A 
ATOM     23  C   UNL     1      44.381   3.132  10.851  0.00  0.00    +0.000 A 
ATOM     24  N   UNL     1      44.855   4.027  11.746  0.00  0.00    +0.000 NA
ENDBRANCH  17  19
ENDBRANCH  14  17
ENDBRANCH   1  15
TORSDOF 4
ENDMDL
