MODEL 1
REMARK VINA RESULT:    -8.534      0.000      0.000
REMARK INTER + INTRA:         -13.069
REMARK INTER:                 -12.027
REMARK INTRA:                  -1.042
REMARK UNBOUND:                -1.042
REMARK  Name = 
REMARK  7 active torsions:
REMARK  status: ('A' for Active; 'I' for Inactive)
REMARK    1  A    between atoms: C_7  and  C_8
REMARK    2  A    between atoms: N_10  and  C_11
REMARK    3  A    between atoms: C_11  and  C_12
REMARK    4  A    between atoms: C_15  and  C_16
REMARK    5  A    between atoms: C_16  and  N_17
REMARK    6  A    between atoms: N_17  and  C_18
REMARK    7  A    between atoms: C_18  and  C_19
REMARK                            x       y       z     vdW  Elec       q    Type
REMARK                         _______ _______ _______ _____ _____    ______ ____
ROOT
ATOM      1  C   UNL     1      48.665   6.953  14.429  0.00  0.00    +0.000 C 
ATOM      2  O   UNL     1      49.355   6.643  13.461  0.00  0.00    +0.000 OA
ATOM      3  N   UNL     1      47.455   7.579  14.267  0.00  0.00    +0.000 N 
ATOM      4  H   UNL     1      46.890   7.842  15.069  0.00  0.00    +0.000 HD
ENDROOT
BRANCH   1  11
ATOM      5  N   UNL     1      48.316   2.915  19.796  0.00  0.00    +0.000 N 
ATOM      6  C   UNL     1      48.482   3.850  18.830  0.00  0.00    +0.000 A 
ATOM      7  N   UNL     1      49.307   4.838  18.993  0.00  0.00    +0.000 NA
ATOM      8  C   UNL     1      49.410   5.690  17.937  0.00  0.00    +0.000 A 
ATOM      9  S   UNL     1      50.467   7.021  17.991  0.00  0.00    +0.000 S 
ATOM     10  C   UNL     1      50.051   7.486  16.405  0.00  0.00    +0.000 A 
ATOM     11  C   UNL     1      49.105   6.660  15.803  0.00  0.00    +0.000 A 
ATOM     12  C   UNL     1      48.735   5.612  16.732  0.00  0.00    +0.000 A 
ATOM     13  C   UNL     1      47.808   4.509  16.604  0.00  0.00    +0.000 A 
ATOM     14  O   UNL     1      47.123   4.289  15.608  0.00  0.00    +0.000 OA
ATOM     15  N   UNL     1      47.736   3.681  17.697  0.00  0.00    +0.000 N 
ATOM     16  H   UNL     1      48.692   3.183  20.700  0.00  0.00    +0.000 HD
ATOM     17  H   UNL     1      47.451   2.395  19.840  0.00  0.00    +0.000 HD
ATOM     18  H   UNL     1      47.120   2.892  17.605  0.00  0.00    +0.000 HD
ENDBRANCH   1  11
BRANCH   3  19
ATOM     19  C   UNL     1      46.940   7.908  12.960  0.00  0.00    +0.000 C 
BRANCH  19  20
ATOM     20  C   UNL     1      46.051   6.819  12.415  0.00  0.00    +0.000 A 
ATOM     21  C   UNL     1      46.091   6.468  11.059  0.00  0.00    +0.000 A 
ATOM     22  C   UNL     1      45.267   5.452  10.559  0.00  0.00    +0.000 A 
ATOM     23  C   UNL     1      44.382   4.765  11.403  0.00  0.00    +0.000 A 
ATOM     24  C   UNL     1      44.328   5.132  12.755  0.00  0.00    +0.000 A 
ATOM     25  C   UNL     1      45.148   6.150  13.253  0.00  0.00    +0.000 A 
BRANCH  23  26
ATOM     26  C   UNL     1      43.490   3.667  10.869  0.00  0.00    +0.000 C 
BRANCH  26  27
ATOM     27  N   UNL     1      43.833   3.324   9.494  0.00  0.00    +0.000 NA
ATOM     28  H   UNL     1      44.404   4.066   9.086  0.00  0.00    +0.000 HD
BRANCH  27  29
ATOM     29  C   UNL     1      44.616   2.077   9.429  0.00  0.00    +0.000 C 
BRANCH  29  30
ATOM     30  C   UNL     1      45.719   2.134   8.384  0.00  0.00    +0.000 A 
ATOM     31  N   UNL     1      45.908   3.310   7.742  0.00  0.00    +0.000 NA
ATOM     32  C   UNL     1      46.847   3.320   6.778  0.00  0.00    +0.000 A 
ATOM     33  C   UNL     1      47.603   2.222   6.443  0.00  0.00    +0.000 A 
ATOM     34  C   UNL     1      47.351   1.082   7.168  0.00  0.00    +0.000 A 
ATOM     35  N   UNL     1      46.425   1.009   8.141  0.00  0.00    +0.000 NA
ENDBRANCH  29  30
ENDBRANCH  27  29
ENDBRANCH  26  27
ENDBRANCH  23  26
ENDBRANCH  19  20
ENDBRANCH   3  19
TORSDOF 7
ENDMDL
MODEL 2
REMARK VINA RESULT:    -7.847      2.300      2.675
REMARK INTER + INTRA:         -12.101
REMARK INTER:                 -11.251
REMARK INTRA:                  -0.849
REMARK UNBOUND:                -1.042
REMARK  Name = 
REMARK  7 active torsions:
REMARK  status: ('A' for Active; 'I' for Inactive)
REMARK    1  A    between atoms: C_7  and  C_8
REMARK    2  A    between atoms: N_10  and  C_11
REMARK    3  A    between atoms: C_11  and  C_12
REMARK    4  A    between atoms: C_15  and  C_16
REMARK    5  A    between atoms: C_16  and  N_17
REMARK    6  A    between atoms: N_17  and  C_18
REMARK    7  A    between atoms: C_18  and  C_19
REMARK                            x       y       z     vdW  Elec       q    Type
REMARK                         _______ _______ _______ _____ _____    ______ ____
ROOT
ATOM      1  C   UNL     1      49.597   6.388  16.688  0.00  0.00    +0.000 C 
ATOM      2  O   UNL     1      48.681   6.757  17.419  0.00  0.00    +0.000 OA
ATOM      3  N   UNL     1      49.640   6.752  15.365  0.00  0.00    +0.000 N 
ATOM      4  H   UNL     1      50.393   6.439  14.760  0.00  0.00    +0.000 HD
ENDROOT
BRANCH   1  11
ATOM      5  N   UNL     1      51.888   0.206  18.018  0.00  0.00    +0.000 N 
ATOM      6  C   UNL     1      51.580   1.515  17.849  0.00  0.00    +0.000 A 
ATOM      7  N   UNL     1      52.441   2.445  18.127  0.00  0.00    +0.000 NA
ATOM      8  C   UNL     1      52.024   3.716  17.882  0.00  0.00    +0.000 A 
ATOM      9  S   UNL     1      53.049   5.042  18.175  0.00  0.00    +0.000 S 
ATOM     10  C   UNL     1      51.876   6.143  17.612  0.00  0.00    +0.000 A 
ATOM     11  C   UNL     1      50.689   5.544  17.201  0.00  0.00    +0.000 A 
ATOM     12  C   UNL     1      50.797   4.110  17.379  0.00  0.00    +0.000 A 
ATOM     13  C   UNL     1      49.860   3.042  17.107  0.00  0.00    +0.000 A 
ATOM     14  O   UNL     1      48.726   3.210  16.663  0.00  0.00    +0.000 OA
ATOM     15  N   UNL     1      50.326   1.779  17.375  0.00  0.00    +0.000 N 
ATOM     16  H   UNL     1      52.718   0.047  18.581  0.00  0.00    +0.000 HD
ATOM     17  H   UNL     1      51.146  -0.463  18.166  0.00  0.00    +0.000 HD
ATOM     18  H   UNL     1      49.694   1.027  17.157  0.00  0.00    +0.000 HD
ENDBRANCH   1  11
BRANCH   3  19
ATOM     19  C   UNL     1      48.615   7.576  14.772  0.00  0.00    +0.000 C 
BRANCH  19  20
ATOM     20  C   UNL     1      47.690   6.776  13.889  0.00  0.00    +0.000 A 
ATOM     21  C   UNL     1      47.374   5.446  14.195  0.00  0.00    +0.000 A 
ATOM     22  C   UNL     1      46.509   4.710  13.376  0.00  0.00    +0.000 A 
ATOM     23  C   UNL     1      45.945   5.286  12.228  0.00  0.00    +0.000 A 
ATOM     24  C   UNL     1      46.280   6.610  11.911  0.00  0.00    +0.000 A 
ATOM     25  C   UNL     1      47.146   7.344  12.729  0.00  0.00    +0.000 A 
BRANCH  23  26
ATOM     26  C   UNL     1      45.011   4.496  11.338  0.00  0.00    +0.000 C 
BRANCH  26  27
ATOM     27  N   UNL     1      44.946   5.064   9.997  0.00  0.00    +0.000 NA
ATOM     28  H   UNL     1      45.886   5.308   9.679  0.00  0.00    +0.000 HD
BRANCH  27  29
ATOM     29  C   UNL     1      44.387   4.102   9.031  0.00  0.00    +0.000 C 
BRANCH  29  30
ATOM     30  C   UNL     1      45.462   3.269   8.350  0.00  0.00    +0.000 A 
ATOM     31  N   UNL     1      46.259   3.894   7.452  0.00  0.00    +0.000 NA
ATOM     32  C   UNL     1      47.161   3.124   6.816  0.00  0.00    +0.000 A 
ATOM     33  C   UNL     1      47.307   1.776   7.047  0.00  0.00    +0.000 A 
ATOM     34  C   UNL     1      46.466   1.241   7.993  0.00  0.00    +0.000 A 
ATOM     35  N   UNL     1      45.543   1.958   8.660  0.00  0.00    +0.000 NA
ENDBRANCH  29  30
ENDBRANCH  27  29
ENDBRANCH  26  27
ENDBRANCH  23  26
ENDBRANCH  19  20
ENDBRANCH   3  19
TORSDOF 7
ENDMDL
MODEL 3
REMARK VINA RESULT:    -7.312      4.678      9.570
REMARK INTER + INTRA:         -11.347
REMARK INTER:                 -10.583
REMARK INTRA:                  -0.764
REMARK UNBOUND:                -1.042
REMARK  Name = 
REMARK  7 active torsions:
REMARK  status: ('A' for Active; 'I' for Inactive)
REMARK    1  A    between atoms: C_7  and  C_8
REMARK    2  A    between atoms: N_10  and  C_11
REMARK    3  A    between atoms: C_11  and  C_12
REMARK    4  A    between atoms: C_15  and  C_16
REMARK    5  A    between atoms: C_16  and  N_17
REMARK    6  A    between atoms: N_17  and  C_18
REMARK    7  A    between atoms: C_18  and  C_19
REMARK                            x       y       z     vdW  Elec       q    Type
REMARK                         _______ _______ _______ _____ _____    ______ ____
ROOT
ATOM      1  C   UNL     1      47.180   4.246  14.720  0.00  0.00    +0.000 C 
ATOM      2  O   UNL     1      47.434   3.127  14.282  0.00  0.00    +0.000 OA
ATOM      3  N   UNL     1      47.170   4.495  16.070  0.00  0.00    +0.000 N 
ATOM      4  H   UNL     1      46.952   5.419  16.430  0.00  0.00    +0.000 HD
ENDROOT
BRANCH   1  11
ATOM      5  N   UNL     1      42.664   7.441  10.895  0.00  0.00    +0.000 N 
ATOM      6  C   UNL     1      43.705   6.913  11.583  0.00  0.00    +0.000 A 
ATOM      7  N   UNL     1      44.862   7.501  11.599  0.00  0.00    +0.000 NA
ATOM      8  C   UNL     1      45.815   6.890  12.353  0.00  0.00    +0.000 A 
ATOM      9  S   UNL     1      47.375   7.553  12.491  0.00  0.00    +0.000 S 
ATOM     10  C   UNL     1      47.869   6.311  13.548  0.00  0.00    +0.000 A 
ATOM     11  C   UNL     1      46.880   5.368  13.815  0.00  0.00    +0.000 A 
ATOM     12  C   UNL     1      45.678   5.727  13.090  0.00  0.00    +0.000 A 
ATOM     13  C   UNL     1      44.379   5.093  13.025  0.00  0.00    +0.000 A 
ATOM     14  O   UNL     1      44.083   4.055  13.610  0.00  0.00    +0.000 OA
ATOM     15  N   UNL     1      43.454   5.745  12.246  0.00  0.00    +0.000 N 
ATOM     16  H   UNL     1      42.931   8.164  10.234  0.00  0.00    +0.000 HD
ATOM     17  H   UNL     1      41.921   6.835  10.576  0.00  0.00    +0.000 HD
ATOM     18  H   UNL     1      42.538   5.330  12.221  0.00  0.00    +0.000 HD
ENDBRANCH   1  11
BRANCH   3  19
ATOM     19  C   UNL     1      47.451   3.459  17.034  0.00  0.00    +0.000 C 
BRANCH  19  20
ATOM     20  C   UNL     1      48.930   3.303  17.278  0.00  0.00    +0.000 A 
ATOM     21  C   UNL     1      49.696   4.370  17.766  0.00  0.00    +0.000 A 
ATOM     22  C   UNL     1      51.069   4.217  17.998  0.00  0.00    +0.000 A 
ATOM     23  C   UNL     1      51.708   2.995  17.741  0.00  0.00    +0.000 A 
ATOM     24  C   UNL     1      50.945   1.935  17.232  0.00  0.00    +0.000 A 
ATOM     25  C   UNL     1      49.574   2.090  16.998  0.00  0.00    +0.000 A 
BRANCH  23  26
ATOM     26  C   UNL     1      53.191   2.824  17.989  0.00  0.00    +0.000 C 
BRANCH  26  27
ATOM     27  N   UNL     1      53.443   2.077  19.215  0.00  0.00    +0.000 NA
ATOM     28  H   UNL     1      52.780   1.303  19.291  0.00  0.00    +0.000 HD
BRANCH  27  29
ATOM     29  C   UNL     1      54.799   1.501  19.226  0.00  0.00    +0.000 C 
BRANCH  29  30
ATOM     30  C   UNL     1      54.821   0.050  18.770  0.00  0.00    +0.000 A 
ATOM     31  N   UNL     1      55.314  -0.208  17.536  0.00  0.00    +0.000 NA
ATOM     32  C   UNL     1      55.265  -1.489  17.129  0.00  0.00    +0.000 A 
ATOM     33  C   UNL     1      54.763  -2.512  17.899  0.00  0.00    +0.000 A 
ATOM     34  C   UNL     1      54.307  -2.151  19.144  0.00  0.00    +0.000 A 
ATOM     35  N   UNL     1      54.328  -0.887  19.606  0.00  0.00    +0.000 NA
ENDBRANCH  29  30
ENDBRANCH  27  29
ENDBRANCH  26  27
ENDBRANCH  23  26
ENDBRANCH  19  20
ENDBRANCH   3  19
TORSDOF 7
ENDMDL
MODEL 4
REMARK VINA RESULT:    -7.222      4.110      5.113
REMARK INTER + INTRA:         -11.220
REMARK INTER:                 -10.573
REMARK INTRA:                  -0.646
REMARK UNBOUND:                -1.042
REMARK  Name = 
REMARK  7 active torsions:
REMARK  status: ('A' for Active; 'I' for Inactive)
REMARK    1  A    between atoms: C_7  and  C_8
REMARK    2  A    between atoms: N_10  and  C_11
REMARK    3  A    between atoms: C_11  and  C_12
REMARK    4  A    between atoms: C_15  and  C_16
REMARK    5  A    between atoms: C_16  and  N_17
REMARK    6  A    between atoms: N_17  and  C_18
REMARK    7  A    between atoms: C_18  and  C_19
REMARK                            x       y       z     vdW  Elec       q    Type
REMARK                         _______ _______ _______ _____ _____    ______ ____
ROOT
ATOM      1  C   UNL     1      47.362  10.066  12.012  0.00  0.00    +0.000 C 
ATOM      2  O   UNL     1      46.632  11.036  12.199  0.00  0.00    +0.000 OA
ATOM      3  N   UNL     1      46.933   8.791  12.286  0.00  0.00    +0.000 N 
ATOM      4  H   UNL     1      47.541   7.991  12.138  0.00  0.00    +0.000 HD
ENDROOT
BRANCH   1  11
ATOM      5  N   UNL     1      53.438   7.377  10.966  0.00  0.00    +0.000 N 
ATOM      6  C   UNL     1      52.294   8.086  11.124  0.00  0.00    +0.000 A 
ATOM      7  N   UNL     1      52.188   9.294  10.660  0.00  0.00    +0.000 NA
ATOM      8  C   UNL     1      50.979   9.887  10.853  0.00  0.00    +0.000 A 
ATOM      9  S   UNL     1      50.679  11.460  10.282  0.00  0.00    +0.000 S 
ATOM     10  C   UNL     1      49.071  11.418  10.847  0.00  0.00    +0.000 A 
ATOM     11  C   UNL     1      48.726  10.229  11.483  0.00  0.00    +0.000 A 
ATOM     12  C   UNL     1      49.873   9.344  11.483  0.00  0.00    +0.000 A 
ATOM     13  C   UNL     1      50.044   8.005  12.004  0.00  0.00    +0.000 A 
ATOM     14  O   UNL     1      49.171   7.373  12.595  0.00  0.00    +0.000 OA
ATOM     15  N   UNL     1      51.283   7.453  11.790  0.00  0.00    +0.000 N 
ATOM     16  H   UNL     1      54.235   7.938  10.685  0.00  0.00    +0.000 HD
ATOM     17  H   UNL     1      53.655   6.635  11.616  0.00  0.00    +0.000 HD
ATOM     18  H   UNL     1      51.401   6.510  12.120  0.00  0.00    +0.000 HD
ENDBRANCH   1  11
BRANCH   3  19
ATOM     19  C   UNL     1      45.613   8.531  12.808  0.00  0.00    +0.000 C 
BRANCH  19  20
ATOM     20  C   UNL     1      45.126   7.152  12.445  0.00  0.00    +0.000 A 
ATOM     21  C   UNL     1      45.634   6.016  13.090  0.00  0.00    +0.000 A 
ATOM     22  C   UNL     1      45.173   4.737  12.754  0.00  0.00    +0.000 A 
ATOM     23  C   UNL     1      44.196   4.564  11.762  0.00  0.00    +0.000 A 
ATOM     24  C   UNL     1      43.704   5.699  11.104  0.00  0.00    +0.000 A 
ATOM     25  C   UNL     1      44.167   6.977  11.438  0.00  0.00    +0.000 A 
BRANCH  23  26
ATOM     26  C   UNL     1      43.694   3.185  11.395  0.00  0.00    +0.000 C 
BRANCH  26  27
ATOM     27  N   UNL     1      44.716   2.417  10.695  0.00  0.00    +0.000 NA
ATOM     28  H   UNL     1      44.783   1.481  11.100  0.00  0.00    +0.000 HD
BRANCH  27  29
ATOM     29  C   UNL     1      44.388   2.259   9.267  0.00  0.00    +0.000 C 
BRANCH  29  30
ATOM     30  C   UNL     1      45.626   2.227   8.384  0.00  0.00    +0.000 A 
ATOM     31  N   UNL     1      46.020   3.393   7.821  0.00  0.00    +0.000 NA
ATOM     32  C   UNL     1      47.079   3.329   6.994  0.00  0.00    +0.000 A 
ATOM     33  C   UNL     1      47.761   2.167   6.720  0.00  0.00    +0.000 A 
ATOM     34  C   UNL     1      47.297   1.041   7.359  0.00  0.00    +0.000 A 
ATOM     35  N   UNL     1      46.242   1.041   8.194  0.00  0.00    +0.000 NA
ENDBRANCH  29  30
ENDBRANCH  27  29
ENDBRANCH  26  27
ENDBRANCH  23  26
ENDBRANCH  19  20
ENDBRANCH   3  19
TORSDOF 7
ENDMDL
MODEL 5
REMARK VINA RESULT:    -7.173      3.143      8.970
REMARK INTER + INTRA:         -11.151
REMARK INTER:                 -10.085
REMARK INTRA:                  -1.066
REMARK UNBOUND:                -1.042
REMARK  Name = 
REMARK  7 active torsions:
REMARK  status: ('A' for Active; 'I' for Inactive)
REMARK    1  A    between atoms: C_7  and  C_8
REMARK    2  A    between atoms: N_10  and  C_11
REMARK    3  A    between atoms: C_11  and  C_12
REMARK    4  A    between atoms: C_15  and  C_16
REMARK    5  A    between atoms: C_16  and  N_17
REMARK    6  A    between atoms: N_17  and  C_18
REMARK    7  A    between atoms: C_18  and  C_19
REMARK                            x       y       z     vdW  Elec       q    Type
REMARK                         _______ _______ _______ _____ _____    ______ ____
ROOT
ATOM      1  C   UNL     1      44.372   4.656  10.526  0.00  0.00    +0.000 C 
ATOM      2  O   UNL     1      43.212   4.780  10.910  0.00  0.00    +0.000 OA
ATOM      3  N   UNL     1      45.339   5.563  10.881  0.00  0.00    +0.000 N 
ATOM      4  H   UNL     1      46.296   5.462  10.556  0.00  0.00    +0.000 HD
ENDROOT
BRANCH   1  11
ATOM      5  N   UNL     1      48.294   2.361   5.567  0.00  0.00    +0.000 N 
ATOM      6  C   UNL     1      47.409   2.656   6.549  0.00  0.00    +0.000 A 
ATOM      7  N   UNL     1      46.637   1.740   7.050  0.00  0.00    +0.000 NA
ATOM      8  C   UNL     1      45.817   2.155   8.053  0.00  0.00    +0.000 A 
ATOM      9  S   UNL     1      44.763   1.065   8.824  0.00  0.00    +0.000 S 
ATOM     10  C   UNL     1      44.195   2.276   9.880  0.00  0.00    +0.000 A 
ATOM     11  C   UNL     1      44.775   3.524   9.674  0.00  0.00    +0.000 A 
ATOM     12  C   UNL     1      45.723   3.430   8.582  0.00  0.00    +0.000 A 
ATOM     13  C   UNL     1      46.585   4.423   7.979  0.00  0.00    +0.000 A 
ATOM     14  O   UNL     1      46.629   5.603   8.319  0.00  0.00    +0.000 OA
ATOM     15  N   UNL     1      47.388   3.957   6.968  0.00  0.00    +0.000 N 
ATOM     16  H   UNL     1      48.130   1.465   5.120  0.00  0.00    +0.000 HD
ATOM     17  H   UNL     1      48.603   3.092   4.942  0.00  0.00    +0.000 HD
ATOM     18  H   UNL     1      48.015   4.632   6.564  0.00  0.00    +0.000 HD
ENDBRANCH   1  11
BRANCH   3  19
ATOM     19  C   UNL     1      45.040   6.703  11.712  0.00  0.00    +0.000 C 
BRANCH  19  20
ATOM     20  C   UNL     1      46.180   7.038  12.640  0.00  0.00    +0.000 A 
ATOM     21  C   UNL     1      46.329   8.331  13.160  0.00  0.00    +0.000 A 
ATOM     22  C   UNL     1      47.386   8.635  14.027  0.00  0.00    +0.000 A 
ATOM     23  C   UNL     1      48.321   7.654  14.391  0.00  0.00    +0.000 A 
ATOM     24  C   UNL     1      48.183   6.368  13.853  0.00  0.00    +0.000 A 
ATOM     25  C   UNL     1      47.128   6.065  12.984  0.00  0.00    +0.000 A 
BRANCH  23  26
ATOM     26  C   UNL     1      49.464   7.977  15.326  0.00  0.00    +0.000 C 
BRANCH  26  27
ATOM     27  N   UNL     1      50.259   6.791  15.624  0.00  0.00    +0.000 NA
ATOM     28  H   UNL     1      51.249   6.993  15.477  0.00  0.00    +0.000 HD
BRANCH  27  29
ATOM     29  C   UNL     1      50.096   6.372  17.028  0.00  0.00    +0.000 C 
BRANCH  29  30
ATOM     30  C   UNL     1      49.214   5.142  17.171  0.00  0.00    +0.000 A 
ATOM     31  N   UNL     1      49.805   3.932  17.039  0.00  0.00    +0.000 NA
ATOM     32  C   UNL     1      48.995   2.860  17.107  0.00  0.00    +0.000 A 
ATOM     33  C   UNL     1      47.638   2.945  17.312  0.00  0.00    +0.000 A 
ATOM     34  C   UNL     1      47.137   4.217  17.456  0.00  0.00    +0.000 A 
ATOM     35  N   UNL     1      47.895   5.327  17.396  0.00  0.00    +0.000 NA
ENDBRANCH  29  30
ENDBRANCH  27  29
ENDBRANCH  26  27
ENDBRANCH  23  26
ENDBRANCH  19  20
ENDBRANCH   3  19
TORSDOF 7
ENDMDL
MODEL 6
REMARK VINA RESULT:    -7.133      1.673      2.225
REMARK INTER + INTRA:         -11.095
REMARK INTER:                 -10.236
REMARK INTRA:                  -0.859
REMARK UNBOUND:                -1.042
REMARK  Name = 
REMARK  7 active torsions:
REMARK  status: ('A' for Active; 'I' for Inactive)
REMARK    1  A    between atoms: C_7  and  C_8
REMARK    2  A    between atoms: N_10  and  C_11
REMARK    3  A    between atoms: C_11  and  C_12
REMARK    4  A    between atoms: C_15  and  C_16
REMARK    5  A    between atoms: C_16  and  N_17
REMARK    6  A    between atoms: N_17  and  C_18
REMARK    7  A    between atoms: C_18  and  C_19
REMARK                            x       y       z     vdW  Elec       q    Type
REMARK                         _______ _______ _______ _____ _____    ______ ____
ROOT
ATOM      1  C   UNL     1      47.954   9.135  13.889  0.00  0.00    +0.000 C 
ATOM      2  O   UNL     1      48.402   9.550  12.822  0.00  0.00    +0.000 OA
ATOM      3  N   UNL     1      46.651   8.720  13.999  0.00  0.00    +0.000 N 
ATOM      4  H   UNL     1      46.282   8.385  14.884  0.00  0.00    +0.000 HD
ENDROOT
BRANCH   1  11
ATOM      5  N   UNL     1      51.069   5.302  18.454  0.00  0.00    +0.000 N 
ATOM      6  C   UNL     1      50.484   6.222  17.650  0.00  0.00    +0.000 A 
ATOM      7  N   UNL     1      50.685   7.492  17.833  0.00  0.00    +0.000 NA
ATOM      8  C   UNL     1      50.070   8.312  16.939  0.00  0.00    +0.000 A 
ATOM      9  S   UNL     1      50.256  10.000  17.035  0.00  0.00    +0.000 S 
ATOM     10  C   UNL     1      49.290  10.240  15.652  0.00  0.00    +0.000 A 
ATOM     11  C   UNL     1      48.800   9.063  15.093  0.00  0.00    +0.000 A 
ATOM     12  C   UNL     1      49.266   7.938  15.877  0.00  0.00    +0.000 A 
ATOM     13  C   UNL     1      49.051   6.516  15.726  0.00  0.00    +0.000 A 
ATOM     14  O   UNL     1      48.363   6.007  14.843  0.00  0.00    +0.000 OA
ATOM     15  N   UNL     1      49.688   5.730  16.655  0.00  0.00    +0.000 N 
ATOM     16  H   UNL     1      51.455   5.687  19.310  0.00  0.00    +0.000 HD
ATOM     17  H   UNL     1      50.641   4.392  18.559  0.00  0.00    +0.000 HD
ATOM     18  H   UNL     1      49.572   4.738  16.538  0.00  0.00    +0.000 HD
ENDBRANCH   1  11
BRANCH   3  19
ATOM     19  C   UNL     1      45.747   8.754  12.876  0.00  0.00    +0.000 C 
BRANCH  19  20
ATOM     20  C   UNL     1      45.284   7.374  12.483  0.00  0.00    +0.000 A 
ATOM     21  C   UNL     1      44.310   7.196  11.492  0.00  0.00    +0.000 A 
ATOM     22  C   UNL     1      43.889   5.912  11.126  0.00  0.00    +0.000 A 
ATOM     23  C   UNL     1      44.429   4.776  11.746  0.00  0.00    +0.000 A 
ATOM     24  C   UNL     1      45.388   4.956  12.752  0.00  0.00    +0.000 A 
ATOM     25  C   UNL     1      45.806   6.239  13.119  0.00  0.00    +0.000 A 
BRANCH  23  26
ATOM     26  C   UNL     1      43.977   3.386  11.355  0.00  0.00    +0.000 C 
BRANCH  26  27
ATOM     27  N   UNL     1      43.898   3.240   9.906  0.00  0.00    +0.000 NA
ATOM     28  H   UNL     1      44.387   4.015   9.454  0.00  0.00    +0.000 HD
BRANCH  27  29
ATOM     29  C   UNL     1      44.537   1.990   9.455  0.00  0.00    +0.000 C 
BRANCH  29  30
ATOM     30  C   UNL     1      45.580   2.226   8.374  0.00  0.00    +0.000 A 
ATOM     31  N   UNL     1      46.435   1.213   8.102  0.00  0.00    +0.000 NA
ATOM     32  C   UNL     1      47.389   1.466   7.186  0.00  0.00    +0.000 A 
ATOM     33  C   UNL     1      47.513   2.668   6.531  0.00  0.00    +0.000 A 
ATOM     34  C   UNL     1      46.582   3.624   6.860  0.00  0.00    +0.000 A 
ATOM     35  N   UNL     1      45.608   3.432   7.768  0.00  0.00    +0.000 NA
ENDBRANCH  29  30
ENDBRANCH  27  29
ENDBRANCH  26  27
ENDBRANCH  23  26
ENDBRANCH  19  20
ENDBRANCH   3  19
TORSDOF 7
ENDMDL
MODEL 7
REMARK VINA RESULT:    -6.603      3.245      8.413
REMARK INTER + INTRA:         -10.348
REMARK INTER:                  -9.167
REMARK INTRA:                  -1.181
REMARK UNBOUND:                -1.042
REMARK  Name = 
REMARK  7 active torsions:
REMARK  status: ('A' for Active; 'I' for Inactive)
REMARK    1  A    between atoms: C_7  and  C_8
REMARK    2  A    between atoms: N_10  and  C_11
REMARK    3  A    between atoms: C_11  and  C_12
REMARK    4  A    between atoms: C_15  and  C_16
REMARK    5  A    between atoms: C_16  and  N_17
REMARK    6  A    between atoms: N_17  and  C_18
REMARK    7  A    between atoms: C_18  and  C_19
REMARK                            x       y       z     vdW  Elec       q    Type
REMARK                         _______ _______ _______ _____ _____    ______ ____
ROOT
ATOM      1  C   UNL     1      48.056   6.886  13.241  0.00  0.00    +0.000 C 
ATOM      2  O   UNL     1      49.090   6.286  12.956  0.00  0.00    +0.000 OA
ATOM      3  N   UNL     1      48.065   7.933  14.128  0.00  0.00    +0.000 N 
ATOM      4  H   UNL     1      47.207   8.422  14.368  0.00  0.00    +0.000 HD
ENDROOT
BRANCH   1  11
ATOM      5  N   UNL     1      43.490   2.087  12.077  0.00  0.00    +0.000 N 
ATOM      6  C   UNL     1      44.309   3.161  12.186  0.00  0.00    +0.000 A 
ATOM      7  N   UNL     1      43.961   4.317  11.711  0.00  0.00    +0.000 NA
ATOM      8  C   UNL     1      44.854   5.323  11.914  0.00  0.00    +0.000 A 
ATOM      9  S   UNL     1      44.529   6.901  11.370  0.00  0.00    +0.000 S 
ATOM     10  C   UNL     1      45.996   7.483  12.012  0.00  0.00    +0.000 A 
ATOM     11  C   UNL     1      46.766   6.508  12.640  0.00  0.00    +0.000 A 
ATOM     12  C   UNL     1      46.075   5.238  12.561  0.00  0.00    +0.000 A 
ATOM     13  C   UNL     1      46.433   3.925  13.052  0.00  0.00    +0.000 A 
ATOM     14  O   UNL     1      47.478   3.667  13.644  0.00  0.00    +0.000 OA
ATOM     15  N   UNL     1      45.501   2.944  12.818  0.00  0.00    +0.000 N 
ATOM     16  H   UNL     1      42.733   2.211  11.412  0.00  0.00    +0.000 HD
ATOM     17  H   UNL     1      43.886   1.158  12.093  0.00  0.00    +0.000 HD
ATOM     18  H   UNL     1      45.726   2.035  13.186  0.00  0.00    +0.000 HD
ENDBRANCH   1  11
BRANCH   3  19
ATOM     19  C   UNL     1      49.279   8.375  14.768  0.00  0.00    +0.000 C 
BRANCH  19  20
ATOM     20  C   UNL     1      49.168   8.343  16.271  0.00  0.00    +0.000 A 
ATOM     21  C   UNL     1      48.060   8.901  16.923  0.00  0.00    +0.000 A 
ATOM     22  C   UNL     1      47.958   8.862  18.319  0.00  0.00    +0.000 A 
ATOM     23  C   UNL     1      48.963   8.268  19.096  0.00  0.00    +0.000 A 
ATOM     24  C   UNL     1      50.081   7.730  18.444  0.00  0.00    +0.000 A 
ATOM     25  C   UNL     1      50.184   7.772  17.049  0.00  0.00    +0.000 A 
BRANCH  23  26
ATOM     26  C   UNL     1      48.859   8.224  20.604  0.00  0.00    +0.000 C 
BRANCH  26  27
ATOM     27  N   UNL     1      48.956   6.858  21.104  0.00  0.00    +0.000 NA
ATOM     28  H   UNL     1      49.045   6.868  22.122  0.00  0.00    +0.000 HD
BRANCH  27  29
ATOM     29  C   UNL     1      47.751   6.076  20.773  0.00  0.00    +0.000 C 
BRANCH  29  30
ATOM     30  C   UNL     1      47.941   5.207  19.539  0.00  0.00    +0.000 A 
ATOM     31  N   UNL     1      49.032   4.407  19.502  0.00  0.00    +0.000 NA
ATOM     32  C   UNL     1      49.213   3.694  18.375  0.00  0.00    +0.000 A 
ATOM     33  C   UNL     1      48.353   3.738  17.303  0.00  0.00    +0.000 A 
ATOM     34  C   UNL     1      47.264   4.563  17.447  0.00  0.00    +0.000 A 
ATOM     35  N   UNL     1      47.030   5.301  18.548  0.00  0.00    +0.000 NA
ENDBRANCH  29  30
ENDBRANCH  27  29
ENDBRANCH  26  27
ENDBRANCH  23  26
ENDBRANCH  19  20
ENDBRANCH   3  19
TORSDOF 7
ENDMDL
MODEL 8
REMARK VINA RESULT:    -6.412      2.730      3.331
REMARK INTER + INTRA:         -10.078
REMARK INTER:                  -9.273
REMARK INTRA:                  -0.805
REMARK UNBOUND:                -1.042
REMARK  Name = 
REMARK  7 active torsions:
REMARK  status: ('A' for Active; 'I' for Inactive)
REMARK    1  A    between atoms: C_7  and  C_8
REMARK    2  A    between atoms: N_10  and  C_11
REMARK    3  A    between atoms: C_11  and  C_12
REMARK    4  A    between atoms: C_15  and  C_16
REMARK    5  A    between atoms: C_16  and  N_17
REMARK    6  A    between atoms: N_17  and  C_18
REMARK    7  A    between atoms: C_18  and  C_19
REMARK                            x       y       z     vdW  Elec       q    Type
REMARK                         _______ _______ _______ _____ _____    ______ ____
ROOT
ATOM      1  C   UNL     1      49.190   8.902  14.464  0.00  0.00    +0.000 C 
ATOM      2  O   UNL     1      48.678   9.573  15.357  0.00  0.00    +0.000 OA
ATOM      3  N   UNL     1      48.425   8.333  13.477  0.00  0.00    +0.000 N 
ATOM      4  H   UNL     1      48.849   7.772  12.744  0.00  0.00    +0.000 HD
ENDROOT
BRANCH   1  11
ATOM      5  N   UNL     1      54.527   5.469  16.691  0.00  0.00    +0.000 N 
ATOM      6  C   UNL     1      53.580   6.279  16.159  0.00  0.00    +0.000 A 
ATOM      7  N   UNL     1      53.885   7.160  15.256  0.00  0.00    +0.000 NA
ATOM      8  C   UNL     1      52.841   7.887  14.776  0.00  0.00    +0.000 A 
ATOM      9  S   UNL     1      53.078   9.064  13.572  0.00  0.00    +0.000 S 
ATOM     10  C   UNL     1      51.414   9.429  13.523  0.00  0.00    +0.000 A 
ATOM     11  C   UNL     1      50.645   8.684  14.413  0.00  0.00    +0.000 A 
ATOM     12  C   UNL     1      51.512   7.787  15.149  0.00  0.00    +0.000 A 
ATOM     13  C   UNL     1      51.222   6.810  16.176  0.00  0.00    +0.000 A 
ATOM     14  O   UNL     1      50.101   6.591  16.629  0.00  0.00    +0.000 OA
ATOM     15  N   UNL     1      52.309   6.106  16.631  0.00  0.00    +0.000 N 
ATOM     16  H   UNL     1      55.479   5.769  16.505  0.00  0.00    +0.000 HD
ATOM     17  H   UNL     1      54.384   5.076  17.611  0.00  0.00    +0.000 HD
ATOM     18  H   UNL     1      52.112   5.400  17.320  0.00  0.00    +0.000 HD
ENDBRANCH   1  11
BRANCH   3  19
ATOM     19  C   UNL     1      46.991   8.490  13.443  0.00  0.00    +0.000 C 
BRANCH  19  20
ATOM     20  C   UNL     1      46.295   7.219  13.024  0.00  0.00    +0.000 A 
ATOM     21  C   UNL     1      46.939   5.979  13.125  0.00  0.00    +0.000 A 
ATOM     22  C   UNL     1      46.286   4.801  12.741  0.00  0.00    +0.000 A 
ATOM     23  C   UNL     1      44.975   4.838  12.243  0.00  0.00    +0.000 A 
ATOM     24  C   UNL     1      44.341   6.081  12.122  0.00  0.00    +0.000 A 
ATOM     25  C   UNL     1      44.995   7.258  12.503  0.00  0.00    +0.000 A 
BRANCH  23  26
ATOM     26  C   UNL     1      44.265   3.569  11.826  0.00  0.00    +0.000 C 
BRANCH  26  27
ATOM     27  N   UNL     1      45.014   2.853  10.800  0.00  0.00    +0.000 NA
ATOM     28  H   UNL     1      44.824   1.852  10.870  0.00  0.00    +0.000 HD
BRANCH  27  29
ATOM     29  C   UNL     1      44.623   3.285   9.446  0.00  0.00    +0.000 C 
BRANCH  29  30
ATOM     30  C   UNL     1      45.578   2.781   8.375  0.00  0.00    +0.000 A 
ATOM     31  N   UNL     1      45.853   3.614   7.345  0.00  0.00    +0.000 NA
ATOM     32  C   UNL     1      46.650   3.124   6.377  0.00  0.00    +0.000 A 
ATOM     33  C   UNL     1      47.186   1.858   6.403  0.00  0.00    +0.000 A 
ATOM     34  C   UNL     1      46.865   1.098   7.502  0.00  0.00    +0.000 A 
ATOM     35  N   UNL     1      46.072   1.531   8.500  0.00  0.00    +0.000 NA
ENDBRANCH  29  30
ENDBRANCH  27  29
ENDBRANCH  26  27
ENDBRANCH  23  26
ENDBRANCH  19  20
ENDBRANCH   3  19
TORSDOF 7
ENDMDL
MODEL 9
REMARK VINA RESULT:    -6.398      4.076      5.755
REMARK INTER + INTRA:         -10.058
REMARK INTER:                  -9.273
REMARK INTRA:                  -0.785
REMARK UNBOUND:                -1.042
REMARK  Name = 
REMARK  7 active torsions:
REMARK  status: ('A' for Active; 'I' for Inactive)
REMARK    1  A    between atoms: C_7  and  C_8
REMARK    2  A    between atoms: N_10  and  C_11
REMARK    3  A    between atoms: C_11  and  C_12
REMARK    4  A    between atoms: C_15  and  C_16
REMARK    5  A    between atoms: C_16  and  N_17
REMARK    6  A    between atoms: N_17  and  C_18
REMARK    7  A    between atoms: C_18  and  C_19
REMARK                            x       y       z     vdW  Elec       q    Type
REMARK                         _______ _______ _______ _____ _____    ______ ____
ROOT
ATOM      1  C   UNL     1      49.400   8.342  12.397  0.00  0.00    +0.000 C 
ATOM      2  O   UNL     1      48.569   9.245  12.331  0.00  0.00    +0.000 OA
ATOM      3  N   UNL     1      49.188   7.238  13.184  0.00  0.00    +0.000 N 
ATOM      4  H   UNL     1      49.880   6.497  13.244  0.00  0.00    +0.000 HD
ENDROOT
BRANCH   1  11
ATOM      5  N   UNL     1      55.212  11.513  11.214  0.00  0.00    +0.000 N 
ATOM      6  C   UNL     1      54.080  10.773  11.292  0.00  0.00    +0.000 A 
ATOM      7  N   UNL     1      53.927   9.708  10.565  0.00  0.00    +0.000 NA
ATOM      8  C   UNL     1      52.762   9.033  10.761  0.00  0.00    +0.000 A 
ATOM      9  S   UNL     1      52.426   7.606   9.898  0.00  0.00    +0.000 S 
ATOM     10  C   UNL     1      50.938   7.405  10.704  0.00  0.00    +0.000 A 
ATOM     11  C   UNL     1      50.656   8.405  11.630  0.00  0.00    +0.000 A 
ATOM     12  C   UNL     1      51.744   9.361  11.639  0.00  0.00    +0.000 A 
ATOM     13  C   UNL     1      51.947  10.567  12.411  0.00  0.00    +0.000 A 
ATOM     14  O   UNL     1      51.147  11.009  13.232  0.00  0.00    +0.000 OA
ATOM     15  N   UNL     1      53.134  11.215  12.173  0.00  0.00    +0.000 N 
ATOM     16  H   UNL     1      55.785  11.306  10.402  0.00  0.00    +0.000 HD
ATOM     17  H   UNL     1      55.184  12.491  11.468  0.00  0.00    +0.000 HD
ATOM     18  H   UNL     1      53.300  12.036  12.730  0.00  0.00    +0.000 HD
ENDBRANCH   1  11
BRANCH   3  19
ATOM     19  C   UNL     1      47.989   7.088  13.972  0.00  0.00    +0.000 C 
BRANCH  19  20
ATOM     20  C   UNL     1      47.013   6.132  13.336  0.00  0.00    +0.000 A 
ATOM     21  C   UNL     1      46.314   6.484  12.174  0.00  0.00    +0.000 A 
ATOM     22  C   UNL     1      45.413   5.589  11.583  0.00  0.00    +0.000 A 
ATOM     23  C   UNL     1      45.188   4.323  12.143  0.00  0.00    +0.000 A 
ATOM     24  C   UNL     1      45.871   3.981  13.317  0.00  0.00    +0.000 A 
ATOM     25  C   UNL     1      46.769   4.876  13.909  0.00  0.00    +0.000 A 
BRANCH  23  26
ATOM     26  C   UNL     1      44.216   3.353  11.509  0.00  0.00    +0.000 C 
BRANCH  26  27
ATOM     27  N   UNL     1      44.877   2.502  10.527  0.00  0.00    +0.000 NA
ATOM     28  H   UNL     1      44.584   1.532  10.657  0.00  0.00    +0.000 HD
BRANCH  27  29
ATOM     29  C   UNL     1      44.523   2.892   9.151  0.00  0.00    +0.000 C 
BRANCH  29  30
ATOM     30  C   UNL     1      45.635   2.597   8.156  0.00  0.00    +0.000 A 
ATOM     31  N   UNL     1      45.943   3.564   7.261  0.00  0.00    +0.000 NA
ATOM     32  C   UNL     1      46.886   3.258   6.351  0.00  0.00    +0.000 A 
ATOM     33  C   UNL     1      47.536   2.047   6.309  0.00  0.00    +0.000 A 
ATOM     34  C   UNL     1      47.169   1.141   7.274  0.00  0.00    +0.000 A 
ATOM     35  N   UNL     1      46.232   1.387   8.208  0.00  0.00    +0.000 NA
ENDBRANCH  29  30
ENDBRANCH  27  29
ENDBRANCH  26  27
ENDBRANCH  23  26
ENDBRANCH  19  20
ENDBRANCH   3  19
TORSDOF 7
ENDMDL
