MODEL 1
REMARK VINA RESULT:    -7.239      0.000      0.000
REMARK INTER + INTRA:          -9.652
REMARK INTER:                  -9.143
REMARK INTRA:                  -0.509
REMARK UNBOUND:                -0.509
REMARK  Name = 
REMARK  5 active torsions:
REMARK  status: ('A' for Active; 'I' for Inactive)
REMARK    1  A    between atoms: N_1  and  C_2
REMARK    2  A    between atoms: C_2  and  C_3
REMARK    3  A    between atoms: C_6  and  O_7
REMARK    4  A    between atoms: O_7  and  C_8
REMARK    5  A    between atoms: C_8  and  C_9
REMARK                            x       y       z     vdW  Elec       q    Type
REMARK                         _______ _______ _______ _____ _____    ______ ____
ROOT
ATOM      1  C   UNL     1      47.042   2.378   7.258  0.00  0.00    +0.000 A 
ATOM      2  C   UNL     1      46.410   1.387   8.023  0.00  0.00    +0.000 A 
ATOM      3  C   UNL     1      45.319   1.704   8.837  0.00  0.00    +0.000 A 
ATOM      4  C   UNL     1      44.854   3.016   8.907  0.00  0.00    +0.000 A 
ATOM      5  C   UNL     1      45.438   3.996   8.099  0.00  0.00    +0.000 A 
ATOM      6  C   UNL     1      46.531   3.680   7.290  0.00  0.00    +0.000 A 
ENDROOT
BRANCH   1   7
ATOM      7  C   UNL     1      48.264   2.061   6.437  0.00  0.00    +0.000 C 
BRANCH   7   8
ATOM      8  N   UNL     1      48.154   2.579   5.081  0.00  0.00    +0.000 NA
ATOM      9  H   UNL     1      47.598   1.934   4.523  0.00  0.00    +0.000 HD
ATOM     10  H   UNL     1      49.083   2.598   4.662  0.00  0.00    +0.000 HD
ENDBRANCH   7   8
ENDBRANCH   1   7
BRANCH   4  11
ATOM     11  O   UNL     1      43.835   3.245   9.795  0.00  0.00    +0.000 OA
BRANCH  11  12
ATOM     12  C   UNL     1      43.781   4.581  10.301  0.00  0.00    +0.000 C 
BRANCH  12  13
ATOM     13  C   UNL     1      44.700   4.772  11.476  0.00  0.00    +0.000 A 
ATOM     14  C   UNL     1      45.672   5.776  11.452  0.00  0.00    +0.000 A 
ATOM     15  C   UNL     1      46.580   5.889  12.501  0.00  0.00    +0.000 A 
ATOM     16  C   UNL     1      46.488   4.983  13.543  0.00  0.00    +0.000 A 
ATOM     17  N   UNL     1      45.571   3.993  13.599  0.00  0.00    +0.000 NA
ATOM     18  C   UNL     1      44.702   3.907  12.565  0.00  0.00    +0.000 A 
ENDBRANCH  12  13
ENDBRANCH  11  12
ENDBRANCH   4  11
TORSDOF 5
ENDMDL
MODEL 2
REMARK VINA RESULT:    -6.852      1.621      5.664
REMARK INTER + INTRA:          -9.163
REMARK INTER:                  -8.746
REMARK INTRA:                  -0.417
REMARK UNBOUND:                -0.509
REMARK  Name = 
REMARK  5 active torsions:
REMARK  status: ('A' for Active; 'I' for Inactive)
REMARK    1  A    between atoms: N_1  and  C_2
REMARK    2  A    between atoms: C_2  and  C_3
REMARK    3  A    between atoms: C_6  and  O_7
REMARK    4  A    between atoms: O_7  and  C_8
REMARK    5  A    between atoms: C_8  and  C_9
REMARK                            x       y       z     vdW  Elec       q    Type
REMARK                         _______ _______ _______ _____ _____    ______ ____
ROOT
ATOM      1  C   UNL     1      46.645   5.495  12.890  0.00  0.00    +0.000 A 
ATOM      2  C   UNL     1      46.320   6.130  11.683  0.00  0.00    +0.000 A 
ATOM      3  C   UNL     1      45.450   5.523  10.772  0.00  0.00    +0.000 A 
ATOM      4  C   UNL     1      44.906   4.270  11.049  0.00  0.00    +0.000 A 
ATOM      5  C   UNL     1      45.175   3.661  12.277  0.00  0.00    +0.000 A 
ATOM      6  C   UNL     1      46.048   4.264  13.185  0.00  0.00    +0.000 A 
ENDROOT
BRANCH   1   7
ATOM      7  C   UNL     1      47.638   6.105  13.844  0.00  0.00    +0.000 C 
BRANCH   7   8
ATOM      8  N   UNL     1      48.942   6.288  13.223  0.00  0.00    +0.000 NA
ATOM      9  H   UNL     1      48.816   6.711  12.307  0.00  0.00    +0.000 HD
ATOM     10  H   UNL     1      49.360   5.371  13.064  0.00  0.00    +0.000 HD
ENDBRANCH   7   8
ENDBRANCH   1   7
BRANCH   4  11
ATOM     11  O   UNL     1      44.132   3.720  10.059  0.00  0.00    +0.000 OA
BRANCH  11  12
ATOM     12  C   UNL     1      44.547   4.054   8.732  0.00  0.00    +0.000 C 
BRANCH  12  13
ATOM     13  C   UNL     1      45.570   3.088   8.205  0.00  0.00    +0.000 A 
ATOM     14  C   UNL     1      46.453   3.479   7.194  0.00  0.00    +0.000 A 
ATOM     15  C   UNL     1      47.335   2.553   6.645  0.00  0.00    +0.000 A 
ATOM     16  C   UNL     1      47.300   1.256   7.125  0.00  0.00    +0.000 A 
ATOM     17  N   UNL     1      46.457   0.835   8.092  0.00  0.00    +0.000 NA
ATOM     18  C   UNL     1      45.610   1.757   8.606  0.00  0.00    +0.000 A 
ENDBRANCH  12  13
ENDBRANCH  11  12
ENDBRANCH   4  11
TORSDOF 5
ENDMDL
MODEL 3
REMARK VINA RESULT:    -6.534      1.376      1.682
REMARK INTER + INTRA:          -8.762
REMARK INTER:                  -8.248
REMARK INTRA:                  -0.514
REMARK UNBOUND:                -0.509
REMARK  Name = 
REMARK  5 active torsions:
REMARK  status: ('A' for Active; 'I' for Inactive)
REMARK    1  A    between atoms: N_1  and  C_2
REMARK    2  A    between atoms: C_2  and  C_3
REMARK    3  A    between atoms: C_6  and  O_7
REMARK    4  A    between atoms: O_7  and  C_8
REMARK    5  A    between atoms: C_8  and  C_9
REMARK                            x       y       z     vdW  Elec       q    Type
REMARK                         _______ _______ _______ _____ _____    ______ ____
ROOT
ATOM      1  C   UNL     1      46.373   2.162   7.775  0.00  0.00    +0.000 A 
ATOM      2  C   UNL     1      45.389   1.665   8.641  0.00  0.00    +0.000 A 
ATOM      3  C   UNL     1      44.532   2.537   9.320  0.00  0.00    +0.000 A 
ATOM      4  C   UNL     1      44.656   3.915   9.151  0.00  0.00    +0.000 A 
ATOM      5  C   UNL     1      45.592   4.413   8.241  0.00  0.00    +0.000 A 
ATOM      6  C   UNL     1      46.451   3.544   7.567  0.00  0.00    +0.000 A 
ENDROOT
BRANCH   1   7
ATOM      7  C   UNL     1      47.349   1.236   7.098  0.00  0.00    +0.000 C 
BRANCH   7   8
ATOM      8  N   UNL     1      48.383   1.969   6.383  0.00  0.00    +0.000 NA
ATOM      9  H   UNL     1      48.613   1.468   5.527  0.00  0.00    +0.000 HD
ATOM     10  H   UNL     1      49.230   1.977   6.950  0.00  0.00    +0.000 HD
ENDBRANCH   7   8
ENDBRANCH   1   7
BRANCH   4  11
ATOM     11  O   UNL     1      43.828   4.690   9.921  0.00  0.00    +0.000 OA
BRANCH  11  12
ATOM     12  C   UNL     1      44.089   4.618  11.326  0.00  0.00    +0.000 C 
BRANCH  12  13
ATOM     13  C   UNL     1      45.023   5.706  11.778  0.00  0.00    +0.000 A 
ATOM     14  C   UNL     1      44.657   7.048  11.643  0.00  0.00    +0.000 A 
ATOM     15  C   UNL     1      45.562   8.052  11.977  0.00  0.00    +0.000 A 
ATOM     16  C   UNL     1      46.813   7.676  12.432  0.00  0.00    +0.000 A 
ATOM     17  N   UNL     1      47.210   6.392  12.566  0.00  0.00    +0.000 NA
ATOM     18  C   UNL     1      46.309   5.438  12.234  0.00  0.00    +0.000 A 
ENDBRANCH  12  13
ENDBRANCH  11  12
ENDBRANCH   4  11
TORSDOF 5
ENDMDL
MODEL 4
REMARK VINA RESULT:    -6.416      1.514      6.063
REMARK INTER + INTRA:          -8.613
REMARK INTER:                  -8.347
REMARK INTRA:                  -0.267
REMARK UNBOUND:                -0.509
REMARK  Name = 
REMARK  5 active torsions:
REMARK  status: ('A' for Active; 'I' for Inactive)
REMARK    1  A    between atoms: N_1  and  C_2
REMARK    2  A    between atoms: C_2  and  C_3
REMARK    3  A    between atoms: C_6  and  O_7
REMARK    4  A    between atoms: O_7  and  C_8
REMARK    5  A    between atoms: C_8  and  C_9
REMARK                            x       y       z     vdW  Elec       q    Type
REMARK                         _______ _______ _______ _____ _____    ______ ____
ROOT
ATOM      1  C   UNL     1      44.871   6.008  11.741  0.00  0.00    +0.000 A 
ATOM      2  C   UNL     1      45.732   5.898  10.639  0.00  0.00    +0.000 A 
ATOM      3  C   UNL     1      45.509   4.929   9.656  0.00  0.00    +0.000 A 
ATOM      4  C   UNL     1      44.432   4.051   9.768  0.00  0.00    +0.000 A 
ATOM      5  C   UNL     1      43.534   4.198  10.829  0.00  0.00    +0.000 A 
ATOM      6  C   UNL     1      43.760   5.161  11.814  0.00  0.00    +0.000 A 
ENDROOT
BRANCH   1   7
ATOM      7  C   UNL     1      45.146   6.998  12.842  0.00  0.00    +0.000 C 
BRANCH   7   8
ATOM      8  N   UNL     1      46.491   6.853  13.377  0.00  0.00    +0.000 NA
ATOM      9  H   UNL     1      46.445   6.345  14.258  0.00  0.00    +0.000 HD
ATOM     10  H   UNL     1      46.858   7.779  13.596  0.00  0.00    +0.000 HD
ENDBRANCH   7   8
ENDBRANCH   1   7
BRANCH   4  11
ATOM     11  O   UNL     1      44.344   3.084   8.801  0.00  0.00    +0.000 OA
BRANCH  11  12
ATOM     12  C   UNL     1      45.388   2.107   8.845  0.00  0.00    +0.000 C 
BRANCH  12  13
ATOM     13  C   UNL     1      46.308   2.216   7.662  0.00  0.00    +0.000 A 
ATOM     14  C   UNL     1      46.066   3.168   6.667  0.00  0.00    +0.000 A 
ATOM     15  C   UNL     1      46.866   3.202   5.529  0.00  0.00    +0.000 A 
ATOM     16  C   UNL     1      47.884   2.272   5.420  0.00  0.00    +0.000 A 
ATOM     17  N   UNL     1      48.145   1.330   6.351  0.00  0.00    +0.000 NA
ATOM     18  C   UNL     1      47.350   1.321   7.447  0.00  0.00    +0.000 A 
ENDBRANCH  12  13
ENDBRANCH  11  12
ENDBRANCH   4  11
TORSDOF 5
ENDMDL
MODEL 5
REMARK VINA RESULT:    -5.511      2.054      6.113
REMARK INTER + INTRA:          -7.470
REMARK INTER:                  -7.083
REMARK INTRA:                  -0.387
REMARK UNBOUND:                -0.509
REMARK  Name = 
REMARK  5 active torsions:
REMARK  status: ('A' for Active; 'I' for Inactive)
REMARK    1  A    between atoms: N_1  and  C_2
REMARK    2  A    between atoms: C_2  and  C_3
REMARK    3  A    between atoms: C_6  and  O_7
REMARK    4  A    between atoms: O_7  and  C_8
REMARK    5  A    between atoms: C_8  and  C_9
REMARK                            x       y       z     vdW  Elec       q    Type
REMARK                         _______ _______ _______ _____ _____    ______ ____
ROOT
ATOM      1  C   UNL     1      47.440   6.380  13.862  0.00  0.00    +0.000 A 
ATOM      2  C   UNL     1      46.575   6.748  12.821  0.00  0.00    +0.000 A 
ATOM      3  C   UNL     1      45.701   5.812  12.257  0.00  0.00    +0.000 A 
ATOM      4  C   UNL     1      45.690   4.497  12.718  0.00  0.00    +0.000 A 
ATOM      5  C   UNL     1      46.503   4.141  13.797  0.00  0.00    +0.000 A 
ATOM      6  C   UNL     1      47.379   5.073  14.356  0.00  0.00    +0.000 A 
ENDROOT
BRANCH   1   7
ATOM      7  C   UNL     1      48.436   7.360  14.423  0.00  0.00    +0.000 C 
BRANCH   7   8
ATOM      8  N   UNL     1      49.806   6.903  14.240  0.00  0.00    +0.000 NA
ATOM      9  H   UNL     1      49.959   6.702  13.254  0.00  0.00    +0.000 HD
ATOM     10  H   UNL     1      49.926   6.022  14.738  0.00  0.00    +0.000 HD
ENDBRANCH   7   8
ENDBRANCH   1   7
BRANCH   4  11
ATOM     11  O   UNL     1      44.861   3.634  12.049  0.00  0.00    +0.000 OA
BRANCH  11  12
ATOM     12  C   UNL     1      44.263   4.184  10.872  0.00  0.00    +0.000 C 
BRANCH  12  13
ATOM     13  C   UNL     1      44.937   3.694   9.620  0.00  0.00    +0.000 A 
ATOM     14  C   UNL     1      45.159   2.327   9.430  0.00  0.00    +0.000 A 
ATOM     15  C   UNL     1      45.865   1.887   8.314  0.00  0.00    +0.000 A 
ATOM     16  C   UNL     1      46.334   2.837   7.424  0.00  0.00    +0.000 A 
ATOM     17  N   UNL     1      46.151   4.166   7.576  0.00  0.00    +0.000 NA
ATOM     18  C   UNL     1      45.461   4.564   8.670  0.00  0.00    +0.000 A 
ENDBRANCH  12  13
ENDBRANCH  11  12
ENDBRANCH   4  11
TORSDOF 5
ENDMDL
MODEL 6
REMARK VINA RESULT:    -5.203      4.102      8.206
REMARK INTER + INTRA:          -7.081
REMARK INTER:                  -6.745
REMARK INTRA:                  -0.336
REMARK UNBOUND:                -0.509
REMARK  Name = 
REMARK  5 active torsions:
REMARK  status: ('A' for Active; 'I' for Inactive)
REMARK    1  A    between atoms: N_1  and  C_2
REMARK    2  A    between atoms: C_2  and  C_3
REMARK    3  A    between atoms: C_6  and  O_7
REMARK    4  A    between atoms: O_7  and  C_8
REMARK    5  A    between atoms: C_8  and  C_9
REMARK                            x       y       z     vdW  Elec       q    Type
REMARK                         _______ _______ _______ _____ _____    ______ ____
ROOT
ATOM      1  C   UNL     1      48.561   4.466  18.390  0.00  0.00    +0.000 A 
ATOM      2  C   UNL     1      48.317   3.133  18.029  0.00  0.00    +0.000 A 
ATOM      3  C   UNL     1      47.825   2.818  16.759  0.00  0.00    +0.000 A 
ATOM      4  C   UNL     1      47.559   3.830  15.839  0.00  0.00    +0.000 A 
ATOM      5  C   UNL     1      47.859   5.154  16.169  0.00  0.00    +0.000 A 
ATOM      6  C   UNL     1      48.345   5.470  17.439  0.00  0.00    +0.000 A 
ENDROOT
BRANCH   1   7
ATOM      7  C   UNL     1      49.019   4.821  19.780  0.00  0.00    +0.000 C 
BRANCH   7   8
ATOM      8  N   UNL     1      48.501   3.892  20.774  0.00  0.00    +0.000 NA
ATOM      9  H   UNL     1      49.246   3.655  21.425  0.00  0.00    +0.000 HD
ATOM     10  H   UNL     1      48.239   3.025  20.306  0.00  0.00    +0.000 HD
ENDBRANCH   7   8
ENDBRANCH   1   7
BRANCH   4  11
ATOM     11  O   UNL     1      47.001   3.430  14.652  0.00  0.00    +0.000 OA
BRANCH  11  12
ATOM     12  C   UNL     1      46.846   4.477  13.690  0.00  0.00    +0.000 C 
BRANCH  12  13
ATOM     13  C   UNL     1      45.548   4.362  12.941  0.00  0.00    +0.000 A 
ATOM     14  C   UNL     1      44.518   5.279  13.173  0.00  0.00    +0.000 A 
ATOM     15  C   UNL     1      43.286   5.113  12.547  0.00  0.00    +0.000 A 
ATOM     16  C   UNL     1      43.123   4.025  11.708  0.00  0.00    +0.000 A 
ATOM     17  N   UNL     1      44.087   3.112  11.465  0.00  0.00    +0.000 NA
ATOM     18  C   UNL     1      45.274   3.298  12.088  0.00  0.00    +0.000 A 
ENDBRANCH  12  13
ENDBRANCH  11  12
ENDBRANCH   4  11
TORSDOF 5
ENDMDL
MODEL 7
REMARK VINA RESULT:    -4.998      4.481      6.582
REMARK INTER + INTRA:          -6.822
REMARK INTER:                  -6.522
REMARK INTRA:                  -0.299
REMARK UNBOUND:                -0.509
REMARK  Name = 
REMARK  5 active torsions:
REMARK  status: ('A' for Active; 'I' for Inactive)
REMARK    1  A    between atoms: N_1  and  C_2
REMARK    2  A    between atoms: C_2  and  C_3
REMARK    3  A    between atoms: C_6  and  O_7
REMARK    4  A    between atoms: O_7  and  C_8
REMARK    5  A    between atoms: C_8  and  C_9
REMARK                            x       y       z     vdW  Elec       q    Type
REMARK                         _______ _______ _______ _____ _____    ______ ____
ROOT
ATOM      1  C   UNL     1      44.613   5.512  12.080  0.00  0.00    +0.000 A 
ATOM      2  C   UNL     1      45.535   6.126  12.939  0.00  0.00    +0.000 A 
ATOM      3  C   UNL     1      46.452   5.358  13.664  0.00  0.00    +0.000 A 
ATOM      4  C   UNL     1      46.450   3.969  13.548  0.00  0.00    +0.000 A 
ATOM      5  C   UNL     1      45.577   3.357  12.646  0.00  0.00    +0.000 A 
ATOM      6  C   UNL     1      44.658   4.122  11.926  0.00  0.00    +0.000 A 
ENDROOT
BRANCH   1   7
ATOM      7  C   UNL     1      43.573   6.323  11.353  0.00  0.00    +0.000 C 
BRANCH   7   8
ATOM      8  N   UNL     1      42.224   5.984  11.782  0.00  0.00    +0.000 NA
ATOM      9  H   UNL     1      41.972   6.568  12.577  0.00  0.00    +0.000 HD
ATOM     10  H   UNL     1      42.221   5.021  12.119  0.00  0.00    +0.000 HD
ENDBRANCH   7   8
ENDBRANCH   1   7
BRANCH   4  11
ATOM     11  O   UNL     1      47.329   3.299  14.360  0.00  0.00    +0.000 OA
BRANCH  11  12
ATOM     12  C   UNL     1      47.243   3.653  15.743  0.00  0.00    +0.000 C 
BRANCH  12  13
ATOM     13  C   UNL     1      48.565   3.503  16.443  0.00  0.00    +0.000 A 
ATOM     14  C   UNL     1      49.176   2.249  16.529  0.00  0.00    +0.000 A 
ATOM     15  C   UNL     1      50.352   2.098  17.259  0.00  0.00    +0.000 A 
ATOM     16  C   UNL     1      50.876   3.213  17.887  0.00  0.00    +0.000 A 
ATOM     17  N   UNL     1      50.312   4.439  17.838  0.00  0.00    +0.000 NA
ATOM     18  C   UNL     1      49.169   4.555  17.122  0.00  0.00    +0.000 A 
ENDBRANCH  12  13
ENDBRANCH  11  12
ENDBRANCH   4  11
TORSDOF 5
ENDMDL
MODEL 8
REMARK VINA RESULT:    -4.829      3.935      6.171
REMARK INTER + INTRA:          -6.608
REMARK INTER:                  -6.232
REMARK INTRA:                  -0.376
REMARK UNBOUND:                -0.509
REMARK  Name = 
REMARK  5 active torsions:
REMARK  status: ('A' for Active; 'I' for Inactive)
REMARK    1  A    between atoms: N_1  and  C_2
REMARK    2  A    between atoms: C_2  and  C_3
REMARK    3  A    between atoms: C_6  and  O_7
REMARK    4  A    between atoms: O_7  and  C_8
REMARK    5  A    between atoms: C_8  and  C_9
REMARK                            x       y       z     vdW  Elec       q    Type
REMARK                         _______ _______ _______ _____ _____    ______ ____
ROOT
ATOM      1  C   UNL     1      45.093   4.988  11.672  0.00  0.00    +0.000 A 
ATOM      2  C   UNL     1      45.095   4.101  12.759  0.00  0.00    +0.000 A 
ATOM      3  C   UNL     1      46.013   4.256  13.802  0.00  0.00    +0.000 A 
ATOM      4  C   UNL     1      46.946   5.290  13.767  0.00  0.00    +0.000 A 
ATOM      5  C   UNL     1      46.908   6.215  12.720  0.00  0.00    +0.000 A 
ATOM      6  C   UNL     1      45.996   6.057  11.675  0.00  0.00    +0.000 A 
ENDROOT
BRANCH   1   7
ATOM      7  C   UNL     1      44.159   4.785  10.509  0.00  0.00    +0.000 C 
BRANCH   7   8
ATOM      8  N   UNL     1      43.441   3.523  10.604  0.00  0.00    +0.000 NA
ATOM      9  H   UNL     1      44.075   2.762  10.371  0.00  0.00    +0.000 HD
ATOM     10  H   UNL     1      42.704   3.512   9.900  0.00  0.00    +0.000 HD
ENDBRANCH   7   8
ENDBRANCH   1   7
BRANCH   4  11
ATOM     11  O   UNL     1      47.857   5.311  14.791  0.00  0.00    +0.000 OA
BRANCH  11  12
ATOM     12  C   UNL     1      47.453   4.585  15.956  0.00  0.00    +0.000 C 
BRANCH  12  13
ATOM     13  C   UNL     1      48.556   3.709  16.482  0.00  0.00    +0.000 A 
ATOM     14  C   UNL     1      49.519   4.235  17.347  0.00  0.00    +0.000 A 
ATOM     15  C   UNL     1      50.590   3.445  17.756  0.00  0.00    +0.000 A 
ATOM     16  C   UNL     1      50.664   2.149  17.278  0.00  0.00    +0.000 A 
ATOM     17  N   UNL     1      49.761   1.607  16.433  0.00  0.00    +0.000 NA
ATOM     18  C   UNL     1      48.731   2.399  16.052  0.00  0.00    +0.000 A 
ENDBRANCH  12  13
ENDBRANCH  11  12
ENDBRANCH   4  11
TORSDOF 5
ENDMDL
MODEL 9
REMARK VINA RESULT:    -4.628      4.867      7.919
REMARK INTER + INTRA:          -6.354
REMARK INTER:                  -5.979
REMARK INTRA:                  -0.375
REMARK UNBOUND:                -0.509
REMARK  Name = 
REMARK  5 active torsions:
REMARK  status: ('A' for Active; 'I' for Inactive)
REMARK    1  A    between atoms: N_1  and  C_2
REMARK    2  A    between atoms: C_2  and  C_3
REMARK    3  A    between atoms: C_6  and  O_7
REMARK    4  A    between atoms: O_7  and  C_8
REMARK    5  A    between atoms: C_8  and  C_9
REMARK                            x       y       z     vdW  Elec       q    Type
REMARK                         _______ _______ _______ _____ _____    ______ ____
ROOT
ATOM      1  C   UNL     1      49.936   4.303  17.821  0.00  0.00    +0.000 A 
ATOM      2  C   UNL     1      49.356   3.072  17.482  0.00  0.00    +0.000 A 
ATOM      3  C   UNL     1      48.255   3.017  16.622  0.00  0.00    +0.000 A 
ATOM      4  C   UNL     1      47.712   4.191  16.102  0.00  0.00    +0.000 A 
ATOM      5  C   UNL     1      48.323   5.415  16.385  0.00  0.00    +0.000 A 
ATOM      6  C   UNL     1      49.420   5.471  17.247  0.00  0.00    +0.000 A 
ENDROOT
BRANCH   1   7
ATOM      7  C   UNL     1      51.074   4.379  18.804  0.00  0.00    +0.000 C 
BRANCH   7   8
ATOM      8  N   UNL     1      51.921   3.198  18.743  0.00  0.00    +0.000 NA
ATOM      9  H   UNL     1      52.707   3.385  18.123  0.00  0.00    +0.000 HD
ATOM     10  H   UNL     1      51.392   2.437  18.318  0.00  0.00    +0.000 HD
ENDBRANCH   7   8
ENDBRANCH   1   7
BRANCH   4  11
ATOM     11  O   UNL     1      46.583   4.041  15.337  0.00  0.00    +0.000 OA
BRANCH  11  12
ATOM     12  C   UNL     1      46.834   3.893  13.937  0.00  0.00    +0.000 C 
BRANCH  12  13
ATOM     13  C   UNL     1      46.091   4.915  13.123  0.00  0.00    +0.000 A 
ATOM     14  C   UNL     1      46.774   5.991  12.550  0.00  0.00    +0.000 A 
ATOM     15  C   UNL     1      46.068   6.984  11.877  0.00  0.00    +0.000 A 
ATOM     16  C   UNL     1      44.691   6.868  11.805  0.00  0.00    +0.000 A 
ATOM     17  N   UNL     1      43.992   5.852  12.353  0.00  0.00    +0.000 NA
ATOM     18  C   UNL     1      44.705   4.902  13.002  0.00  0.00    +0.000 A 
ENDBRANCH  12  13
ENDBRANCH  11  12
ENDBRANCH   4  11
TORSDOF 5
ENDMDL
