MODEL 1
REMARK VINA RESULT:    -9.478      0.000      0.000
REMARK INTER + INTRA:         -13.629
REMARK INTER:                 -12.802
REMARK INTRA:                  -0.827
REMARK UNBOUND:                -0.827
REMARK  Name = 
REMARK  6 active torsions:
REMARK  status: ('A' for Active; 'I' for Inactive)
REMARK    1  A    between atoms: C_2  and  C_4
REMARK    2  A    between atoms: N_8  and  C_9
REMARK    3  A    between atoms: C_9  and  C_10
REMARK    4  A    between atoms: C_10  and  C_13
REMARK    5  A    between atoms: C_17  and  O_18
REMARK    6  A    between atoms: O_18  and  C_19
REMARK                            x       y       z     vdW  Elec       q    Type
REMARK                         _______ _______ _______ _____ _____    ______ ____
ROOT
ATOM      1  C   UNL     1      43.510   5.571  12.226  0.00  0.00    +0.000 C 
ATOM      2  F   UNL     1      43.142   6.731  11.602  0.00  0.00    +0.000 F 
ATOM      3  F   UNL     1      42.631   5.425  13.262  0.00  0.00    +0.000 F 
ENDROOT
BRANCH   1   4
ATOM      4  C   UNL     1      44.947   5.613  12.711  0.00  0.00    +0.000 A 
ATOM      5  C   UNL     1      45.807   6.650  12.329  0.00  0.00    +0.000 A 
ATOM      6  C   UNL     1      47.129   6.672  12.778  0.00  0.00    +0.000 A 
ATOM      7  C   UNL     1      47.614   5.656  13.606  0.00  0.00    +0.000 A 
ATOM      8  C   UNL     1      46.772   4.612  13.984  0.00  0.00    +0.000 A 
ATOM      9  C   UNL     1      45.447   4.597  13.543  0.00  0.00    +0.000 A 
BRANCH   8  10
ATOM     10  O   UNL     1      47.124   3.577  14.812  0.00  0.00    +0.000 OA
BRANCH  10  11
ATOM     11  C   UNL     1      47.873   3.857  16.017  0.00  0.00    +0.000 C 
ATOM     12  C   UNL     1      48.339   2.660  16.870  0.00  0.00    +0.000 C 
ATOM     13  N   UNL     1      47.693   3.231  18.061  0.00  0.00    +0.000 NA
ATOM     14  C   UNL     1      47.010   4.238  17.239  0.00  0.00    +0.000 C 
ATOM     15  H   UNL     1      48.341   3.622  18.744  0.00  0.00    +0.000 HD
ENDBRANCH  10  11
ENDBRANCH   8  10
ENDBRANCH   1   4
BRANCH   1  16
ATOM     16  C   UNL     1      43.310   4.400  11.228  0.00  0.00    +0.000 C 
BRANCH  16  21
ATOM     17  C   UNL     1      46.479   2.530   7.701  0.00  0.00    +0.000 A 
ATOM     18  C   UNL     1      45.681   1.861   8.621  0.00  0.00    +0.000 A 
ATOM     19  C   UNL     1      44.758   2.586   9.373  0.00  0.00    +0.000 A 
ATOM     20  C   UNL     1      44.660   3.966   9.210  0.00  0.00    +0.000 A 
ATOM     21  N   UNL     1      43.709   4.733   9.853  0.00  0.00    +0.000 N 
ATOM     22  N   UNL     1      45.455   4.629   8.347  0.00  0.00    +0.000 NA
ATOM     23  C   UNL     1      46.346   3.907   7.616  0.00  0.00    +0.000 A 
ATOM     24  H   UNL     1      43.910   5.717   9.678  0.00  0.00    +0.000 HD
BRANCH  17  26
ATOM     25  N   UNL     1      48.544   2.548   6.428  0.00  0.00    +0.000 N 
ATOM     26  C   UNL     1      47.446   1.836   6.828  0.00  0.00    +0.000 C 
ATOM     27  O   UNL     1      47.292   0.667   6.505  0.00  0.00    +0.000 OA
ATOM     28  H   UNL     1      49.253   2.027   5.924  0.00  0.00    +0.000 HD
ATOM     29  H   UNL     1      48.831   3.407   6.873  0.00  0.00    +0.000 HD
ENDBRANCH  17  26
ENDBRANCH  16  21
ENDBRANCH   1  16
TORSDOF 6
ENDMDL
MODEL 2
REMARK VINA RESULT:    -8.927      1.176      1.543
REMARK INTER + INTRA:         -12.885
REMARK INTER:                 -11.884
REMARK INTRA:                  -1.001
REMARK UNBOUND:                -0.827
REMARK  Name = 
REMARK  6 active torsions:
REMARK  status: ('A' for Active; 'I' for Inactive)
REMARK    1  A    between atoms: C_2  and  C_4
REMARK    2  A    between atoms: N_8  and  C_9
REMARK    3  A    between atoms: C_9  and  C_10
REMARK    4  A    between atoms: C_10  and  C_13
REMARK    5  A    between atoms: C_17  and  O_18
REMARK    6  A    between atoms: O_18  and  C_19
REMARK                            x       y       z     vdW  Elec       q    Type
REMARK                         _______ _______ _______ _____ _____    ______ ____
ROOT
ATOM      1  C   UNL     1      43.578   4.639  12.424  0.00  0.00    +0.000 C 
ATOM      2  F   UNL     1      42.591   5.580  12.534  0.00  0.00    +0.000 F 
ATOM      3  F   UNL     1      43.318   3.729  13.410  0.00  0.00    +0.000 F 
ENDROOT
BRANCH   1   4
ATOM      4  C   UNL     1      44.963   5.244  12.572  0.00  0.00    +0.000 A 
ATOM      5  C   UNL     1      45.422   6.219  11.679  0.00  0.00    +0.000 A 
ATOM      6  C   UNL     1      46.702   6.761  11.823  0.00  0.00    +0.000 A 
ATOM      7  C   UNL     1      47.542   6.332  12.855  0.00  0.00    +0.000 A 
ATOM      8  C   UNL     1      47.100   5.354  13.743  0.00  0.00    +0.000 A 
ATOM      9  C   UNL     1      45.816   4.820  13.605  0.00  0.00    +0.000 A 
BRANCH   8  10
ATOM     10  O   UNL     1      47.820   4.874  14.807  0.00  0.00    +0.000 OA
BRANCH  10  11
ATOM     11  C   UNL     1      47.143   4.109  15.832  0.00  0.00    +0.000 C 
ATOM     12  C   UNL     1      47.146   4.671  17.268  0.00  0.00    +0.000 C 
ATOM     13  N   UNL     1      47.703   3.412  17.782  0.00  0.00    +0.000 NA
ATOM     14  C   UNL     1      47.967   2.942  16.416  0.00  0.00    +0.000 C 
ATOM     15  H   UNL     1      47.038   2.837  18.298  0.00  0.00    +0.000 HD
ENDBRANCH  10  11
ENDBRANCH   8  10
ENDBRANCH   1   4
BRANCH   1  16
ATOM     16  C   UNL     1      43.435   3.945  11.045  0.00  0.00    +0.000 C 
BRANCH  16  21
ATOM     17  C   UNL     1      46.620   2.592   7.303  0.00  0.00    +0.000 A 
ATOM     18  C   UNL     1      46.240   3.859   7.729  0.00  0.00    +0.000 A 
ATOM     19  C   UNL     1      45.486   3.984   8.896  0.00  0.00    +0.000 A 
ATOM     20  C   UNL     1      45.109   2.846   9.605  0.00  0.00    +0.000 A 
ATOM     21  N   UNL     1      44.442   2.900  10.813  0.00  0.00    +0.000 N 
ATOM     22  N   UNL     1      45.443   1.612   9.180  0.00  0.00    +0.000 NA
ATOM     23  C   UNL     1      46.183   1.506   8.044  0.00  0.00    +0.000 A 
ATOM     24  H   UNL     1      44.166   1.955  11.076  0.00  0.00    +0.000 HD
BRANCH  17  26
ATOM     25  N   UNL     1      47.298   3.238   5.065  0.00  0.00    +0.000 N 
ATOM     26  C   UNL     1      47.460   2.369   6.110  0.00  0.00    +0.000 C 
ATOM     27  O   UNL     1      48.289   1.472   6.069  0.00  0.00    +0.000 OA
ATOM     28  H   UNL     1      47.955   3.143   4.300  0.00  0.00    +0.000 HD
ATOM     29  H   UNL     1      46.823   4.124   5.159  0.00  0.00    +0.000 HD
ENDBRANCH  17  26
ENDBRANCH  16  21
ENDBRANCH   1  16
TORSDOF 6
ENDMDL
MODEL 3
REMARK VINA RESULT:    -8.692      2.406      3.388
REMARK INTER + INTRA:         -12.567
REMARK INTER:                 -11.651
REMARK INTRA:                  -0.917
REMARK UNBOUND:                -0.827
REMARK  Name = 
REMARK  6 active torsions:
REMARK  status: ('A' for Active; 'I' for Inactive)
REMARK    1  A    between atoms: C_2  and  C_4
REMARK    2  A    between atoms: N_8  and  C_9
REMARK    3  A    between atoms: C_9  and  C_10
REMARK    4  A    between atoms: C_10  and  C_13
REMARK    5  A    between atoms: C_17  and  O_18
REMARK    6  A    between atoms: O_18  and  C_19
REMARK                            x       y       z     vdW  Elec       q    Type
REMARK                         _______ _______ _______ _____ _____    ______ ____
ROOT
ATOM      1  C   UNL     1      43.480   5.588  12.133  0.00  0.00    +0.000 C 
ATOM      2  F   UNL     1      43.195   6.779  11.524  0.00  0.00    +0.000 F 
ATOM      3  F   UNL     1      42.559   5.468  13.136  0.00  0.00    +0.000 F 
ENDROOT
BRANCH   1   4
ATOM      4  C   UNL     1      44.900   5.546  12.668  0.00  0.00    +0.000 A 
ATOM      5  C   UNL     1      45.433   4.367  13.202  0.00  0.00    +0.000 A 
ATOM      6  C   UNL     1      46.739   4.344  13.697  0.00  0.00    +0.000 A 
ATOM      7  C   UNL     1      47.526   5.499  13.675  0.00  0.00    +0.000 A 
ATOM      8  C   UNL     1      47.002   6.682  13.158  0.00  0.00    +0.000 A 
ATOM      9  C   UNL     1      45.700   6.700  12.652  0.00  0.00    +0.000 A 
BRANCH   8  10
ATOM     10  O   UNL     1      47.684   7.868  13.058  0.00  0.00    +0.000 OA
BRANCH  10  11
ATOM     11  C   UNL     1      48.411   8.166  11.843  0.00  0.00    +0.000 C 
ATOM     12  C   UNL     1      49.927   7.885  11.825  0.00  0.00    +0.000 C 
ATOM     13  N   UNL     1      50.200   9.269  11.412  0.00  0.00    +0.000 NA
ATOM     14  C   UNL     1      48.805   9.649  11.675  0.00  0.00    +0.000 C 
ATOM     15  H   UNL     1      50.481   9.370  10.438  0.00  0.00    +0.000 HD
ENDBRANCH  10  11
ENDBRANCH   8  10
ENDBRANCH   1   4
BRANCH   1  16
ATOM     16  C   UNL     1      43.255   4.451  11.103  0.00  0.00    +0.000 C 
BRANCH  16  21
ATOM     17  C   UNL     1      46.532   2.505   7.718  0.00  0.00    +0.000 A 
ATOM     18  C   UNL     1      45.664   1.855   8.588  0.00  0.00    +0.000 A 
ATOM     19  C   UNL     1      44.730   2.605   9.301  0.00  0.00    +0.000 A 
ATOM     20  C   UNL     1      44.690   3.990   9.151  0.00  0.00    +0.000 A 
ATOM     21  N   UNL     1      43.736   4.784   9.755  0.00  0.00    +0.000 N 
ATOM     22  N   UNL     1      45.552   4.632   8.338  0.00  0.00    +0.000 NA
ATOM     23  C   UNL     1      46.452   3.886   7.644  0.00  0.00    +0.000 A 
ATOM     24  H   UNL     1      43.981   5.762   9.602  0.00  0.00    +0.000 HD
BRANCH  17  26
ATOM     25  N   UNL     1      48.448   2.543   6.232  0.00  0.00    +0.000 N 
ATOM     26  C   UNL     1      47.516   1.785   6.887  0.00  0.00    +0.000 C 
ATOM     27  O   UNL     1      47.522   0.565   6.814  0.00  0.00    +0.000 OA
ATOM     28  H   UNL     1      49.183   2.032   5.757  0.00  0.00    +0.000 HD
ATOM     29  H   UNL     1      48.632   3.507   6.467  0.00  0.00    +0.000 HD
ENDBRANCH  17  26
ENDBRANCH  16  21
ENDBRANCH   1  16
TORSDOF 6
ENDMDL
MODEL 4
REMARK VINA RESULT:    -7.998      2.298      8.030
REMARK INTER + INTRA:         -11.630
REMARK INTER:                 -11.052
REMARK INTRA:                  -0.578
REMARK UNBOUND:                -0.827
REMARK  Name = 
REMARK  6 active torsions:
REMARK  status: ('A' for Active; 'I' for Inactive)
REMARK    1  A    between atoms: C_2  and  C_4
REMARK    2  A    between atoms: N_8  and  C_9
REMARK    3  A    between atoms: C_9  and  C_10
REMARK    4  A    between atoms: C_10  and  C_13
REMARK    5  A    between atoms: C_17  and  O_18
REMARK    6  A    between atoms: O_18  and  C_19
REMARK                            x       y       z     vdW  Elec       q    Type
REMARK                         _______ _______ _______ _____ _____    ______ ____
ROOT
ATOM      1  C   UNL     1      45.783   6.331  11.388  0.00  0.00    +0.000 C 
ATOM      2  F   UNL     1      44.865   7.342  11.319  0.00  0.00    +0.000 F 
ATOM      3  F   UNL     1      46.961   6.887  10.975  0.00  0.00    +0.000 F 
ENDROOT
BRANCH   1   4
ATOM      4  C   UNL     1      45.392   5.143  10.528  0.00  0.00    +0.000 A 
ATOM      5  C   UNL     1      44.553   4.139  11.025  0.00  0.00    +0.000 A 
ATOM      6  C   UNL     1      44.207   3.048  10.223  0.00  0.00    +0.000 A 
ATOM      7  C   UNL     1      44.701   2.940   8.920  0.00  0.00    +0.000 A 
ATOM      8  C   UNL     1      45.547   3.927   8.419  0.00  0.00    +0.000 A 
ATOM      9  C   UNL     1      45.884   5.023   9.217  0.00  0.00    +0.000 A 
BRANCH   8  10
ATOM     10  O   UNL     1      46.072   3.945   7.152  0.00  0.00    +0.000 OA
BRANCH  10  11
ATOM     11  C   UNL     1      46.457   2.698   6.527  0.00  0.00    +0.000 C 
ATOM     12  C   UNL     1      47.695   1.966   7.084  0.00  0.00    +0.000 C 
ATOM     13  N   UNL     1      48.302   1.932   5.746  0.00  0.00    +0.000 NA
ATOM     14  C   UNL     1      47.281   2.853   5.231  0.00  0.00    +0.000 C 
ATOM     15  H   UNL     1      48.295   1.014   5.304  0.00  0.00    +0.000 HD
ENDBRANCH  10  11
ENDBRANCH   8  10
ENDBRANCH   1   4
BRANCH   1  16
ATOM     16  C   UNL     1      45.921   5.903  12.872  0.00  0.00    +0.000 C 
BRANCH  16  21
ATOM     17  C   UNL     1      48.508   4.420  17.006  0.00  0.00    +0.000 A 
ATOM     18  C   UNL     1      47.525   3.751  16.288  0.00  0.00    +0.000 A 
ATOM     19  C   UNL     1      47.083   4.288  15.079  0.00  0.00    +0.000 A 
ATOM     20  C   UNL     1      47.614   5.491  14.618  0.00  0.00    +0.000 A 
ATOM     21  N   UNL     1      47.290   6.034  13.391  0.00  0.00    +0.000 N 
ATOM     22  N   UNL     1      48.541   6.166  15.326  0.00  0.00    +0.000 NA
ATOM     23  C   UNL     1      48.966   5.626  16.500  0.00  0.00    +0.000 A 
ATOM     24  H   UNL     1      47.699   6.966  13.328  0.00  0.00    +0.000 HD
BRANCH  17  26
ATOM     25  N   UNL     1      48.254   3.110  19.032  0.00  0.00    +0.000 N 
ATOM     26  C   UNL     1      49.070   3.899  18.268  0.00  0.00    +0.000 C 
ATOM     27  O   UNL     1      50.224   4.131  18.598  0.00  0.00    +0.000 OA
ATOM     28  H   UNL     1      48.686   2.669  19.836  0.00  0.00    +0.000 HD
ATOM     29  H   UNL     1      47.406   2.693  18.676  0.00  0.00    +0.000 HD
ENDBRANCH  17  26
ENDBRANCH  16  21
ENDBRANCH   1  16
TORSDOF 6
ENDMDL
MODEL 5
REMARK VINA RESULT:    -7.802      2.788      3.253
REMARK INTER + INTRA:         -11.365
REMARK INTER:                 -10.499
REMARK INTRA:                  -0.866
REMARK UNBOUND:                -0.827
REMARK  Name = 
REMARK  6 active torsions:
REMARK  status: ('A' for Active; 'I' for Inactive)
REMARK    1  A    between atoms: C_2  and  C_4
REMARK    2  A    between atoms: N_8  and  C_9
REMARK    3  A    between atoms: C_9  and  C_10
REMARK    4  A    between atoms: C_10  and  C_13
REMARK    5  A    between atoms: C_17  and  O_18
REMARK    6  A    between atoms: O_18  and  C_19
REMARK                            x       y       z     vdW  Elec       q    Type
REMARK                         _______ _______ _______ _____ _____    ______ ____
ROOT
ATOM      1  C   UNL     1      43.507   4.870  12.410  0.00  0.00    +0.000 C 
ATOM      2  F   UNL     1      42.250   5.141  12.873  0.00  0.00    +0.000 F 
ATOM      3  F   UNL     1      44.041   3.992  13.310  0.00  0.00    +0.000 F 
ENDROOT
BRANCH   1   4
ATOM      4  C   UNL     1      44.352   6.125  12.283  0.00  0.00    +0.000 A 
ATOM      5  C   UNL     1      43.956   7.180  11.453  0.00  0.00    +0.000 A 
ATOM      6  C   UNL     1      44.747   8.326  11.341  0.00  0.00    +0.000 A 
ATOM      7  C   UNL     1      45.948   8.430  12.049  0.00  0.00    +0.000 A 
ATOM      8  C   UNL     1      46.359   7.382  12.870  0.00  0.00    +0.000 A 
ATOM      9  C   UNL     1      45.561   6.242  12.989  0.00  0.00    +0.000 A 
BRANCH   8  10
ATOM     10  O   UNL     1      47.499   7.380  13.632  0.00  0.00    +0.000 OA
BRANCH  10  11
ATOM     11  C   UNL     1      48.666   8.095  13.163  0.00  0.00    +0.000 C 
ATOM     12  C   UNL     1      49.445   7.501  11.972  0.00  0.00    +0.000 C 
ATOM     13  N   UNL     1      50.693   7.529  12.748  0.00  0.00    +0.000 NA
ATOM     14  C   UNL     1      49.951   7.838  13.978  0.00  0.00    +0.000 C 
ATOM     15  H   UNL     1      51.349   8.255  12.465  0.00  0.00    +0.000 HD
ENDBRANCH  10  11
ENDBRANCH   8  10
ENDBRANCH   1   4
BRANCH   1  16
ATOM     16  C   UNL     1      43.376   4.166  11.035  0.00  0.00    +0.000 C 
BRANCH  16  21
ATOM     17  C   UNL     1      46.583   2.627   7.384  0.00  0.00    +0.000 A 
ATOM     18  C   UNL     1      46.241   3.915   7.779  0.00  0.00    +0.000 A 
ATOM     19  C   UNL     1      45.469   4.089   8.928  0.00  0.00    +0.000 A 
ATOM     20  C   UNL     1      45.036   2.979   9.649  0.00  0.00    +0.000 A 
ATOM     21  N   UNL     1      44.348   3.080  10.842  0.00  0.00    +0.000 N 
ATOM     22  N   UNL     1      45.332   1.726   9.253  0.00  0.00    +0.000 NA
ATOM     23  C   UNL     1      46.091   1.571   8.135  0.00  0.00    +0.000 A 
ATOM     24  H   UNL     1      44.032   2.151  11.116  0.00  0.00    +0.000 HD
BRANCH  17  26
ATOM     25  N   UNL     1      47.271   3.158   5.119  0.00  0.00    +0.000 N 
ATOM     26  C   UNL     1      47.437   2.352   6.212  0.00  0.00    +0.000 C 
ATOM     27  O   UNL     1      48.280   1.466   6.229  0.00  0.00    +0.000 OA
ATOM     28  H   UNL     1      47.938   3.031   4.367  0.00  0.00    +0.000 HD
ATOM     29  H   UNL     1      46.782   4.040   5.159  0.00  0.00    +0.000 HD
ENDBRANCH  17  26
ENDBRANCH  16  21
ENDBRANCH   1  16
TORSDOF 6
ENDMDL
MODEL 6
REMARK VINA RESULT:    -6.847      3.222      7.422
REMARK INTER + INTRA:         -10.076
REMARK INTER:                  -9.356
REMARK INTRA:                  -0.719
REMARK UNBOUND:                -0.827
REMARK  Name = 
REMARK  6 active torsions:
REMARK  status: ('A' for Active; 'I' for Inactive)
REMARK    1  A    between atoms: C_2  and  C_4
REMARK    2  A    between atoms: N_8  and  C_9
REMARK    3  A    between atoms: C_9  and  C_10
REMARK    4  A    between atoms: C_10  and  C_13
REMARK    5  A    between atoms: C_17  and  O_18
REMARK    6  A    between atoms: O_18  and  C_19
REMARK                            x       y       z     vdW  Elec       q    Type
REMARK                         _______ _______ _______ _____ _____    ______ ____
ROOT
ATOM      1  C   UNL     1      44.374   5.674  11.588  0.00  0.00    +0.000 C 
ATOM      2  F   UNL     1      44.880   5.442  12.836  0.00  0.00    +0.000 F 
ATOM      3  F   UNL     1      43.061   5.998  11.787  0.00  0.00    +0.000 F 
ENDROOT
BRANCH   1   4
ATOM      4  C   UNL     1      44.521   4.468  10.678  0.00  0.00    +0.000 A 
ATOM      5  C   UNL     1      43.905   3.251  10.990  0.00  0.00    +0.000 A 
ATOM      6  C   UNL     1      44.056   2.147  10.146  0.00  0.00    +0.000 A 
ATOM      7  C   UNL     1      44.830   2.242   8.986  0.00  0.00    +0.000 A 
ATOM      8  C   UNL     1      45.458   3.444   8.672  0.00  0.00    +0.000 A 
ATOM      9  C   UNL     1      45.298   4.551   9.510  0.00  0.00    +0.000 A 
BRANCH   8  10
ATOM     10  O   UNL     1      46.218   3.666   7.552  0.00  0.00    +0.000 OA
BRANCH  10  11
ATOM     11  C   UNL     1      46.552   2.553   6.691  0.00  0.00    +0.000 C 
ATOM     12  C   UNL     1      47.859   1.787   6.979  0.00  0.00    +0.000 C 
ATOM     13  N   UNL     1      48.309   1.993   5.595  0.00  0.00    +0.000 NA
ATOM     14  C   UNL     1      47.218   2.947   5.355  0.00  0.00    +0.000 C 
ATOM     15  H   UNL     1      48.268   1.160   5.010  0.00  0.00    +0.000 HD
ENDBRANCH  10  11
ENDBRANCH   8  10
ENDBRANCH   1   4
BRANCH   1  16
ATOM     16  C   UNL     1      45.110   6.900  10.986  0.00  0.00    +0.000 C 
BRANCH  16  21
ATOM     17  C   UNL     1      49.416   7.831  13.550  0.00  0.00    +0.000 A 
ATOM     18  C   UNL     1      49.238   7.428  12.231  0.00  0.00    +0.000 A 
ATOM     19  C   UNL     1      47.950   7.407  11.697  0.00  0.00    +0.000 A 
ATOM     20  C   UNL     1      46.862   7.767  12.489  0.00  0.00    +0.000 A 
ATOM     21  N   UNL     1      45.574   7.855  12.002  0.00  0.00    +0.000 N 
ATOM     22  N   UNL     1      47.022   8.124  13.779  0.00  0.00    +0.000 NA
ATOM     23  C   UNL     1      48.285   8.146  14.284  0.00  0.00    +0.000 A 
ATOM     24  H   UNL     1      44.939   8.012  12.784  0.00  0.00    +0.000 HD
BRANCH  17  26
ATOM     25  N   UNL     1      50.992   7.111  15.247  0.00  0.00    +0.000 N 
ATOM     26  C   UNL     1      50.747   7.932  14.181  0.00  0.00    +0.000 C 
ATOM     27  O   UNL     1      51.604   8.689  13.748  0.00  0.00    +0.000 OA
ATOM     28  H   UNL     1      51.942   7.110  15.599  0.00  0.00    +0.000 HD
ATOM     29  H   UNL     1      50.418   6.310  15.465  0.00  0.00    +0.000 HD
ENDBRANCH  17  26
ENDBRANCH  16  21
ENDBRANCH   1  16
TORSDOF 6
ENDMDL
MODEL 7
REMARK VINA RESULT:    -6.738      3.724      7.412
REMARK INTER + INTRA:          -9.928
REMARK INTER:                  -8.838
REMARK INTRA:                  -1.090
REMARK UNBOUND:                -0.827
REMARK  Name = 
REMARK  6 active torsions:
REMARK  status: ('A' for Active; 'I' for Inactive)
REMARK    1  A    between atoms: C_2  and  C_4
REMARK    2  A    between atoms: N_8  and  C_9
REMARK    3  A    between atoms: C_9  and  C_10
REMARK    4  A    between atoms: C_10  and  C_13
REMARK    5  A    between atoms: C_17  and  O_18
REMARK    6  A    between atoms: O_18  and  C_19
REMARK                            x       y       z     vdW  Elec       q    Type
REMARK                         _______ _______ _______ _____ _____    ______ ____
ROOT
ATOM      1  C   UNL     1      48.799   8.013  12.285  0.00  0.00    +0.000 C 
ATOM      2  F   UNL     1      49.331   9.024  11.532  0.00  0.00    +0.000 F 
ATOM      3  F   UNL     1      49.540   6.907  11.977  0.00  0.00    +0.000 F 
ENDROOT
BRANCH   1   4
ATOM      4  C   UNL     1      47.325   7.799  11.993  0.00  0.00    +0.000 A 
ATOM      5  C   UNL     1      46.397   8.831  12.176  0.00  0.00    +0.000 A 
ATOM      6  C   UNL     1      45.042   8.617  11.910  0.00  0.00    +0.000 A 
ATOM      7  C   UNL     1      44.595   7.369  11.468  0.00  0.00    +0.000 A 
ATOM      8  C   UNL     1      45.507   6.330  11.294  0.00  0.00    +0.000 A 
ATOM      9  C   UNL     1      46.863   6.548  11.549  0.00  0.00    +0.000 A 
BRANCH   8  10
ATOM     10  O   UNL     1      45.193   5.074  10.841  0.00  0.00    +0.000 OA
BRANCH  10  11
ATOM     11  C   UNL     1      44.017   4.409  11.357  0.00  0.00    +0.000 C 
ATOM     12  C   UNL     1      44.045   3.932  12.824  0.00  0.00    +0.000 C 
ATOM     13  N   UNL     1      43.689   2.568  12.409  0.00  0.00    +0.000 NA
ATOM     14  C   UNL     1      43.913   2.911  10.998  0.00  0.00    +0.000 C 
ATOM     15  H   UNL     1      42.730   2.299  12.623  0.00  0.00    +0.000 HD
ENDBRANCH  10  11
ENDBRANCH   8  10
ENDBRANCH   1   4
BRANCH   1  16
ATOM     16  C   UNL     1      49.010   8.361  13.781  0.00  0.00    +0.000 C 
BRANCH  16  21
ATOM     17  C   UNL     1      48.124   4.447  16.924  0.00  0.00    +0.000 A 
ATOM     18  C   UNL     1      47.401   4.878  15.818  0.00  0.00    +0.000 A 
ATOM     19  C   UNL     1      47.938   5.873  15.003  0.00  0.00    +0.000 A 
ATOM     20  C   UNL     1      49.174   6.436  15.314  0.00  0.00    +0.000 A 
ATOM     21  N   UNL     1      49.805   7.358  14.505  0.00  0.00    +0.000 N 
ATOM     22  N   UNL     1      49.865   6.050  16.405  0.00  0.00    +0.000 NA
ATOM     23  C   UNL     1      49.331   5.074  17.188  0.00  0.00    +0.000 A 
ATOM     24  H   UNL     1      50.626   7.715  14.994  0.00  0.00    +0.000 HD
BRANCH  17  26
ATOM     25  N   UNL     1      48.401   3.113  18.932  0.00  0.00    +0.000 N 
ATOM     26  C   UNL     1      47.656   3.365  17.812  0.00  0.00    +0.000 C 
ATOM     27  O   UNL     1      46.629   2.744  17.577  0.00  0.00    +0.000 OA
ATOM     28  H   UNL     1      48.009   2.447  19.587  0.00  0.00    +0.000 HD
ATOM     29  H   UNL     1      49.091   3.760  19.286  0.00  0.00    +0.000 HD
ENDBRANCH  17  26
ENDBRANCH  16  21
ENDBRANCH   1  16
TORSDOF 6
ENDMDL
MODEL 8
REMARK VINA RESULT:    -6.651      3.263      4.604
REMARK INTER + INTRA:          -9.810
REMARK INTER:                  -8.869
REMARK INTRA:                  -0.941
REMARK UNBOUND:                -0.827
REMARK  Name = 
REMARK  6 active torsions:
REMARK  status: ('A' for Active; 'I' for Inactive)
REMARK    1  A    between atoms: C_2  and  C_4
REMARK    2  A    between atoms: N_8  and  C_9
REMARK    3  A    between atoms: C_9  and  C_10
REMARK    4  A    between atoms: C_10  and  C_13
REMARK    5  A    between atoms: C_17  and  O_18
REMARK    6  A    between atoms: O_18  and  C_19
REMARK                            x       y       z     vdW  Elec       q    Type
REMARK                         _______ _______ _______ _____ _____    ______ ____
ROOT
ATOM      1  C   UNL     1      48.300   8.243  12.908  0.00  0.00    +0.000 C 
ATOM      2  F   UNL     1      48.456   7.397  11.845  0.00  0.00    +0.000 F 
ATOM      3  F   UNL     1      48.606   9.485  12.426  0.00  0.00    +0.000 F 
ENDROOT
BRANCH   1   4
ATOM      4  C   UNL     1      49.189   7.862  14.077  0.00  0.00    +0.000 A 
ATOM      5  C   UNL     1      50.322   8.619  14.399  0.00  0.00    +0.000 A 
ATOM      6  C   UNL     1      51.135   8.251  15.474  0.00  0.00    +0.000 A 
ATOM      7  C   UNL     1      50.833   7.119  16.236  0.00  0.00    +0.000 A 
ATOM      8  C   UNL     1      49.716   6.350  15.919  0.00  0.00    +0.000 A 
ATOM      9  C   UNL     1      48.897   6.725  14.850  0.00  0.00    +0.000 A 
BRANCH   8  10
ATOM     10  O   UNL     1      49.304   5.238  16.607  0.00  0.00    +0.000 OA
BRANCH  10  11
ATOM     11  C   UNL     1      47.913   4.843  16.547  0.00  0.00    +0.000 C 
ATOM     12  C   UNL     1      47.147   4.704  17.878  0.00  0.00    +0.000 C 
ATOM     13  N   UNL     1      46.751   3.332  17.531  0.00  0.00    +0.000 NA
ATOM     14  C   UNL     1      47.679   3.325  16.392  0.00  0.00    +0.000 C 
ATOM     15  H   UNL     1      45.772   3.230  17.269  0.00  0.00    +0.000 HD
ENDBRANCH  10  11
ENDBRANCH   8  10
ENDBRANCH   1   4
BRANCH   1  16
ATOM     16  C   UNL     1      46.808   8.221  13.331  0.00  0.00    +0.000 C 
BRANCH  16  21
ATOM     17  C   UNL     1      44.492   4.095  11.434  0.00  0.00    +0.000 A 
ATOM     18  C   UNL     1      44.750   4.439  12.756  0.00  0.00    +0.000 A 
ATOM     19  C   UNL     1      45.244   5.711  13.042  0.00  0.00    +0.000 A 
ATOM     20  C   UNL     1      45.491   6.610  12.007  0.00  0.00    +0.000 A 
ATOM     21  N   UNL     1      45.894   7.912  12.223  0.00  0.00    +0.000 N 
ATOM     22  N   UNL     1      45.279   6.272  10.719  0.00  0.00    +0.000 NA
ATOM     23  C   UNL     1      44.791   5.030  10.456  0.00  0.00    +0.000 A 
ATOM     24  H   UNL     1      46.130   8.334  11.325  0.00  0.00    +0.000 HD
BRANCH  17  26
ATOM     25  N   UNL     1      44.503   2.150   9.984  0.00  0.00    +0.000 N 
ATOM     26  C   UNL     1      43.922   2.791  11.045  0.00  0.00    +0.000 C 
ATOM     27  O   UNL     1      42.995   2.288  11.663  0.00  0.00    +0.000 OA
ATOM     28  H   UNL     1      44.176   1.209   9.799  0.00  0.00    +0.000 HD
ATOM     29  H   UNL     1      45.411   2.404   9.622  0.00  0.00    +0.000 HD
ENDBRANCH  17  26
ENDBRANCH  16  21
ENDBRANCH   1  16
TORSDOF 6
ENDMDL
MODEL 9
REMARK VINA RESULT:    -6.603      2.548      8.080
REMARK INTER + INTRA:          -9.745
REMARK INTER:                  -9.309
REMARK INTRA:                  -0.437
REMARK UNBOUND:                -0.827
REMARK  Name = 
REMARK  6 active torsions:
REMARK  status: ('A' for Active; 'I' for Inactive)
REMARK    1  A    between atoms: C_2  and  C_4
REMARK    2  A    between atoms: N_8  and  C_9
REMARK    3  A    between atoms: C_9  and  C_10
REMARK    4  A    between atoms: C_10  and  C_13
REMARK    5  A    between atoms: C_17  and  O_18
REMARK    6  A    between atoms: O_18  and  C_19
REMARK                            x       y       z     vdW  Elec       q    Type
REMARK                         _______ _______ _______ _____ _____    ______ ____
ROOT
ATOM      1  C   UNL     1      46.490   6.500  12.581  0.00  0.00    +0.000 C 
ATOM      2  F   UNL     1      46.152   7.617  13.294  0.00  0.00    +0.000 F 
ATOM      3  F   UNL     1      47.189   6.960  11.501  0.00  0.00    +0.000 F 
ENDROOT
BRANCH   1   4
ATOM      4  C   UNL     1      45.270   5.701  12.160  0.00  0.00    +0.000 A 
ATOM      5  C   UNL     1      43.976   6.182  12.398  0.00  0.00    +0.000 A 
ATOM      6  C   UNL     1      42.863   5.432  12.010  0.00  0.00    +0.000 A 
ATOM      7  C   UNL     1      43.025   4.190  11.390  0.00  0.00    +0.000 A 
ATOM      8  C   UNL     1      44.306   3.696  11.159  0.00  0.00    +0.000 A 
ATOM      9  C   UNL     1      45.420   4.451  11.537  0.00  0.00    +0.000 A 
BRANCH   8  10
ATOM     10  O   UNL     1      44.592   2.507  10.537  0.00  0.00    +0.000 OA
BRANCH  10  11
ATOM     11  C   UNL     1      44.582   2.444   9.092  0.00  0.00    +0.000 C 
ATOM     12  C   UNL     1      45.813   1.837   8.389  0.00  0.00    +0.000 C 
ATOM     13  N   UNL     1      45.965   3.045   7.566  0.00  0.00    +0.000 NA
ATOM     14  C   UNL     1      44.978   3.759   8.386  0.00  0.00    +0.000 C 
ATOM     15  H   UNL     1      45.690   2.928   6.592  0.00  0.00    +0.000 HD
ENDBRANCH  10  11
ENDBRANCH   8  10
ENDBRANCH   1   4
BRANCH   1  16
ATOM     16  C   UNL     1      47.429   5.632  13.458  0.00  0.00    +0.000 C 
BRANCH  16  21
ATOM     17  C   UNL     1      48.765   4.566  18.260  0.00  0.00    +0.000 A 
ATOM     18  C   UNL     1      49.171   5.610  17.437  0.00  0.00    +0.000 A 
ATOM     19  C   UNL     1      48.531   5.797  16.212  0.00  0.00    +0.000 A 
ATOM     20  C   UNL     1      47.514   4.930  15.821  0.00  0.00    +0.000 A 
ATOM     21  N   UNL     1      46.778   5.108  14.666  0.00  0.00    +0.000 N 
ATOM     22  N   UNL     1      47.138   3.893  16.596  0.00  0.00    +0.000 NA
ATOM     23  C   UNL     1      47.767   3.728  17.790  0.00  0.00    +0.000 A 
ATOM     24  H   UNL     1      46.184   4.291  14.528  0.00  0.00    +0.000 HD
BRANCH  17  26
ATOM     25  N   UNL     1      50.714   4.391  19.694  0.00  0.00    +0.000 N 
ATOM     26  C   UNL     1      49.351   4.326  19.593  0.00  0.00    +0.000 C 
ATOM     27  O   UNL     1      48.650   4.114  20.572  0.00  0.00    +0.000 OA
ATOM     28  H   UNL     1      51.095   4.336  20.631  0.00  0.00    +0.000 HD
ATOM     29  H   UNL     1      51.296   4.810  18.982  0.00  0.00    +0.000 HD
ENDBRANCH  17  26
ENDBRANCH  16  21
ENDBRANCH   1  16
TORSDOF 6
ENDMDL
