MODEL 1
REMARK VINA RESULT:    -7.854      0.000      0.000
REMARK INTER + INTRA:         -10.416
REMARK INTER:                  -9.691
REMARK INTRA:                  -0.725
REMARK UNBOUND:                -0.725
REMARK  Name = 
REMARK  5 active torsions:
REMARK  status: ('A' for Active; 'I' for Inactive)
REMARK    1  A    between atoms: C_1  and  C_2
REMARK    2  A    between atoms: C_2  and  O_3
REMARK    3  A    between atoms: C_2  and  C_13
REMARK    4  A    between atoms: O_3  and  C_4
REMARK    5  A    between atoms: C_7  and  C_8
REMARK                            x       y       z     vdW  Elec       q    Type
REMARK                         _______ _______ _______ _____ _____    ______ ____
ROOT
ATOM      1  C   UNL     1      44.605   3.841   9.341  0.00  0.00    +0.000 A 
ATOM      2  C   UNL     1      44.600   2.459   9.479  0.00  0.00    +0.000 A 
ATOM      3  C   UNL     1      45.486   1.688   8.725  0.00  0.00    +0.000 A 
ATOM      4  C   UNL     1      46.365   2.331   7.863  0.00  0.00    +0.000 A 
ATOM      5  N   UNL     1      46.414   3.682   7.710  0.00  0.00    +0.000 NA
ATOM      6  C   UNL     1      45.524   4.393   8.454  0.00  0.00    +0.000 A 
ENDROOT
BRANCH   4   7
ATOM      7  C   UNL     1      47.305   1.509   7.040  0.00  0.00    +0.000 C 
ATOM      8  N   UNL     1      48.418   2.155   6.579  0.00  0.00    +0.000 N 
ATOM      9  O   UNL     1      47.095   0.330   6.779  0.00  0.00    +0.000 OA
ATOM     10  H   UNL     1      48.557   3.136   6.793  0.00  0.00    +0.000 HD
ATOM     11  H   UNL     1      49.072   1.658   5.992  0.00  0.00    +0.000 HD
ENDBRANCH   4   7
BRANCH   1  12
ATOM     12  O   UNL     1      43.748   4.710   9.951  0.00  0.00    +0.000 OA
BRANCH  12  14
ATOM     13  C   UNL     1      42.339   5.448  11.816  0.00  0.00    +0.000 C 
ATOM     14  C   UNL     1      43.553   4.629  11.374  0.00  0.00    +0.000 C 
BRANCH  14  15
ATOM     15  C   UNL     1      44.801   5.188  12.055  0.00  0.00    +0.000 A 
ATOM     16  C   UNL     1      45.513   4.398  12.972  0.00  0.00    +0.000 A 
ATOM     17  C   UNL     1      46.666   4.888  13.593  0.00  0.00    +0.000 A 
ATOM     18  C   UNL     1      47.114   6.175  13.306  0.00  0.00    +0.000 A 
ATOM     19 CL   UNL     1      48.556   6.762  14.037  0.00  0.00    +0.000 Cl
ATOM     20  C   UNL     1      46.404   6.986  12.425  0.00  0.00    +0.000 A 
ATOM     21  C   UNL     1      45.248   6.499  11.811  0.00  0.00    +0.000 A 
ENDBRANCH  14  15
ENDBRANCH  12  14
ENDBRANCH   1  12
TORSDOF 4
ENDMDL
MODEL 2
REMARK VINA RESULT:    -7.531      1.254      1.714
REMARK INTER + INTRA:         -10.017
REMARK INTER:                  -9.314
REMARK INTRA:                  -0.704
REMARK UNBOUND:                -0.725
REMARK  Name = 
REMARK  5 active torsions:
REMARK  status: ('A' for Active; 'I' for Inactive)
REMARK    1  A    between atoms: C_1  and  C_2
REMARK    2  A    between atoms: C_2  and  O_3
REMARK    3  A    between atoms: C_2  and  C_13
REMARK    4  A    between atoms: O_3  and  C_4
REMARK    5  A    between atoms: C_7  and  C_8
REMARK                            x       y       z     vdW  Elec       q    Type
REMARK                         _______ _______ _______ _____ _____    ______ ____
ROOT
ATOM      1  C   UNL     1      44.693   3.914   9.329  0.00  0.00    +0.000 A 
ATOM      2  C   UNL     1      45.552   4.495   8.404  0.00  0.00    +0.000 A 
ATOM      3  C   UNL     1      46.419   3.689   7.667  0.00  0.00    +0.000 A 
ATOM      4  C   UNL     1      46.388   2.314   7.869  0.00  0.00    +0.000 A 
ATOM      5  N   UNL     1      45.553   1.703   8.751  0.00  0.00    +0.000 NA
ATOM      6  C   UNL     1      44.734   2.529   9.458  0.00  0.00    +0.000 A 
ENDROOT
BRANCH   4   7
ATOM      7  C   UNL     1      47.328   1.447   7.094  0.00  0.00    +0.000 C 
ATOM      8  N   UNL     1      48.410   2.078   6.546  0.00  0.00    +0.000 N 
ATOM      9  O   UNL     1      47.145   0.245   6.943  0.00  0.00    +0.000 OA
ATOM     10  H   UNL     1      48.527   3.077   6.671  0.00  0.00    +0.000 HD
ATOM     11  H   UNL     1      49.062   1.548   5.987  0.00  0.00    +0.000 HD
ENDBRANCH   4   7
BRANCH   1  12
ATOM     12  O   UNL     1      43.852   4.581  10.170  0.00  0.00    +0.000 OA
BRANCH  12  14
ATOM     13  C   UNL     1      42.911   4.801  12.423  0.00  0.00    +0.000 C 
ATOM     14  C   UNL     1      44.173   4.670  11.569  0.00  0.00    +0.000 C 
BRANCH  14  15
ATOM     15  C   UNL     1      45.041   5.909  11.776  0.00  0.00    +0.000 A 
ATOM     16  C   UNL     1      46.378   5.769  12.184  0.00  0.00    +0.000 A 
ATOM     17  C   UNL     1      47.192   6.893  12.364  0.00  0.00    +0.000 A 
ATOM     18  C   UNL     1      46.673   8.166  12.144  0.00  0.00    +0.000 A 
ATOM     19 CL   UNL     1      47.685   9.546  12.324  0.00  0.00    +0.000 Cl
ATOM     20  C   UNL     1      45.341   8.328  11.772  0.00  0.00    +0.000 A 
ATOM     21  C   UNL     1      44.527   7.206  11.600  0.00  0.00    +0.000 A 
ENDBRANCH  14  15
ENDBRANCH  12  14
ENDBRANCH   1  12
TORSDOF 4
ENDMDL
MODEL 3
REMARK VINA RESULT:    -6.768      3.777      6.674
REMARK INTER + INTRA:          -9.076
REMARK INTER:                  -8.501
REMARK INTRA:                  -0.575
REMARK UNBOUND:                -0.725
REMARK  Name = 
REMARK  5 active torsions:
REMARK  status: ('A' for Active; 'I' for Inactive)
REMARK    1  A    between atoms: C_1  and  C_2
REMARK    2  A    between atoms: C_2  and  O_3
REMARK    3  A    between atoms: C_2  and  C_13
REMARK    4  A    between atoms: O_3  and  C_4
REMARK    5  A    between atoms: C_7  and  C_8
REMARK                            x       y       z     vdW  Elec       q    Type
REMARK                         _______ _______ _______ _____ _____    ______ ____
ROOT
ATOM      1  C   UNL     1      45.366   5.587  11.778  0.00  0.00    +0.000 A 
ATOM      2  C   UNL     1      46.467   6.262  12.291  0.00  0.00    +0.000 A 
ATOM      3  C   UNL     1      46.438   7.653  12.388  0.00  0.00    +0.000 A 
ATOM      4  C   UNL     1      45.294   8.328  11.981  0.00  0.00    +0.000 A 
ATOM      5  N   UNL     1      44.189   7.706  11.489  0.00  0.00    +0.000 NA
ATOM      6  C   UNL     1      44.266   6.351  11.399  0.00  0.00    +0.000 A 
ENDROOT
BRANCH   4   7
ATOM      7  C   UNL     1      45.264   9.821  12.067  0.00  0.00    +0.000 C 
ATOM      8  N   UNL     1      44.025  10.389  12.178  0.00  0.00    +0.000 N 
ATOM      9  O   UNL     1      46.281  10.504  12.031  0.00  0.00    +0.000 OA
ATOM     10  H   UNL     1      43.200   9.801  12.187  0.00  0.00    +0.000 HD
ATOM     11  H   UNL     1      43.943  11.395  12.209  0.00  0.00    +0.000 HD
ENDBRANCH   4   7
BRANCH   1  12
ATOM     12  O   UNL     1      45.283   4.244  11.553  0.00  0.00    +0.000 OA
BRANCH  12  14
ATOM     13  C   UNL     1      43.589   2.542  11.061  0.00  0.00    +0.000 C 
ATOM     14  C   UNL     1      44.379   3.748  10.550  0.00  0.00    +0.000 C 
BRANCH  14  15
ATOM     15  C   UNL     1      45.204   3.322   9.338  0.00  0.00    +0.000 A 
ATOM     16  C   UNL     1      45.682   4.290   8.439  0.00  0.00    +0.000 A 
ATOM     17  C   UNL     1      46.452   3.919   7.333  0.00  0.00    +0.000 A 
ATOM     18  C   UNL     1      46.746   2.576   7.111  0.00  0.00    +0.000 A 
ATOM     19 CL   UNL     1      47.729   2.123   5.774  0.00  0.00    +0.000 Cl
ATOM     20  C   UNL     1      46.253   1.598   7.971  0.00  0.00    +0.000 A 
ATOM     21  C   UNL     1      45.478   1.969   9.073  0.00  0.00    +0.000 A 
ENDBRANCH  14  15
ENDBRANCH  12  14
ENDBRANCH   1  12
TORSDOF 4
ENDMDL
MODEL 4
REMARK VINA RESULT:    -6.667      3.737      6.121
REMARK INTER + INTRA:          -8.951
REMARK INTER:                  -9.503
REMARK INTRA:                   0.552
REMARK UNBOUND:                -0.725
REMARK  Name = 
REMARK  5 active torsions:
REMARK  status: ('A' for Active; 'I' for Inactive)
REMARK    1  A    between atoms: C_1  and  C_2
REMARK    2  A    between atoms: C_2  and  O_3
REMARK    3  A    between atoms: C_2  and  C_13
REMARK    4  A    between atoms: O_3  and  C_4
REMARK    5  A    between atoms: C_7  and  C_8
REMARK                            x       y       z     vdW  Elec       q    Type
REMARK                         _______ _______ _______ _____ _____    ______ ____
ROOT
ATOM      1  C   UNL     1      45.185   5.234  11.796  0.00  0.00    +0.000 A 
ATOM      2  C   UNL     1      46.425   5.857  11.871  0.00  0.00    +0.000 A 
ATOM      3  C   UNL     1      47.202   5.709  13.019  0.00  0.00    +0.000 A 
ATOM      4  C   UNL     1      46.718   4.924  14.058  0.00  0.00    +0.000 A 
ATOM      5  N   UNL     1      45.518   4.284  14.020  0.00  0.00    +0.000 NA
ATOM      6  C   UNL     1      44.787   4.467  12.887  0.00  0.00    +0.000 A 
ENDROOT
BRANCH   4   7
ATOM      7  C   UNL     1      47.539   4.777  15.299  0.00  0.00    +0.000 C 
ATOM      8  N   UNL     1      47.192   3.745  16.127  0.00  0.00    +0.000 N 
ATOM      9  O   UNL     1      48.463   5.533  15.573  0.00  0.00    +0.000 OA
ATOM     10  H   UNL     1      46.411   3.146  15.886  0.00  0.00    +0.000 HD
ATOM     11  H   UNL     1      47.692   3.616  16.995  0.00  0.00    +0.000 HD
ENDBRANCH   4   7
BRANCH   1  12
ATOM     12  O   UNL     1      44.289   5.353  10.774  0.00  0.00    +0.000 OA
BRANCH  12  14
ATOM     13  C   UNL     1      43.407   3.107  11.209  0.00  0.00    +0.000 C 
ATOM     14  C   UNL     1      43.752   4.167  10.162  0.00  0.00    +0.000 C 
BRANCH  14  15
ATOM     15  C   UNL     1      44.812   3.603   9.217  0.00  0.00    +0.000 A 
ATOM     16  C   UNL     1      45.067   2.222   9.194  0.00  0.00    +0.000 A 
ATOM     17  C   UNL     1      46.023   1.687   8.324  0.00  0.00    +0.000 A 
ATOM     18  C   UNL     1      46.736   2.529   7.475  0.00  0.00    +0.000 A 
ATOM     19 CL   UNL     1      47.881   1.867   6.375  0.00  0.00    +0.000 Cl
ATOM     20  C   UNL     1      46.522   3.905   7.506  0.00  0.00    +0.000 A 
ATOM     21  C   UNL     1      45.572   4.439   8.380  0.00  0.00    +0.000 A 
ENDBRANCH  14  15
ENDBRANCH  12  14
ENDBRANCH   1  12
TORSDOF 4
ENDMDL
MODEL 5
REMARK VINA RESULT:    -6.626      4.177      6.594
REMARK INTER + INTRA:          -8.900
REMARK INTER:                  -8.286
REMARK INTRA:                  -0.614
REMARK UNBOUND:                -0.725
REMARK  Name = 
REMARK  5 active torsions:
REMARK  status: ('A' for Active; 'I' for Inactive)
REMARK    1  A    between atoms: C_1  and  C_2
REMARK    2  A    between atoms: C_2  and  O_3
REMARK    3  A    between atoms: C_2  and  C_13
REMARK    4  A    between atoms: O_3  and  C_4
REMARK    5  A    between atoms: C_7  and  C_8
REMARK                            x       y       z     vdW  Elec       q    Type
REMARK                         _______ _______ _______ _____ _____    ______ ____
ROOT
ATOM      1  C   UNL     1      46.214   4.656  12.952  0.00  0.00    +0.000 A 
ATOM      2  C   UNL     1      46.533   5.946  12.545  0.00  0.00    +0.000 A 
ATOM      3  C   UNL     1      47.419   6.709  13.304  0.00  0.00    +0.000 A 
ATOM      4  C   UNL     1      47.975   6.149  14.447  0.00  0.00    +0.000 A 
ATOM      5  N   UNL     1      47.703   4.886  14.873  0.00  0.00    +0.000 NA
ATOM      6  C   UNL     1      46.824   4.182  14.110  0.00  0.00    +0.000 A 
ENDROOT
BRANCH   4   7
ATOM      7  C   UNL     1      48.913   6.970  15.274  0.00  0.00    +0.000 C 
ATOM      8  N   UNL     1      48.348   8.004  15.969  0.00  0.00    +0.000 N 
ATOM      9  O   UNL     1      50.116   6.746  15.326  0.00  0.00    +0.000 OA
ATOM     10  H   UNL     1      47.352   8.178  15.892  0.00  0.00    +0.000 HD
ATOM     11  H   UNL     1      48.937   8.610  16.520  0.00  0.00    +0.000 HD
ENDBRANCH   4   7
BRANCH   1  12
ATOM     12  O   UNL     1      45.309   3.828  12.356  0.00  0.00    +0.000 OA
BRANCH  12  14
ATOM     13  C   UNL     1      43.049   3.806  11.406  0.00  0.00    +0.000 C 
ATOM     14  C   UNL     1      44.481   4.332  11.293  0.00  0.00    +0.000 C 
BRANCH  14  15
ATOM     15  C   UNL     1      45.078   3.863   9.967  0.00  0.00    +0.000 A 
ATOM     16  C   UNL     1      45.106   2.494   9.656  0.00  0.00    +0.000 A 
ATOM     17  C   UNL     1      45.635   2.049   8.440  0.00  0.00    +0.000 A 
ATOM     18  C   UNL     1      46.146   2.969   7.528  0.00  0.00    +0.000 A 
ATOM     19 CL   UNL     1      46.758   2.425   6.015  0.00  0.00    +0.000 Cl
ATOM     20  C   UNL     1      46.158   4.327   7.832  0.00  0.00    +0.000 A 
ATOM     21  C   UNL     1      45.636   4.771   9.050  0.00  0.00    +0.000 A 
ENDBRANCH  14  15
ENDBRANCH  12  14
ENDBRANCH   1  12
TORSDOF 4
ENDMDL
MODEL 6
REMARK VINA RESULT:    -6.034      4.380      6.703
REMARK INTER + INTRA:          -8.170
REMARK INTER:                  -7.648
REMARK INTRA:                  -0.521
REMARK UNBOUND:                -0.725
REMARK  Name = 
REMARK  5 active torsions:
REMARK  status: ('A' for Active; 'I' for Inactive)
REMARK    1  A    between atoms: C_1  and  C_2
REMARK    2  A    between atoms: C_2  and  O_3
REMARK    3  A    between atoms: C_2  and  C_13
REMARK    4  A    between atoms: O_3  and  C_4
REMARK    5  A    between atoms: C_7  and  C_8
REMARK                            x       y       z     vdW  Elec       q    Type
REMARK                         _______ _______ _______ _____ _____    ______ ____
ROOT
ATOM      1  C   UNL     1      46.475   5.060  13.854  0.00  0.00    +0.000 A 
ATOM      2  C   UNL     1      47.001   6.214  13.286  0.00  0.00    +0.000 A 
ATOM      3  C   UNL     1      48.090   6.844  13.887  0.00  0.00    +0.000 A 
ATOM      4  C   UNL     1      48.633   6.286  15.039  0.00  0.00    +0.000 A 
ATOM      5  N   UNL     1      48.159   5.151  15.619  0.00  0.00    +0.000 NA
ATOM      6  C   UNL     1      47.088   4.578  15.007  0.00  0.00    +0.000 A 
ENDROOT
BRANCH   4   7
ATOM      7  C   UNL     1      49.790   6.968  15.698  0.00  0.00    +0.000 C 
ATOM      8  N   UNL     1      50.794   7.380  14.866  0.00  0.00    +0.000 N 
ATOM      9  O   UNL     1      49.850   7.143  16.909  0.00  0.00    +0.000 OA
ATOM     10  H   UNL     1      50.727   7.205  13.869  0.00  0.00    +0.000 HD
ATOM     11  H   UNL     1      51.614   7.818  15.258  0.00  0.00    +0.000 HD
ENDBRANCH   4   7
BRANCH   1  12
ATOM     12  O   UNL     1      45.370   4.386  13.422  0.00  0.00    +0.000 OA
BRANCH  12  14
ATOM     13  C   UNL     1      43.009   4.656  12.823  0.00  0.00    +0.000 C 
ATOM     14  C   UNL     1      44.460   5.028  12.512  0.00  0.00    +0.000 C 
BRANCH  14  15
ATOM     15  C   UNL     1      44.798   4.561  11.098  0.00  0.00    +0.000 A 
ATOM     16  C   UNL     1      44.439   3.269  10.680  0.00  0.00    +0.000 A 
ATOM     17  C   UNL     1      44.728   2.832   9.384  0.00  0.00    +0.000 A 
ATOM     18  C   UNL     1      45.385   3.680   8.496  0.00  0.00    +0.000 A 
ATOM     19 CL   UNL     1      45.703   3.157   6.889  0.00  0.00    +0.000 Cl
ATOM     20  C   UNL     1      45.780   4.952   8.901  0.00  0.00    +0.000 A 
ATOM     21  C   UNL     1      45.497   5.386  10.199  0.00  0.00    +0.000 A 
ENDBRANCH  14  15
ENDBRANCH  12  14
ENDBRANCH   1  12
TORSDOF 4
ENDMDL
MODEL 7
REMARK VINA RESULT:    -5.844      4.527      6.520
REMARK INTER + INTRA:          -7.936
REMARK INTER:                  -7.417
REMARK INTRA:                  -0.519
REMARK UNBOUND:                -0.725
REMARK  Name = 
REMARK  5 active torsions:
REMARK  status: ('A' for Active; 'I' for Inactive)
REMARK    1  A    between atoms: C_1  and  C_2
REMARK    2  A    between atoms: C_2  and  O_3
REMARK    3  A    between atoms: C_2  and  C_13
REMARK    4  A    between atoms: O_3  and  C_4
REMARK    5  A    between atoms: C_7  and  C_8
REMARK                            x       y       z     vdW  Elec       q    Type
REMARK                         _______ _______ _______ _____ _____    ______ ____
ROOT
ATOM      1  C   UNL     1      47.083   4.754  14.392  0.00  0.00    +0.000 A 
ATOM      2  C   UNL     1      46.550   5.783  13.626  0.00  0.00    +0.000 A 
ATOM      3  C   UNL     1      45.755   5.480  12.522  0.00  0.00    +0.000 A 
ATOM      4  C   UNL     1      45.503   4.146  12.225  0.00  0.00    +0.000 A 
ATOM      5  N   UNL     1      45.991   3.108  12.957  0.00  0.00    +0.000 NA
ATOM      6  C   UNL     1      46.772   3.450  14.017  0.00  0.00    +0.000 A 
ENDROOT
BRANCH   4   7
ATOM      7  C   UNL     1      44.665   3.815  11.031  0.00  0.00    +0.000 C 
ATOM      8  N   UNL     1      44.758   2.530  10.574  0.00  0.00    +0.000 N 
ATOM      9  O   UNL     1      43.944   4.639  10.481  0.00  0.00    +0.000 OA
ATOM     10  H   UNL     1      45.377   1.873  11.036  0.00  0.00    +0.000 HD
ATOM     11  H   UNL     1      44.238   2.258   9.752  0.00  0.00    +0.000 HD
ENDBRANCH   4   7
BRANCH   1  12
ATOM     12  O   UNL     1      47.936   4.898  15.447  0.00  0.00    +0.000 OA
BRANCH  12  14
ATOM     13  C   UNL     1      47.181   4.791  17.777  0.00  0.00    +0.000 C 
ATOM     14  C   UNL     1      47.796   4.041  16.594  0.00  0.00    +0.000 C 
BRANCH  14  15
ATOM     15  C   UNL     1      49.187   3.549  16.988  0.00  0.00    +0.000 A 
ATOM     16  C   UNL     1      50.146   4.460  17.459  0.00  0.00    +0.000 A 
ATOM     17  C   UNL     1      51.419   4.024  17.839  0.00  0.00    +0.000 A 
ATOM     18  C   UNL     1      51.746   2.674  17.745  0.00  0.00    +0.000 A 
ATOM     19 CL   UNL     1      53.298   2.131  18.252  0.00  0.00    +0.000 Cl
ATOM     20  C   UNL     1      50.821   1.760  17.249  0.00  0.00    +0.000 A 
ATOM     21  C   UNL     1      49.551   2.197  16.863  0.00  0.00    +0.000 A 
ENDBRANCH  14  15
ENDBRANCH  12  14
ENDBRANCH   1  12
TORSDOF 4
ENDMDL
MODEL 8
REMARK VINA RESULT:    -5.520      4.110      6.305
REMARK INTER + INTRA:          -7.536
REMARK INTER:                  -7.036
REMARK INTRA:                  -0.500
REMARK UNBOUND:                -0.725
REMARK  Name = 
REMARK  5 active torsions:
REMARK  status: ('A' for Active; 'I' for Inactive)
REMARK    1  A    between atoms: C_1  and  C_2
REMARK    2  A    between atoms: C_2  and  O_3
REMARK    3  A    between atoms: C_2  and  C_13
REMARK    4  A    between atoms: O_3  and  C_4
REMARK    5  A    between atoms: C_7  and  C_8
REMARK                            x       y       z     vdW  Elec       q    Type
REMARK                         _______ _______ _______ _____ _____    ______ ____
ROOT
ATOM      1  C   UNL     1      46.953   5.279  13.577  0.00  0.00    +0.000 A 
ATOM      2  C   UNL     1      46.179   6.261  12.971  0.00  0.00    +0.000 A 
ATOM      3  C   UNL     1      44.959   5.916  12.390  0.00  0.00    +0.000 A 
ATOM      4  C   UNL     1      44.542   4.593  12.448  0.00  0.00    +0.000 A 
ATOM      5  N   UNL     1      45.260   3.603  13.045  0.00  0.00    +0.000 NA
ATOM      6  C   UNL     1      46.449   3.982  13.587  0.00  0.00    +0.000 A 
ENDROOT
BRANCH   4   7
ATOM      7  C   UNL     1      43.242   4.214  11.810  0.00  0.00    +0.000 C 
ATOM      8  N   UNL     1      42.263   5.168  11.838  0.00  0.00    +0.000 N 
ATOM      9  O   UNL     1      43.052   3.116  11.301  0.00  0.00    +0.000 OA
ATOM     10  H   UNL     1      42.441   6.061  12.283  0.00  0.00    +0.000 HD
ATOM     11  H   UNL     1      41.355   4.957  11.450  0.00  0.00    +0.000 HD
ENDBRANCH   4   7
BRANCH   1  12
ATOM     12  O   UNL     1      48.195   5.455  14.114  0.00  0.00    +0.000 OA
BRANCH  12  14
ATOM     13  C   UNL     1      49.737   7.281  14.661  0.00  0.00    +0.000 C 
ATOM     14  C   UNL     1      48.431   6.561  15.003  0.00  0.00    +0.000 C 
BRANCH  14  15
ATOM     15  C   UNL     1      48.527   6.012  16.425  0.00  0.00    +0.000 A 
ATOM     16  C   UNL     1      48.768   6.884  17.500  0.00  0.00    +0.000 A 
ATOM     17  C   UNL     1      48.843   6.400  18.809  0.00  0.00    +0.000 A 
ATOM     18  C   UNL     1      48.685   5.038  19.055  0.00  0.00    +0.000 A 
ATOM     19 CL   UNL     1      48.735   4.448  20.671  0.00  0.00    +0.000 Cl
ATOM     20  C   UNL     1      48.479   4.153  18.001  0.00  0.00    +0.000 A 
ATOM     21  C   UNL     1      48.411   4.636  16.692  0.00  0.00    +0.000 A 
ENDBRANCH  14  15
ENDBRANCH  12  14
ENDBRANCH   1  12
TORSDOF 4
ENDMDL
MODEL 9
REMARK VINA RESULT:    -5.316      4.023      6.153
REMARK INTER + INTRA:          -7.283
REMARK INTER:                  -6.704
REMARK INTRA:                  -0.579
REMARK UNBOUND:                -0.725
REMARK  Name = 
REMARK  5 active torsions:
REMARK  status: ('A' for Active; 'I' for Inactive)
REMARK    1  A    between atoms: C_1  and  C_2
REMARK    2  A    between atoms: C_2  and  O_3
REMARK    3  A    between atoms: C_2  and  C_13
REMARK    4  A    between atoms: O_3  and  C_4
REMARK    5  A    between atoms: C_7  and  C_8
REMARK                            x       y       z     vdW  Elec       q    Type
REMARK                         _______ _______ _______ _____ _____    ______ ____
ROOT
ATOM      1  C   UNL     1      47.457   5.682  13.255  0.00  0.00    +0.000 A 
ATOM      2  C   UNL     1      46.779   6.119  12.124  0.00  0.00    +0.000 A 
ATOM      3  C   UNL     1      45.599   5.483  11.739  0.00  0.00    +0.000 A 
ATOM      4  C   UNL     1      45.123   4.432  12.513  0.00  0.00    +0.000 A 
ATOM      5  N   UNL     1      45.746   3.983  13.636  0.00  0.00    +0.000 NA
ATOM      6  C   UNL     1      46.900   4.624  13.966  0.00  0.00    +0.000 A 
ENDROOT
BRANCH   4   7
ATOM      7  C   UNL     1      43.867   3.735  12.095  0.00  0.00    +0.000 C 
ATOM      8  N   UNL     1      43.726   2.446  12.530  0.00  0.00    +0.000 N 
ATOM      9  O   UNL     1      43.015   4.271  11.397  0.00  0.00    +0.000 OA
ATOM     10  H   UNL     1      44.455   2.020  13.091  0.00  0.00    +0.000 HD
ATOM     11  H   UNL     1      42.913   1.916  12.253  0.00  0.00    +0.000 HD
ENDBRANCH   4   7
BRANCH   1  12
ATOM     12  O   UNL     1      48.655   6.156  13.704  0.00  0.00    +0.000 OA
BRANCH  12  14
ATOM     13  C   UNL     1      50.236   8.015  13.472  0.00  0.00    +0.000 C 
ATOM     14  C   UNL     1      48.833   7.571  13.889  0.00  0.00    +0.000 C 
BRANCH  14  15
ATOM     15  C   UNL     1      48.635   7.881  15.372  0.00  0.00    +0.000 A 
ATOM     16  C   UNL     1      48.219   9.162  15.771  0.00  0.00    +0.000 A 
ATOM     17  C   UNL     1      48.019   9.458  17.123  0.00  0.00    +0.000 A 
ATOM     18  C   UNL     1      48.239   8.479  18.088  0.00  0.00    +0.000 A 
ATOM     19 CL   UNL     1      47.952   8.831  19.747  0.00  0.00    +0.000 Cl
ATOM     20  C   UNL     1      48.685   7.213  17.715  0.00  0.00    +0.000 A 
ATOM     21  C   UNL     1      48.892   6.920  16.365  0.00  0.00    +0.000 A 
ENDBRANCH  14  15
ENDBRANCH  12  14
ENDBRANCH   1  12
TORSDOF 4
ENDMDL
