MODEL 1
REMARK VINA RESULT:    -7.876      0.000      0.000
REMARK INTER + INTRA:         -11.623
REMARK INTER:                 -11.099
REMARK INTRA:                  -0.524
REMARK UNBOUND:                -0.524
REMARK  Name = 
REMARK  8 active torsions:
REMARK  status: ('A' for Active; 'I' for Inactive)
REMARK    1  A    between atoms: N_1  and  C_2
REMARK    2  A    between atoms: C_2  and  C_3
REMARK    3  A    between atoms: C_3  and  O_4
REMARK    4  A    between atoms: O_4  and  C_5
REMARK    5  A    between atoms: C_8  and  C_9
REMARK    6  A    between atoms: C_9  and  N_10
REMARK    7  A    between atoms: C_15  and  C_16
REMARK    8  A    between atoms: C_16  and  O_18
REMARK                            x       y       z     vdW  Elec       q    Type
REMARK                         _______ _______ _______ _____ _____    ______ ____
ROOT
ATOM      1  C   UNL     1      44.969   5.337  11.680  0.00  0.00    +0.000 C 
ENDROOT
BRANCH   1   2
ATOM      2  N   UNL     1      44.789   4.315  10.621  0.00  0.00    +0.000 N 
ATOM      3  C   UNL     1      44.252   3.038  10.859  0.00  0.00    +0.000 A 
ATOM      4  N   UNL     1      43.774   2.720   9.707  0.00  0.00    +0.000 NA
ATOM      5  C   UNL     1      44.929   3.030   9.115  0.00  0.00    +0.000 A 
ATOM      6  C   UNL     1      45.863   2.036   8.732  0.00  0.00    +0.000 A 
ATOM      7  C   UNL     1      46.680   2.313   7.686  0.00  0.00    +0.000 A 
ATOM      8  C   UNL     1      46.638   3.623   7.272  0.00  0.00    +0.000 A 
ATOM      9  C   UNL     1      45.902   4.596   8.042  0.00  0.00    +0.000 A 
ATOM     10  C   UNL     1      45.337   4.473   9.348  0.00  0.00    +0.000 A 
BRANCH   7  11
ATOM     11  C   UNL     1      47.364   1.242   6.920  0.00  0.00    +0.000 C 
ATOM     12  O   UNL     1      47.074   0.067   7.066  0.00  0.00    +0.000 OA
BRANCH  11  13
ATOM     13  O   UNL     1      48.357   1.632   6.086  0.00  0.00    +0.000 OA
ATOM     14  H   UNL     1      49.074   1.010   5.881  0.00  0.00    +0.000 HD
ENDBRANCH  11  13
ENDBRANCH   7  11
ENDBRANCH   1   2
BRANCH   1  18
ATOM     15  C   UNL     1      47.883   5.224  14.998  0.00  0.00    +0.000 A 
ATOM     16  C   UNL     1      48.049   6.214  14.023  0.00  0.00    +0.000 A 
ATOM     17  C   UNL     1      47.170   6.332  12.895  0.00  0.00    +0.000 A 
ATOM     18  C   UNL     1      46.085   5.456  12.738  0.00  0.00    +0.000 A 
ATOM     19  C   UNL     1      46.036   4.399  13.682  0.00  0.00    +0.000 A 
ATOM     20  C   UNL     1      46.851   4.318  14.822  0.00  0.00    +0.000 A 
BRANCH  15  21
ATOM     21  O   UNL     1      48.724   4.977  16.056  0.00  0.00    +0.000 OA
BRANCH  21  22
ATOM     22  C   UNL     1      48.283   4.002  17.007  0.00  0.00    +0.000 C 
BRANCH  22  23
ATOM     23  C   UNL     1      49.366   2.929  17.220  0.00  0.00    +0.000 C 
BRANCH  23  24
ATOM     24  N   UNL     1      49.397   1.978  16.105  0.00  0.00    +0.000 NA
ATOM     25  H   UNL     1      49.036   1.076  16.413  0.00  0.00    +0.000 HD
ATOM     26  H   UNL     1      50.364   1.814  15.824  0.00  0.00    +0.000 HD
ENDBRANCH  23  24
ENDBRANCH  22  23
ENDBRANCH  21  22
ENDBRANCH  15  21
ENDBRANCH   1  18
TORSDOF 8
ENDMDL
MODEL 2
REMARK VINA RESULT:    -7.399      1.225      1.447
REMARK INTER + INTRA:         -10.950
REMARK INTER:                 -10.415
REMARK INTRA:                  -0.535
REMARK UNBOUND:                -0.524
REMARK  Name = 
REMARK  8 active torsions:
REMARK  status: ('A' for Active; 'I' for Inactive)
REMARK    1  A    between atoms: N_1  and  C_2
REMARK    2  A    between atoms: C_2  and  C_3
REMARK    3  A    between atoms: C_3  and  O_4
REMARK    4  A    between atoms: O_4  and  C_5
REMARK    5  A    between atoms: C_8  and  C_9
REMARK    6  A    between atoms: C_9  and  N_10
REMARK    7  A    between atoms: C_15  and  C_16
REMARK    8  A    between atoms: C_16  and  O_18
REMARK                            x       y       z     vdW  Elec       q    Type
REMARK                         _______ _______ _______ _____ _____    ______ ____
ROOT
ATOM      1  C   UNL     1      44.806   5.320  11.569  0.00  0.00    +0.000 C 
ENDROOT
BRANCH   1   2
ATOM      2  N   UNL     1      44.678   4.211  10.593  0.00  0.00    +0.000 N 
ATOM      3  C   UNL     1      44.314   2.902  10.951  0.00  0.00    +0.000 A 
ATOM      4  N   UNL     1      43.801   2.449   9.861  0.00  0.00    +0.000 NA
ATOM      5  C   UNL     1      44.870   2.844   9.166  0.00  0.00    +0.000 A 
ATOM      6  C   UNL     1      45.887   1.938   8.779  0.00  0.00    +0.000 A 
ATOM      7  C   UNL     1      46.595   2.230   7.660  0.00  0.00    +0.000 A 
ATOM      8  C   UNL     1      46.370   3.494   7.166  0.00  0.00    +0.000 A 
ATOM      9  C   UNL     1      45.577   4.429   7.926  0.00  0.00    +0.000 A 
ATOM     10  C   UNL     1      45.118   4.337   9.275  0.00  0.00    +0.000 A 
BRANCH   7  11
ATOM     11  C   UNL     1      47.348   1.191   6.915  0.00  0.00    +0.000 C 
ATOM     12  O   UNL     1      48.293   1.478   6.198  0.00  0.00    +0.000 OA
BRANCH  11  13
ATOM     13  O   UNL     1      46.906  -0.083   7.035  0.00  0.00    +0.000 OA
ATOM     14  H   UNL     1      47.417  -0.712   7.571  0.00  0.00    +0.000 HD
ENDBRANCH  11  13
ENDBRANCH   7  11
ENDBRANCH   1   2
BRANCH   1  18
ATOM     15  C   UNL     1      48.263   6.383  14.104  0.00  0.00    +0.000 A 
ATOM     16  C   UNL     1      48.072   7.117  12.927  0.00  0.00    +0.000 A 
ATOM     17  C   UNL     1      46.992   6.845  12.023  0.00  0.00    +0.000 A 
ATOM     18  C   UNL     1      46.063   5.831  12.302  0.00  0.00    +0.000 A 
ATOM     19  C   UNL     1      46.373   5.040  13.438  0.00  0.00    +0.000 A 
ATOM     20  C   UNL     1      47.387   5.342  14.359  0.00  0.00    +0.000 A 
BRANCH  15  21
ATOM     21  O   UNL     1      49.316   6.509  14.977  0.00  0.00    +0.000 OA
BRANCH  21  22
ATOM     22  C   UNL     1      48.999   6.446  16.373  0.00  0.00    +0.000 C 
BRANCH  22  23
ATOM     23  C   UNL     1      50.228   5.999  17.184  0.00  0.00    +0.000 C 
BRANCH  23  24
ATOM     24  N   UNL     1      50.459   4.557  17.045  0.00  0.00    +0.000 NA
ATOM     25  H   UNL     1      49.804   4.168  16.368  0.00  0.00    +0.000 HD
ATOM     26  H   UNL     1      50.259   4.093  17.931  0.00  0.00    +0.000 HD
ENDBRANCH  23  24
ENDBRANCH  22  23
ENDBRANCH  21  22
ENDBRANCH  15  21
ENDBRANCH   1  18
TORSDOF 8
ENDMDL
MODEL 3
REMARK VINA RESULT:    -6.777      3.069      4.065
REMARK INTER + INTRA:         -10.074
REMARK INTER:                  -9.481
REMARK INTRA:                  -0.593
REMARK UNBOUND:                -0.524
REMARK  Name = 
REMARK  8 active torsions:
REMARK  status: ('A' for Active; 'I' for Inactive)
REMARK    1  A    between atoms: N_1  and  C_2
REMARK    2  A    between atoms: C_2  and  C_3
REMARK    3  A    between atoms: C_3  and  O_4
REMARK    4  A    between atoms: O_4  and  C_5
REMARK    5  A    between atoms: C_8  and  C_9
REMARK    6  A    between atoms: C_9  and  N_10
REMARK    7  A    between atoms: C_15  and  C_16
REMARK    8  A    between atoms: C_16  and  O_18
REMARK                            x       y       z     vdW  Elec       q    Type
REMARK                         _______ _______ _______ _____ _____    ______ ____
ROOT
ATOM      1  C   UNL     1      44.897   5.255  12.075  0.00  0.00    +0.000 C 
ENDROOT
BRANCH   1   2
ATOM      2  N   UNL     1      44.672   4.237  11.020  0.00  0.00    +0.000 N 
ATOM      3  C   UNL     1      44.113   2.972  11.270  0.00  0.00    +0.000 A 
ATOM      4  N   UNL     1      43.603   2.664  10.130  0.00  0.00    +0.000 NA
ATOM      5  C   UNL     1      44.752   2.949   9.512  0.00  0.00    +0.000 A 
ATOM      6  C   UNL     1      45.656   1.935   9.110  0.00  0.00    +0.000 A 
ATOM      7  C   UNL     1      46.456   2.194   8.047  0.00  0.00    +0.000 A 
ATOM      8  C   UNL     1      46.434   3.505   7.632  0.00  0.00    +0.000 A 
ATOM      9  C   UNL     1      45.736   4.493   8.418  0.00  0.00    +0.000 A 
ATOM     10  C   UNL     1      45.196   4.382   9.735  0.00  0.00    +0.000 A 
BRANCH   7  11
ATOM     11  C   UNL     1      47.100   1.108   7.267  0.00  0.00    +0.000 C 
ATOM     12  O   UNL     1      47.762   1.344   6.269  0.00  0.00    +0.000 OA
BRANCH  11  13
ATOM     13  O   UNL     1      46.878  -0.158   7.691  0.00  0.00    +0.000 OA
ATOM     14  H   UNL     1      47.158  -0.901   7.131  0.00  0.00    +0.000 HD
ENDBRANCH  11  13
ENDBRANCH   7  11
ENDBRANCH   1   2
BRANCH   1  18
ATOM     15  C   UNL     1      47.206   9.019  12.203  0.00  0.00    +0.000 A 
ATOM     16  C   UNL     1      47.901   7.842  11.902  0.00  0.00    +0.000 A 
ATOM     17  C   UNL     1      47.253   6.563  11.850  0.00  0.00    +0.000 A 
ATOM     18  C   UNL     1      45.875   6.448  12.083  0.00  0.00    +0.000 A 
ATOM     19  C   UNL     1      45.244   7.647  12.505  0.00  0.00    +0.000 A 
ATOM     20  C   UNL     1      45.857   8.909  12.494  0.00  0.00    +0.000 A 
BRANCH  15  21
ATOM     21  O   UNL     1      47.755  10.267  12.368  0.00  0.00    +0.000 OA
BRANCH  21  22
ATOM     22  C   UNL     1      49.006  10.327  13.062  0.00  0.00    +0.000 C 
BRANCH  22  23
ATOM     23  C   UNL     1      50.016  11.184  12.278  0.00  0.00    +0.000 C 
BRANCH  23  24
ATOM     24  N   UNL     1      50.201  10.674  10.916  0.00  0.00    +0.000 NA
ATOM     25  H   UNL     1      50.253  11.454  10.262  0.00  0.00    +0.000 HD
ATOM     26  H   UNL     1      49.383  10.129  10.642  0.00  0.00    +0.000 HD
ENDBRANCH  23  24
ENDBRANCH  22  23
ENDBRANCH  21  22
ENDBRANCH  15  21
ENDBRANCH   1  18
TORSDOF 8
ENDMDL
MODEL 4
REMARK VINA RESULT:    -6.696      3.024      7.440
REMARK INTER + INTRA:          -9.960
REMARK INTER:                  -9.346
REMARK INTRA:                  -0.614
REMARK UNBOUND:                -0.524
REMARK  Name = 
REMARK  8 active torsions:
REMARK  status: ('A' for Active; 'I' for Inactive)
REMARK    1  A    between atoms: N_1  and  C_2
REMARK    2  A    between atoms: C_2  and  C_3
REMARK    3  A    between atoms: C_3  and  O_4
REMARK    4  A    between atoms: O_4  and  C_5
REMARK    5  A    between atoms: C_8  and  C_9
REMARK    6  A    between atoms: C_9  and  N_10
REMARK    7  A    between atoms: C_15  and  C_16
REMARK    8  A    between atoms: C_16  and  O_18
REMARK                            x       y       z     vdW  Elec       q    Type
REMARK                         _______ _______ _______ _____ _____    ______ ____
ROOT
ATOM      1  C   UNL     1      44.307   5.760  11.936  0.00  0.00    +0.000 C 
ENDROOT
BRANCH   1   2
ATOM      2  N   UNL     1      45.236   6.833  12.367  0.00  0.00    +0.000 N 
ATOM      3  C   UNL     1      45.053   8.189  12.049  0.00  0.00    +0.000 A 
ATOM      4  N   UNL     1      45.681   8.784  13.003  0.00  0.00    +0.000 NA
ATOM      5  C   UNL     1      46.761   8.028  12.796  0.00  0.00    +0.000 A 
ATOM      6  C   UNL     1      47.885   8.510  12.081  0.00  0.00    +0.000 A 
ATOM      7  C   UNL     1      49.095   7.974  12.380  0.00  0.00    +0.000 A 
ATOM      8  C   UNL     1      49.035   6.868  13.194  0.00  0.00    +0.000 A 
ATOM      9  C   UNL     1      47.755   6.283  13.514  0.00  0.00    +0.000 A 
ATOM     10  C   UNL     1      46.474   6.545  12.942  0.00  0.00    +0.000 A 
BRANCH   7  11
ATOM     11  C   UNL     1      50.363   8.671  12.051  0.00  0.00    +0.000 C 
ATOM     12  O   UNL     1      50.373   9.723  11.435  0.00  0.00    +0.000 OA
BRANCH  11  13
ATOM     13  O   UNL     1      51.509   8.056  12.429  0.00  0.00    +0.000 OA
ATOM     14  H   UNL     1      51.463   7.167  12.819  0.00  0.00    +0.000 HD
ENDBRANCH  11  13
ENDBRANCH   7  11
ENDBRANCH   1   2
BRANCH   1  18
ATOM     15  C   UNL     1      45.109   3.137   8.473  0.00  0.00    +0.000 A 
ATOM     16  C   UNL     1      44.418   2.585   9.558  0.00  0.00    +0.000 A 
ATOM     17  C   UNL     1      44.119   3.342  10.739  0.00  0.00    +0.000 A 
ATOM     18  C   UNL     1      44.497   4.689  10.842  0.00  0.00    +0.000 A 
ATOM     19  C   UNL     1      45.300   5.162   9.772  0.00  0.00    +0.000 A 
ATOM     20  C   UNL     1      45.539   4.449   8.588  0.00  0.00    +0.000 A 
BRANCH  15  21
ATOM     21  O   UNL     1      45.520   2.468   7.347  0.00  0.00    +0.000 OA
BRANCH  21  22
ATOM     22  C   UNL     1      46.661   3.003   6.666  0.00  0.00    +0.000 C 
BRANCH  22  23
ATOM     23  C   UNL     1      47.877   2.077   6.845  0.00  0.00    +0.000 C 
BRANCH  23  24
ATOM     24  N   UNL     1      48.559   1.844   5.567  0.00  0.00    +0.000 NA
ATOM     25  H   UNL     1      49.504   1.505   5.740  0.00  0.00    +0.000 HD
ATOM     26  H   UNL     1      48.662   2.729   5.070  0.00  0.00    +0.000 HD
ENDBRANCH  23  24
ENDBRANCH  22  23
ENDBRANCH  21  22
ENDBRANCH  15  21
ENDBRANCH   1  18
TORSDOF 8
ENDMDL
MODEL 5
REMARK VINA RESULT:    -5.872      3.018      8.396
REMARK INTER + INTRA:          -8.798
REMARK INTER:                  -8.363
REMARK INTRA:                  -0.435
REMARK UNBOUND:                -0.524
REMARK  Name = 
REMARK  8 active torsions:
REMARK  status: ('A' for Active; 'I' for Inactive)
REMARK    1  A    between atoms: N_1  and  C_2
REMARK    2  A    between atoms: C_2  and  C_3
REMARK    3  A    between atoms: C_3  and  O_4
REMARK    4  A    between atoms: O_4  and  C_5
REMARK    5  A    between atoms: C_8  and  C_9
REMARK    6  A    between atoms: C_9  and  N_10
REMARK    7  A    between atoms: C_15  and  C_16
REMARK    8  A    between atoms: C_16  and  O_18
REMARK                            x       y       z     vdW  Elec       q    Type
REMARK                         _______ _______ _______ _____ _____    ______ ____
ROOT
ATOM      1  C   UNL     1      48.568   6.757  15.235  0.00  0.00    +0.000 C 
ENDROOT
BRANCH   1   2
ATOM      2  N   UNL     1      49.223   6.029  16.348  0.00  0.00    +0.000 N 
ATOM      3  C   UNL     1      50.325   6.533  17.060  0.00  0.00    +0.000 A 
ATOM      4  N   UNL     1      50.222   5.930  18.193  0.00  0.00    +0.000 NA
ATOM      5  C   UNL     1      50.107   4.749  17.582  0.00  0.00    +0.000 A 
ATOM      6  C   UNL     1      51.198   3.852  17.478  0.00  0.00    +0.000 A 
ATOM      7  C   UNL     1      50.915   2.529  17.389  0.00  0.00    +0.000 A 
ATOM      8  C   UNL     1      49.583   2.250  17.191  0.00  0.00    +0.000 A 
ATOM      9  C   UNL     1      48.657   3.326  16.932  0.00  0.00    +0.000 A 
ATOM     10  C   UNL     1      48.926   4.695  16.631  0.00  0.00    +0.000 A 
BRANCH   7  11
ATOM     11  C   UNL     1      51.920   1.488  17.719  0.00  0.00    +0.000 C 
ATOM     12  O   UNL     1      53.116   1.695  17.601  0.00  0.00    +0.000 OA
BRANCH  11  13
ATOM     13  O   UNL     1      51.441   0.284  18.112  0.00  0.00    +0.000 OA
ATOM     14  H   UNL     1      50.565   0.237  18.530  0.00  0.00    +0.000 HD
ENDBRANCH  11  13
ENDBRANCH   7  11
ENDBRANCH   1   2
BRANCH   1  18
ATOM     15  C   UNL     1      46.128   5.681  11.713  0.00  0.00    +0.000 A 
ATOM     16  C   UNL     1      46.047   4.849  12.836  0.00  0.00    +0.000 A 
ATOM     17  C   UNL     1      46.809   5.096  14.027  0.00  0.00    +0.000 A 
ATOM     18  C   UNL     1      47.659   6.208  14.116  0.00  0.00    +0.000 A 
ATOM     19  C   UNL     1      47.797   6.945  12.911  0.00  0.00    +0.000 A 
ATOM     20  C   UNL     1      47.008   6.748  11.769  0.00  0.00    +0.000 A 
BRANCH  15  21
ATOM     21  O   UNL     1      45.513   5.473  10.503  0.00  0.00    +0.000 OA
BRANCH  21  22
ATOM     22  C   UNL     1      44.250   4.799  10.536  0.00  0.00    +0.000 C 
BRANCH  22  23
ATOM     23  C   UNL     1      44.309   3.502   9.710  0.00  0.00    +0.000 C 
BRANCH  23  24
ATOM     24  N   UNL     1      43.928   2.340  10.517  0.00  0.00    +0.000 NA
ATOM     25  H   UNL     1      44.318   1.493  10.106  0.00  0.00    +0.000 HD
ATOM     26  H   UNL     1      42.914   2.225  10.493  0.00  0.00    +0.000 HD
ENDBRANCH  23  24
ENDBRANCH  22  23
ENDBRANCH  21  22
ENDBRANCH  15  21
ENDBRANCH   1  18
TORSDOF 8
ENDMDL
MODEL 6
REMARK VINA RESULT:    -5.747      3.881      5.715
REMARK INTER + INTRA:          -8.622
REMARK INTER:                  -8.185
REMARK INTRA:                  -0.437
REMARK UNBOUND:                -0.524
REMARK  Name = 
REMARK  8 active torsions:
REMARK  status: ('A' for Active; 'I' for Inactive)
REMARK    1  A    between atoms: N_1  and  C_2
REMARK    2  A    between atoms: C_2  and  C_3
REMARK    3  A    between atoms: C_3  and  O_4
REMARK    4  A    between atoms: O_4  and  C_5
REMARK    5  A    between atoms: C_8  and  C_9
REMARK    6  A    between atoms: C_9  and  N_10
REMARK    7  A    between atoms: C_15  and  C_16
REMARK    8  A    between atoms: C_16  and  O_18
REMARK                            x       y       z     vdW  Elec       q    Type
REMARK                         _______ _______ _______ _____ _____    ______ ____
ROOT
ATOM      1  C   UNL     1      47.657   4.146  16.217  0.00  0.00    +0.000 C 
ENDROOT
BRANCH   1   2
ATOM      2  N   UNL     1      47.300   4.706  14.891  0.00  0.00    +0.000 N 
ATOM      3  C   UNL     1      47.375   6.075  14.583  0.00  0.00    +0.000 A 
ATOM      4  N   UNL     1      47.530   6.064  13.306  0.00  0.00    +0.000 NA
ATOM      5  C   UNL     1      46.487   5.243  13.162  0.00  0.00    +0.000 A 
ATOM      6  C   UNL     1      45.214   5.717  12.760  0.00  0.00    +0.000 A 
ATOM      7  C   UNL     1      44.403   4.852  12.101  0.00  0.00    +0.000 A 
ATOM      8  C   UNL     1      44.847   3.551  12.104  0.00  0.00    +0.000 A 
ATOM      9  C   UNL     1      45.988   3.186  12.907  0.00  0.00    +0.000 A 
ATOM     10  C   UNL     1      46.660   3.939  13.917  0.00  0.00    +0.000 A 
BRANCH   7  11
ATOM     11  C   UNL     1      43.276   5.322  11.258  0.00  0.00    +0.000 C 
ATOM     12  O   UNL     1      42.287   5.844  11.746  0.00  0.00    +0.000 OA
BRANCH  11  13
ATOM     13  O   UNL     1      43.380   5.101   9.927  0.00  0.00    +0.000 OA
ATOM     14  H   UNL     1      43.952   5.678   9.394  0.00  0.00    +0.000 HD
ENDBRANCH  11  13
ENDBRANCH   7  11
ENDBRANCH   1   2
BRANCH   1  18
ATOM     15  C   UNL     1      51.504   2.618  17.758  0.00  0.00    +0.000 A 
ATOM     16  C   UNL     1      51.274   3.997  17.841  0.00  0.00    +0.000 A 
ATOM     17  C   UNL     1      50.066   4.601  17.356  0.00  0.00    +0.000 A 
ATOM     18  C   UNL     1      49.050   3.816  16.791  0.00  0.00    +0.000 A 
ATOM     19  C   UNL     1      49.385   2.448  16.618  0.00  0.00    +0.000 A 
ATOM     20  C   UNL     1      50.533   1.843  17.148  0.00  0.00    +0.000 A 
BRANCH  15  21
ATOM     21  O   UNL     1      52.662   1.966  18.107  0.00  0.00    +0.000 OA
BRANCH  21  22
ATOM     22  C   UNL     1      52.733   0.574  17.782  0.00  0.00    +0.000 C 
BRANCH  22  23
ATOM     23  C   UNL     1      54.122   0.222  17.221  0.00  0.00    +0.000 C 
BRANCH  23  24
ATOM     24  N   UNL     1      54.013  -0.579  15.998  0.00  0.00    +0.000 NA
ATOM     25  H   UNL     1      53.306  -1.302  16.123  0.00  0.00    +0.000 HD
ATOM     26  H   UNL     1      54.892  -1.069  15.832  0.00  0.00    +0.000 HD
ENDBRANCH  23  24
ENDBRANCH  22  23
ENDBRANCH  21  22
ENDBRANCH  15  21
ENDBRANCH   1  18
TORSDOF 8
ENDMDL
MODEL 7
REMARK VINA RESULT:    -5.685      4.169      5.552
REMARK INTER + INTRA:          -8.535
REMARK INTER:                  -8.007
REMARK INTRA:                  -0.528
REMARK UNBOUND:                -0.524
REMARK  Name = 
REMARK  8 active torsions:
REMARK  status: ('A' for Active; 'I' for Inactive)
REMARK    1  A    between atoms: N_1  and  C_2
REMARK    2  A    between atoms: C_2  and  C_3
REMARK    3  A    between atoms: C_3  and  O_4
REMARK    4  A    between atoms: O_4  and  C_5
REMARK    5  A    between atoms: C_8  and  C_9
REMARK    6  A    between atoms: C_9  and  N_10
REMARK    7  A    between atoms: C_15  and  C_16
REMARK    8  A    between atoms: C_16  and  O_18
REMARK                            x       y       z     vdW  Elec       q    Type
REMARK                         _______ _______ _______ _____ _____    ______ ____
ROOT
ATOM      1  C   UNL     1      48.513   7.300  15.281  0.00  0.00    +0.000 C 
ENDROOT
BRANCH   1   2
ATOM      2  N   UNL     1      47.943   7.103  13.926  0.00  0.00    +0.000 N 
ATOM      3  C   UNL     1      47.932   8.102  12.938  0.00  0.00    +0.000 A 
ATOM      4  N   UNL     1      47.892   7.414  11.851  0.00  0.00    +0.000 NA
ATOM      5  C   UNL     1      46.862   6.701  12.311  0.00  0.00    +0.000 A 
ATOM      6  C   UNL     1      45.530   6.965  11.908  0.00  0.00    +0.000 A 
ATOM      7  C   UNL     1      44.653   5.931  11.928  0.00  0.00    +0.000 A 
ATOM      8  C   UNL     1      45.129   4.801  12.550  0.00  0.00    +0.000 A 
ATOM      9  C   UNL     1      46.388   4.846  13.251  0.00  0.00    +0.000 A 
ATOM     10  C   UNL     1      47.185   5.977  13.605  0.00  0.00    +0.000 A 
BRANCH   7  11
ATOM     11  C   UNL     1      43.398   5.952  11.136  0.00  0.00    +0.000 C 
ATOM     12  O   UNL     1      43.069   5.011  10.434  0.00  0.00    +0.000 OA
BRANCH  11  13
ATOM     13  O   UNL     1      42.661   7.086  11.198  0.00  0.00    +0.000 OA
ATOM     14  H   UNL     1      43.003   7.896  10.785  0.00  0.00    +0.000 HD
ENDBRANCH  11  13
ENDBRANCH   7  11
ENDBRANCH   1   2
BRANCH   1  18
ATOM     15  C   UNL     1      50.639   4.453  17.906  0.00  0.00    +0.000 A 
ATOM     16  C   UNL     1      49.239   4.436  17.930  0.00  0.00    +0.000 A 
ATOM     17  C   UNL     1      48.450   5.328  17.131  0.00  0.00    +0.000 A 
ATOM     18  C   UNL     1      49.063   6.250  16.268  0.00  0.00    +0.000 A 
ATOM     19  C   UNL     1      50.476   6.310  16.374  0.00  0.00    +0.000 A 
ATOM     20  C   UNL     1      51.254   5.398  17.103  0.00  0.00    +0.000 A 
BRANCH  15  21
ATOM     21  O   UNL     1      51.473   3.706  18.701  0.00  0.00    +0.000 OA
BRANCH  21  22
ATOM     22  C   UNL     1      52.322   2.768  18.031  0.00  0.00    +0.000 C 
BRANCH  22  23
ATOM     23  C   UNL     1      51.484   1.659  17.371  0.00  0.00    +0.000 C 
BRANCH  23  24
ATOM     24  N   UNL     1      51.649   0.381  18.070  0.00  0.00    +0.000 NA
ATOM     25  H   UNL     1      51.067   0.370  18.907  0.00  0.00    +0.000 HD
ATOM     26  H   UNL     1      52.612   0.291  18.394  0.00  0.00    +0.000 HD
ENDBRANCH  23  24
ENDBRANCH  22  23
ENDBRANCH  21  22
ENDBRANCH  15  21
ENDBRANCH   1  18
TORSDOF 8
ENDMDL
MODEL 8
REMARK VINA RESULT:    -5.107      3.503      9.316
REMARK INTER + INTRA:          -7.721
REMARK INTER:                  -7.239
REMARK INTRA:                  -0.482
REMARK UNBOUND:                -0.524
REMARK  Name = 
REMARK  8 active torsions:
REMARK  status: ('A' for Active; 'I' for Inactive)
REMARK    1  A    between atoms: N_1  and  C_2
REMARK    2  A    between atoms: C_2  and  C_3
REMARK    3  A    between atoms: C_3  and  O_4
REMARK    4  A    between atoms: O_4  and  C_5
REMARK    5  A    between atoms: C_8  and  C_9
REMARK    6  A    between atoms: C_9  and  N_10
REMARK    7  A    between atoms: C_15  and  C_16
REMARK    8  A    between atoms: C_16  and  O_18
REMARK                            x       y       z     vdW  Elec       q    Type
REMARK                         _______ _______ _______ _____ _____    ______ ____
ROOT
ATOM      1  C   UNL     1      47.485   4.133  15.444  0.00  0.00    +0.000 C 
ENDROOT
BRANCH   1   2
ATOM      2  N   UNL     1      47.878   4.808  16.705  0.00  0.00    +0.000 N 
ATOM      3  C   UNL     1      47.406   4.420  17.970  0.00  0.00    +0.000 A 
ATOM      4  N   UNL     1      48.341   4.832  18.752  0.00  0.00    +0.000 NA
ATOM      5  C   UNL     1      48.305   6.045  18.197  0.00  0.00    +0.000 A 
ATOM      6  C   UNL     1      47.640   7.131  18.817  0.00  0.00    +0.000 A 
ATOM      7  C   UNL     1      48.093   8.380  18.545  0.00  0.00    +0.000 A 
ATOM      8  C   UNL     1      49.009   8.437  17.522  0.00  0.00    +0.000 A 
ATOM      9  C   UNL     1      49.282   7.256  16.738  0.00  0.00    +0.000 A 
ATOM     10  C   UNL     1      48.580   6.013  16.705  0.00  0.00    +0.000 A 
BRANCH   7  11
ATOM     11  C   UNL     1      47.800   9.531  19.434  0.00  0.00    +0.000 C 
ATOM     12  O   UNL     1      46.664   9.781  19.803  0.00  0.00    +0.000 OA
BRANCH  11  13
ATOM     13  O   UNL     1      48.848  10.315  19.779  0.00  0.00    +0.000 OA
ATOM     14  H   UNL     1      49.347  10.111  20.587  0.00  0.00    +0.000 HD
ENDBRANCH  11  13
ENDBRANCH   7  11
ENDBRANCH   1   2
BRANCH   1  18
ATOM     15  C   UNL     1      45.637   5.390  11.634  0.00  0.00    +0.000 A 
ATOM     16  C   UNL     1      46.591   6.242  12.203  0.00  0.00    +0.000 A 
ATOM     17  C   UNL     1      47.241   5.939  13.446  0.00  0.00    +0.000 A 
ATOM     18  C   UNL     1      46.953   4.751  14.134  0.00  0.00    +0.000 A 
ATOM     19  C   UNL     1      45.893   3.988  13.580  0.00  0.00    +0.000 A 
ATOM     20  C   UNL     1      45.302   4.244  12.335  0.00  0.00    +0.000 A 
BRANCH  15  21
ATOM     21  O   UNL     1      44.898   5.640  10.504  0.00  0.00    +0.000 OA
BRANCH  21  22
ATOM     22  C   UNL     1      44.088   4.563  10.019  0.00  0.00    +0.000 C 
BRANCH  22  23
ATOM     23  C   UNL     1      44.662   4.009   8.703  0.00  0.00    +0.000 C 
BRANCH  23  24
ATOM     24  N   UNL     1      45.746   4.857   8.198  0.00  0.00    +0.000 NA
ATOM     25  H   UNL     1      46.558   4.775   8.808  0.00  0.00    +0.000 HD
ATOM     26  H   UNL     1      45.460   5.835   8.237  0.00  0.00    +0.000 HD
ENDBRANCH  23  24
ENDBRANCH  22  23
ENDBRANCH  21  22
ENDBRANCH  15  21
ENDBRANCH   1  18
TORSDOF 8
ENDMDL
MODEL 9
REMARK VINA RESULT:    -5.086      3.850      8.427
REMARK INTER + INTRA:          -7.691
REMARK INTER:                  -7.126
REMARK INTRA:                  -0.565
REMARK UNBOUND:                -0.524
REMARK  Name = 
REMARK  8 active torsions:
REMARK  status: ('A' for Active; 'I' for Inactive)
REMARK    1  A    between atoms: N_1  and  C_2
REMARK    2  A    between atoms: C_2  and  C_3
REMARK    3  A    between atoms: C_3  and  O_4
REMARK    4  A    between atoms: O_4  and  C_5
REMARK    5  A    between atoms: C_8  and  C_9
REMARK    6  A    between atoms: C_9  and  N_10
REMARK    7  A    between atoms: C_15  and  C_16
REMARK    8  A    between atoms: C_16  and  O_18
REMARK                            x       y       z     vdW  Elec       q    Type
REMARK                         _______ _______ _______ _____ _____    ______ ____
ROOT
ATOM      1  C   UNL     1      49.052   7.719  13.567  0.00  0.00    +0.000 C 
ENDROOT
BRANCH   1   2
ATOM      2  N   UNL     1      49.722   7.470  14.866  0.00  0.00    +0.000 N 
ATOM      3  C   UNL     1      51.004   7.953  15.182  0.00  0.00    +0.000 A 
ATOM      4  N   UNL     1      50.968   8.011  16.467  0.00  0.00    +0.000 NA
ATOM      5  C   UNL     1      50.521   6.755  16.537  0.00  0.00    +0.000 A 
ATOM      6  C   UNL     1      51.380   5.673  16.851  0.00  0.00    +0.000 A 
ATOM      7  C   UNL     1      50.827   4.589  17.450  0.00  0.00    +0.000 A 
ATOM      8  C   UNL     1      49.453   4.599  17.474  0.00  0.00    +0.000 A 
ATOM      9  C   UNL     1      48.731   5.617  16.750  0.00  0.00    +0.000 A 
ATOM     10  C   UNL     1      49.214   6.558  15.792  0.00  0.00    +0.000 A 
BRANCH   7  11
ATOM     11  C   UNL     1      51.644   3.614  18.214  0.00  0.00    +0.000 C 
ATOM     12  O   UNL     1      52.085   2.603  17.694  0.00  0.00    +0.000 OA
BRANCH  11  13
ATOM     13  O   UNL     1      51.836   3.880  19.527  0.00  0.00    +0.000 OA
ATOM     14  H   UNL     1      51.834   3.147  20.165  0.00  0.00    +0.000 HD
ENDBRANCH  11  13
ENDBRANCH   7  11
ENDBRANCH   1   2
BRANCH   1  18
ATOM     15  C   UNL     1      45.091   6.297  12.226  0.00  0.00    +0.000 A 
ATOM     16  C   UNL     1      45.202   7.638  12.612  0.00  0.00    +0.000 A 
ATOM     17  C   UNL     1      46.437   8.200  13.079  0.00  0.00    +0.000 A 
ATOM     18  C   UNL     1      47.599   7.418  13.148  0.00  0.00    +0.000 A 
ATOM     19  C   UNL     1      47.403   6.041  12.865  0.00  0.00    +0.000 A 
ATOM     20  C   UNL     1      46.218   5.501  12.346  0.00  0.00    +0.000 A 
BRANCH  15  21
ATOM     21  O   UNL     1      43.936   5.651  11.858  0.00  0.00    +0.000 OA
BRANCH  21  22
ATOM     22  C   UNL     1      44.081   4.551  10.953  0.00  0.00    +0.000 C 
BRANCH  22  23
ATOM     23  C   UNL     1      43.273   3.338  11.446  0.00  0.00    +0.000 C 
BRANCH  23  24
ATOM     24  N   UNL     1      44.008   2.594  12.473  0.00  0.00    +0.000 NA
ATOM     25  H   UNL     1      44.001   3.117  13.348  0.00  0.00    +0.000 HD
ATOM     26  H   UNL     1      44.988   2.512  12.200  0.00  0.00    +0.000 HD
ENDBRANCH  23  24
ENDBRANCH  22  23
ENDBRANCH  21  22
ENDBRANCH  15  21
ENDBRANCH   1  18
TORSDOF 8
ENDMDL
