MODEL 1
REMARK VINA RESULT:    -7.875      0.000      0.000
REMARK INTER + INTRA:         -12.400
REMARK INTER:                 -11.097
REMARK INTRA:                  -1.302
REMARK UNBOUND:                -1.302
REMARK  Name = 
REMARK  8 active torsions:
REMARK  status: ('A' for Active; 'I' for Inactive)
REMARK    1  A    between atoms: C_1  and  O_2
REMARK    2  A    between atoms: O_2  and  C_3
REMARK    3  A    between atoms: C_5  and  C_6
REMARK    4  A    between atoms: C_6  and  N_7
REMARK    5  A    between atoms: C_8  and  C_10
REMARK    6  A    between atoms: C_17  and  C_18
REMARK    7  A    between atoms: C_18  and  N_19
REMARK    8  A    between atoms: C_20  and  C_22
REMARK                            x       y       z     vdW  Elec       q    Type
REMARK                         _______ _______ _______ _____ _____    ______ ____
ROOT
ATOM      1  C   UNL     1      46.844   5.407  13.199  0.00  0.00    +0.000 A 
ATOM      2  C   UNL     1      45.892   4.680  12.468  0.00  0.00    +0.000 A 
ATOM      3  C   UNL     1      45.043   5.316  11.547  0.00  0.00    +0.000 A 
ATOM      4  C   UNL     1      45.173   6.694  11.350  0.00  0.00    +0.000 A 
ATOM      5  C   UNL     1      46.115   7.425  12.077  0.00  0.00    +0.000 A 
ATOM      6  C   UNL     1      46.952   6.799  13.016  0.00  0.00    +0.000 A 
ENDROOT
BRANCH   1   8
ATOM      7  C   UNL     1      47.108   3.935  15.052  0.00  0.00    +0.000 C 
ATOM      8  O   UNL     1      47.687   4.849  14.127  0.00  0.00    +0.000 OA
ENDBRANCH   1   8
BRANCH   3   9
ATOM      9  C   UNL     1      44.047   4.517  10.746  0.00  0.00    +0.000 C 
BRANCH   9  10
ATOM     10  N   UNL     1      44.701   3.465  10.006  0.00  0.00    +0.000 N 
ATOM     11  C   UNL     1      45.325   3.709   8.808  0.00  0.00    +0.000 C 
ATOM     12  O   UNL     1      45.331   4.816   8.279  0.00  0.00    +0.000 OA
ATOM     13  H   UNL     1      44.795   2.564  10.449  0.00  0.00    +0.000 HD
BRANCH  11  14
ATOM     14  C   UNL     1      45.980   2.571   8.217  0.00  0.00    +0.000 A 
ATOM     15  C   UNL     1      46.940   2.435   7.230  0.00  0.00    +0.000 A 
ATOM     16  C   UNL     1      47.161   1.051   7.118  0.00  0.00    +0.000 A 
ATOM     17  N   UNL     1      46.408   0.349   7.961  0.00  0.00    +0.000 NA
ATOM     18  N   UNL     1      45.704   1.288   8.616  0.00  0.00    +0.000 N 
ATOM     19  H   UNL     1      45.042   0.997   9.331  0.00  0.00    +0.000 HD
ENDBRANCH  11  14
ENDBRANCH   9  10
ENDBRANCH   3   9
BRANCH   6  20
ATOM     20  C   UNL     1      47.990   7.635  13.733  0.00  0.00    +0.000 C 
BRANCH  20  21
ATOM     21  N   UNL     1      47.899   7.448  15.164  0.00  0.00    +0.000 N 
ATOM     22  C   UNL     1      48.993   7.369  15.983  0.00  0.00    +0.000 C 
ATOM     23  O   UNL     1      50.142   7.418  15.554  0.00  0.00    +0.000 OA
ATOM     24  H   UNL     1      46.967   7.386  15.553  0.00  0.00    +0.000 HD
BRANCH  22  25
ATOM     25  C   UNL     1      48.716   7.286  17.424  0.00  0.00    +0.000 A 
ATOM     26  C   UNL     1      48.232   8.396  18.104  0.00  0.00    +0.000 A 
ATOM     27  S   UNL     1      47.892   8.095  19.750  0.00  0.00    +0.000 S 
ATOM     28  C   UNL     1      48.430   6.486  19.623  0.00  0.00    +0.000 A 
ATOM     29  N   UNL     1      48.405   5.653  20.699  0.00  0.00    +0.000 NA
ATOM     30  C   UNL     1      48.873   4.472  20.471  0.00  0.00    +0.000 A 
ATOM     31  N   UNL     1      49.371   4.049  19.267  0.00  0.00    +0.000 N 
ATOM     32  C   UNL     1      49.397   4.849  18.148  0.00  0.00    +0.000 A 
ATOM     33  O   UNL     1      49.820   4.418  17.080  0.00  0.00    +0.000 OA
ATOM     34  C   UNL     1      48.869   6.185  18.347  0.00  0.00    +0.000 A 
ATOM     35  H   UNL     1      49.726   3.113  19.152  0.00  0.00    +0.000 HD
ENDBRANCH  22  25
ENDBRANCH  20  21
ENDBRANCH   6  20
TORSDOF 7
ENDMDL
MODEL 2
REMARK VINA RESULT:    -7.839      1.863      2.626
REMARK INTER + INTRA:         -12.349
REMARK INTER:                 -11.232
REMARK INTRA:                  -1.117
REMARK UNBOUND:                -1.302
REMARK  Name = 
REMARK  8 active torsions:
REMARK  status: ('A' for Active; 'I' for Inactive)
REMARK    1  A    between atoms: C_1  and  O_2
REMARK    2  A    between atoms: O_2  and  C_3
REMARK    3  A    between atoms: C_5  and  C_6
REMARK    4  A    between atoms: C_6  and  N_7
REMARK    5  A    between atoms: C_8  and  C_10
REMARK    6  A    between atoms: C_17  and  C_18
REMARK    7  A    between atoms: C_18  and  N_19
REMARK    8  A    between atoms: C_20  and  C_22
REMARK                            x       y       z     vdW  Elec       q    Type
REMARK                         _______ _______ _______ _____ _____    ______ ____
ROOT
ATOM      1  C   UNL     1      45.279   8.055  12.280  0.00  0.00    +0.000 A 
ATOM      2  C   UNL     1      44.521   7.265  11.401  0.00  0.00    +0.000 A 
ATOM      3  C   UNL     1      44.965   5.996  10.997  0.00  0.00    +0.000 A 
ATOM      4  C   UNL     1      46.176   5.513  11.502  0.00  0.00    +0.000 A 
ATOM      5  C   UNL     1      46.938   6.294  12.373  0.00  0.00    +0.000 A 
ATOM      6  C   UNL     1      46.511   7.574  12.764  0.00  0.00    +0.000 A 
ENDROOT
BRANCH   1   8
ATOM      7  C   UNL     1      44.889  10.332  11.705  0.00  0.00    +0.000 C 
ATOM      8  O   UNL     1      44.911   9.309  12.694  0.00  0.00    +0.000 OA
ENDBRANCH   1   8
BRANCH   3   9
ATOM      9  C   UNL     1      44.125   5.147  10.078  0.00  0.00    +0.000 C 
BRANCH   9  10
ATOM     10  N   UNL     1      44.943   4.481   9.094  0.00  0.00    +0.000 N 
ATOM     11  C   UNL     1      45.104   3.118   9.095  0.00  0.00    +0.000 C 
ATOM     12  O   UNL     1      44.601   2.394   9.949  0.00  0.00    +0.000 OA
ATOM     13  H   UNL     1      45.299   5.030   8.326  0.00  0.00    +0.000 HD
BRANCH  11  14
ATOM     14  C   UNL     1      45.904   2.595   8.018  0.00  0.00    +0.000 A 
ATOM     15  C   UNL     1      46.357   3.133   6.826  0.00  0.00    +0.000 A 
ATOM     16  C   UNL     1      47.100   2.105   6.217  0.00  0.00    +0.000 A 
ATOM     17  N   UNL     1      47.123   0.996   6.951  0.00  0.00    +0.000 NA
ATOM     18  N   UNL     1      46.396   1.315   8.035  0.00  0.00    +0.000 N 
ATOM     19  H   UNL     1      46.265   0.618   8.762  0.00  0.00    +0.000 HD
ENDBRANCH  11  14
ENDBRANCH   9  10
ENDBRANCH   3   9
BRANCH   6  20
ATOM     20  C   UNL     1      47.354   8.350  13.753  0.00  0.00    +0.000 C 
BRANCH  20  21
ATOM     21  N   UNL     1      47.746   7.511  14.863  0.00  0.00    +0.000 N 
ATOM     22  C   UNL     1      49.009   7.005  15.013  0.00  0.00    +0.000 C 
ATOM     23  O   UNL     1      49.900   7.201  14.192  0.00  0.00    +0.000 OA
ATOM     24  H   UNL     1      47.033   7.312  15.552  0.00  0.00    +0.000 HD
BRANCH  22  25
ATOM     25  C   UNL     1      49.262   6.260  16.255  0.00  0.00    +0.000 A 
ATOM     26  C   UNL     1      50.283   6.657  17.109  0.00  0.00    +0.000 A 
ATOM     27  S   UNL     1      50.380   5.728  18.537  0.00  0.00    +0.000 S 
ATOM     28  C   UNL     1      49.094   4.730  18.041  0.00  0.00    +0.000 A 
ATOM     29  N   UNL     1      48.658   3.708  18.827  0.00  0.00    +0.000 NA
ATOM     30  C   UNL     1      47.700   3.012  18.314  0.00  0.00    +0.000 A 
ATOM     31  N   UNL     1      47.142   3.239  17.084  0.00  0.00    +0.000 N 
ATOM     32  C   UNL     1      47.536   4.273  16.265  0.00  0.00    +0.000 A 
ATOM     33  O   UNL     1      46.985   4.462  15.186  0.00  0.00    +0.000 OA
ATOM     34  C   UNL     1      48.603   5.095  16.801  0.00  0.00    +0.000 A 
ATOM     35  H   UNL     1      46.396   2.657  16.736  0.00  0.00    +0.000 HD
ENDBRANCH  22  25
ENDBRANCH  20  21
ENDBRANCH   6  20
TORSDOF 7
ENDMDL
MODEL 3
REMARK VINA RESULT:    -7.593      4.317      9.386
REMARK INTER + INTRA:         -12.003
REMARK INTER:                 -10.799
REMARK INTRA:                  -1.204
REMARK UNBOUND:                -1.302
REMARK  Name = 
REMARK  8 active torsions:
REMARK  status: ('A' for Active; 'I' for Inactive)
REMARK    1  A    between atoms: C_1  and  O_2
REMARK    2  A    between atoms: O_2  and  C_3
REMARK    3  A    between atoms: C_5  and  C_6
REMARK    4  A    between atoms: C_6  and  N_7
REMARK    5  A    between atoms: C_8  and  C_10
REMARK    6  A    between atoms: C_17  and  C_18
REMARK    7  A    between atoms: C_18  and  N_19
REMARK    8  A    between atoms: C_20  and  C_22
REMARK                            x       y       z     vdW  Elec       q    Type
REMARK                         _______ _______ _______ _____ _____    ______ ____
ROOT
ATOM      1  C   UNL     1      49.280   4.399  17.797  0.00  0.00    +0.000 A 
ATOM      2  C   UNL     1      50.654   4.232  18.028  0.00  0.00    +0.000 A 
ATOM      3  C   UNL     1      51.303   3.026  17.715  0.00  0.00    +0.000 A 
ATOM      4  C   UNL     1      50.559   1.989  17.144  0.00  0.00    +0.000 A 
ATOM      5  C   UNL     1      49.191   2.146  16.915  0.00  0.00    +0.000 A 
ATOM      6  C   UNL     1      48.531   3.341  17.246  0.00  0.00    +0.000 A 
ENDROOT
BRANCH   1   8
ATOM      7  C   UNL     1      49.146   6.772  17.656  0.00  0.00    +0.000 C 
ATOM      8  O   UNL     1      48.585   5.542  18.100  0.00  0.00    +0.000 OA
ENDBRANCH   1   8
BRANCH   3   9
ATOM      9  C   UNL     1      52.785   2.873  17.939  0.00  0.00    +0.000 C 
BRANCH   9  10
ATOM     10  N   UNL     1      53.089   1.601  18.547  0.00  0.00    +0.000 N 
ATOM     11  C   UNL     1      53.923   0.694  17.940  0.00  0.00    +0.000 C 
ATOM     12  O   UNL     1      54.422   0.891  16.837  0.00  0.00    +0.000 OA
ATOM     13  H   UNL     1      52.771   1.440  19.491  0.00  0.00    +0.000 HD
BRANCH  11  14
ATOM     14  C   UNL     1      54.174  -0.506  18.696  0.00  0.00    +0.000 A 
ATOM     15  C   UNL     1      55.319  -1.066  19.233  0.00  0.00    +0.000 A 
ATOM     16  C   UNL     1      54.891  -2.248  19.864  0.00  0.00    +0.000 A 
ATOM     17  N   UNL     1      53.580  -2.438  19.743  0.00  0.00    +0.000 NA
ATOM     18  N   UNL     1      53.167  -1.373  19.036  0.00  0.00    +0.000 N 
ATOM     19  H   UNL     1      52.180  -1.285  18.809  0.00  0.00    +0.000 HD
ENDBRANCH  11  14
ENDBRANCH   9  10
ENDBRANCH   3   9
BRANCH   6  20
ATOM     20  C   UNL     1      47.058   3.470  16.925  0.00  0.00    +0.000 C 
BRANCH  20  21
ATOM     21  N   UNL     1      46.843   4.457  15.891  0.00  0.00    +0.000 N 
ATOM     22  C   UNL     1      46.952   4.183  14.554  0.00  0.00    +0.000 C 
ATOM     23  O   UNL     1      47.276   3.077  14.133  0.00  0.00    +0.000 OA
ATOM     24  H   UNL     1      46.591   5.387  16.200  0.00  0.00    +0.000 HD
BRANCH  22  25
ATOM     25  C   UNL     1      46.595   5.277  13.640  0.00  0.00    +0.000 A 
ATOM     26  C   UNL     1      47.501   6.299  13.390  0.00  0.00    +0.000 A 
ATOM     27  S   UNL     1      46.949   7.439  12.246  0.00  0.00    +0.000 S 
ATOM     28  C   UNL     1      45.458   6.636  12.084  0.00  0.00    +0.000 A 
ATOM     29  N   UNL     1      44.500   7.101  11.236  0.00  0.00    +0.000 NA
ATOM     30  C   UNL     1      43.407   6.416  11.238  0.00  0.00    +0.000 A 
ATOM     31  N   UNL     1      43.179   5.311  12.015  0.00  0.00    +0.000 N 
ATOM     32  C   UNL     1      44.125   4.792  12.869  0.00  0.00    +0.000 A 
ATOM     33  O   UNL     1      43.892   3.779  13.521  0.00  0.00    +0.000 OA
ATOM     34  C   UNL     1      45.379   5.519  12.896  0.00  0.00    +0.000 A 
ATOM     35  H   UNL     1      42.301   4.818  11.973  0.00  0.00    +0.000 HD
ENDBRANCH  22  25
ENDBRANCH  20  21
ENDBRANCH   6  20
TORSDOF 7
ENDMDL
MODEL 4
REMARK VINA RESULT:    -7.426      1.522      2.348
REMARK INTER + INTRA:         -11.767
REMARK INTER:                 -10.561
REMARK INTRA:                  -1.206
REMARK UNBOUND:                -1.302
REMARK  Name = 
REMARK  8 active torsions:
REMARK  status: ('A' for Active; 'I' for Inactive)
REMARK    1  A    between atoms: C_1  and  O_2
REMARK    2  A    between atoms: O_2  and  C_3
REMARK    3  A    between atoms: C_5  and  C_6
REMARK    4  A    between atoms: C_6  and  N_7
REMARK    5  A    between atoms: C_8  and  C_10
REMARK    6  A    between atoms: C_17  and  C_18
REMARK    7  A    between atoms: C_18  and  N_19
REMARK    8  A    between atoms: C_20  and  C_22
REMARK                            x       y       z     vdW  Elec       q    Type
REMARK                         _______ _______ _______ _____ _____    ______ ____
ROOT
ATOM      1  C   UNL     1      46.936   5.288  13.550  0.00  0.00    +0.000 A 
ATOM      2  C   UNL     1      45.960   4.726  12.712  0.00  0.00    +0.000 A 
ATOM      3  C   UNL     1      45.475   5.422  11.593  0.00  0.00    +0.000 A 
ATOM      4  C   UNL     1      45.996   6.687  11.308  0.00  0.00    +0.000 A 
ATOM      5  C   UNL     1      46.963   7.255  12.138  0.00  0.00    +0.000 A 
ATOM      6  C   UNL     1      47.438   6.574  13.272  0.00  0.00    +0.000 A 
ENDROOT
BRANCH   1   8
ATOM      7  C   UNL     1      47.321   3.252  14.723  0.00  0.00    +0.000 C 
ATOM      8  O   UNL     1      47.435   4.669  14.668  0.00  0.00    +0.000 OA
ENDBRANCH   1   8
BRANCH   3   9
ATOM      9  C   UNL     1      44.450   4.792  10.685  0.00  0.00    +0.000 C 
BRANCH   9  10
ATOM     10  N   UNL     1      45.023   3.703   9.932  0.00  0.00    +0.000 N 
ATOM     11  C   UNL     1      45.648   3.911   8.728  0.00  0.00    +0.000 C 
ATOM     12  O   UNL     1      45.721   5.018   8.204  0.00  0.00    +0.000 OA
ATOM     13  H   UNL     1      45.062   2.794  10.370  0.00  0.00    +0.000 HD
BRANCH  11  14
ATOM     14  C   UNL     1      46.219   2.735   8.124  0.00  0.00    +0.000 A 
ATOM     15  C   UNL     1      47.105   2.540   7.080  0.00  0.00    +0.000 A 
ATOM     16  C   UNL     1      47.266   1.145   6.989  0.00  0.00    +0.000 A 
ATOM     17  N   UNL     1      46.544   0.493   7.895  0.00  0.00    +0.000 NA
ATOM     18  N   UNL     1      45.921   1.472   8.572  0.00  0.00    +0.000 N 
ATOM     19  H   UNL     1      45.297   1.225   9.335  0.00  0.00    +0.000 HD
ENDBRANCH  11  14
ENDBRANCH   9  10
ENDBRANCH   3   9
BRANCH   6  20
ATOM     20  C   UNL     1      48.526   7.219  14.103  0.00  0.00    +0.000 C 
BRANCH  20  21
ATOM     21  N   UNL     1      48.162   7.235  15.502  0.00  0.00    +0.000 N 
ATOM     22  C   UNL     1      48.956   6.722  16.492  0.00  0.00    +0.000 C 
ATOM     23  O   UNL     1      50.030   6.177  16.259  0.00  0.00    +0.000 OA
ATOM     24  H   UNL     1      47.273   7.662  15.732  0.00  0.00    +0.000 HD
BRANCH  22  25
ATOM     25  C   UNL     1      48.479   6.920  17.868  0.00  0.00    +0.000 A 
ATOM     26  C   UNL     1      48.416   5.843  18.744  0.00  0.00    +0.000 A 
ATOM     27  S   UNL     1      47.916   6.271  20.319  0.00  0.00    +0.000 S 
ATOM     28  C   UNL     1      47.714   7.900  19.871  0.00  0.00    +0.000 A 
ATOM     29  N   UNL     1      47.296   8.828  20.776  0.00  0.00    +0.000 NA
ATOM     30  C   UNL     1      47.153  10.016  20.293  0.00  0.00    +0.000 A 
ATOM     31  N   UNL     1      47.383  10.362  18.988  0.00  0.00    +0.000 N 
ATOM     32  C   UNL     1      47.828   9.464  18.045  0.00  0.00    +0.000 A 
ATOM     33  O   UNL     1      48.055   9.824  16.895  0.00  0.00    +0.000 OA
ATOM     34  C   UNL     1      48.017   8.114  18.539  0.00  0.00    +0.000 A 
ATOM     35  H   UNL     1      47.251  11.310  18.670  0.00  0.00    +0.000 HD
ENDBRANCH  22  25
ENDBRANCH  20  21
ENDBRANCH   6  20
TORSDOF 7
ENDMDL
MODEL 5
REMARK VINA RESULT:    -7.272      3.209      4.126
REMARK INTER + INTRA:         -11.551
REMARK INTER:                 -10.370
REMARK INTRA:                  -1.181
REMARK UNBOUND:                -1.302
REMARK  Name = 
REMARK  8 active torsions:
REMARK  status: ('A' for Active; 'I' for Inactive)
REMARK    1  A    between atoms: C_1  and  O_2
REMARK    2  A    between atoms: O_2  and  C_3
REMARK    3  A    between atoms: C_5  and  C_6
REMARK    4  A    between atoms: C_6  and  N_7
REMARK    5  A    between atoms: C_8  and  C_10
REMARK    6  A    between atoms: C_17  and  C_18
REMARK    7  A    between atoms: C_18  and  N_19
REMARK    8  A    between atoms: C_20  and  C_22
REMARK                            x       y       z     vdW  Elec       q    Type
REMARK                         _______ _______ _______ _____ _____    ______ ____
ROOT
ATOM      1  C   UNL     1      46.177   5.511  13.160  0.00  0.00    +0.000 A 
ATOM      2  C   UNL     1      45.585   4.360  12.618  0.00  0.00    +0.000 A 
ATOM      3  C   UNL     1      44.578   4.449  11.644  0.00  0.00    +0.000 A 
ATOM      4  C   UNL     1      44.180   5.714  11.199  0.00  0.00    +0.000 A 
ATOM      5  C   UNL     1      44.760   6.865  11.736  0.00  0.00    +0.000 A 
ATOM      6  C   UNL     1      45.753   6.783  12.727  0.00  0.00    +0.000 A 
ENDROOT
BRANCH   1   8
ATOM      7  C   UNL     1      47.110   4.411  15.053  0.00  0.00    +0.000 C 
ATOM      8  O   UNL     1      47.148   5.491  14.128  0.00  0.00    +0.000 OA
ENDBRANCH   1   8
BRANCH   3   9
ATOM      9  C   UNL     1      43.975   3.203  11.048  0.00  0.00    +0.000 C 
BRANCH   9  10
ATOM     10  N   UNL     1      44.888   2.577  10.122  0.00  0.00    +0.000 N 
ATOM     11  C   UNL     1      45.022   3.023   8.831  0.00  0.00    +0.000 C 
ATOM     12  O   UNL     1      44.351   3.945   8.378  0.00  0.00    +0.000 OA
ATOM     13  H   UNL     1      45.518   1.876  10.481  0.00  0.00    +0.000 HD
BRANCH  11  14
ATOM     14  C   UNL     1      46.011   2.332   8.045  0.00  0.00    +0.000 A 
ATOM     15  C   UNL     1      46.945   2.752   7.115  0.00  0.00    +0.000 A 
ATOM     16  C   UNL     1      47.617   1.583   6.714  0.00  0.00    +0.000 A 
ATOM     17  N   UNL     1      47.156   0.498   7.331  0.00  0.00    +0.000 NA
ATOM     18  N   UNL     1      46.188   0.974   8.132  0.00  0.00    +0.000 N 
ATOM     19  H   UNL     1      45.673   0.326   8.721  0.00  0.00    +0.000 HD
ENDBRANCH  11  14
ENDBRANCH   9  10
ENDBRANCH   3   9
BRANCH   6  20
ATOM     20  C   UNL     1      46.382   8.064  13.231  0.00  0.00    +0.000 C 
BRANCH  20  21
ATOM     21  N   UNL     1      47.816   8.036  13.054  0.00  0.00    +0.000 N 
ATOM     22  C   UNL     1      48.521   9.051  12.465  0.00  0.00    +0.000 C 
ATOM     23  O   UNL     1      47.978  10.054  12.012  0.00  0.00    +0.000 OA
ATOM     24  H   UNL     1      48.298   7.216  13.400  0.00  0.00    +0.000 HD
BRANCH  22  25
ATOM     25  C   UNL     1      49.983   8.904  12.464  0.00  0.00    +0.000 A 
ATOM     26  C   UNL     1      50.717   9.255  11.338  0.00  0.00    +0.000 A 
ATOM     27  S   UNL     1      52.404   9.094  11.543  0.00  0.00    +0.000 S 
ATOM     28  C   UNL     1      52.210   8.499  13.125  0.00  0.00    +0.000 A 
ATOM     29  N   UNL     1      53.289   8.160  13.882  0.00  0.00    +0.000 NA
ATOM     30  C   UNL     1      52.996   7.691  15.048  0.00  0.00    +0.000 A 
ATOM     31  N   UNL     1      51.723   7.524  15.526  0.00  0.00    +0.000 N 
ATOM     32  C   UNL     1      50.604   7.873  14.805  0.00  0.00    +0.000 A 
ATOM     33  O   UNL     1      49.483   7.739  15.284  0.00  0.00    +0.000 OA
ATOM     34  C   UNL     1      50.878   8.418  13.489  0.00  0.00    +0.000 A 
ATOM     35  H   UNL     1      51.558   7.150  16.447  0.00  0.00    +0.000 HD
ENDBRANCH  22  25
ENDBRANCH  20  21
ENDBRANCH   6  20
TORSDOF 7
ENDMDL
MODEL 6
REMARK VINA RESULT:    -7.012      4.285      9.241
REMARK INTER + INTRA:         -11.183
REMARK INTER:                  -9.674
REMARK INTRA:                  -1.509
REMARK UNBOUND:                -1.302
REMARK  Name = 
REMARK  8 active torsions:
REMARK  status: ('A' for Active; 'I' for Inactive)
REMARK    1  A    between atoms: C_1  and  O_2
REMARK    2  A    between atoms: O_2  and  C_3
REMARK    3  A    between atoms: C_5  and  C_6
REMARK    4  A    between atoms: C_6  and  N_7
REMARK    5  A    between atoms: C_8  and  C_10
REMARK    6  A    between atoms: C_17  and  C_18
REMARK    7  A    between atoms: C_18  and  N_19
REMARK    8  A    between atoms: C_20  and  C_22
REMARK                            x       y       z     vdW  Elec       q    Type
REMARK                         _______ _______ _______ _____ _____    ______ ____
ROOT
ATOM      1  C   UNL     1      49.361   4.434  17.803  0.00  0.00    +0.000 A 
ATOM      2  C   UNL     1      50.733   4.299  18.066  0.00  0.00    +0.000 A 
ATOM      3  C   UNL     1      51.417   3.110  17.765  0.00  0.00    +0.000 A 
ATOM      4  C   UNL     1      50.712   2.057  17.175  0.00  0.00    +0.000 A 
ATOM      5  C   UNL     1      49.346   2.181  16.914  0.00  0.00    +0.000 A 
ATOM      6  C   UNL     1      48.651   3.359  17.233  0.00  0.00    +0.000 A 
ENDROOT
BRANCH   1   8
ATOM      7  C   UNL     1      48.828   6.138  19.378  0.00  0.00    +0.000 C 
ATOM      8  O   UNL     1      48.632   5.559  18.093  0.00  0.00    +0.000 OA
ENDBRANCH   1   8
BRANCH   3   9
ATOM      9  C   UNL     1      52.898   2.992  18.023  0.00  0.00    +0.000 C 
BRANCH   9  10
ATOM     10  N   UNL     1      53.218   1.727  18.639  0.00  0.00    +0.000 N 
ATOM     11  C   UNL     1      54.081   0.838  18.050  0.00  0.00    +0.000 C 
ATOM     12  O   UNL     1      54.596   1.043  16.955  0.00  0.00    +0.000 OA
ATOM     13  H   UNL     1      52.886   1.561  19.578  0.00  0.00    +0.000 HD
BRANCH  11  14
ATOM     14  C   UNL     1      54.344  -0.355  18.812  0.00  0.00    +0.000 A 
ATOM     15  C   UNL     1      54.325  -1.703  18.501  0.00  0.00    +0.000 A 
ATOM     16  C   UNL     1      54.685  -2.361  19.691  0.00  0.00    +0.000 A 
ATOM     17  N   UNL     1      54.916  -1.511  20.688  0.00  0.00    +0.000 NA
ATOM     18  N   UNL     1      54.707  -0.305  20.134  0.00  0.00    +0.000 N 
ATOM     19  H   UNL     1      54.824   0.526  20.706  0.00  0.00    +0.000 HD
ENDBRANCH  11  14
ENDBRANCH   9  10
ENDBRANCH   3   9
BRANCH   6  20
ATOM     20  C   UNL     1      47.182   3.453  16.877  0.00  0.00    +0.000 C 
BRANCH  20  21
ATOM     21  N   UNL     1      46.965   4.454  15.857  0.00  0.00    +0.000 N 
ATOM     22  C   UNL     1      46.999   4.181  14.516  0.00  0.00    +0.000 C 
ATOM     23  O   UNL     1      47.252   3.063  14.077  0.00  0.00    +0.000 OA
ATOM     24  H   UNL     1      46.771   5.393  16.180  0.00  0.00    +0.000 HD
BRANCH  22  25
ATOM     25  C   UNL     1      46.650   5.294  13.622  0.00  0.00    +0.000 A 
ATOM     26  C   UNL     1      45.534   5.202  12.799  0.00  0.00    +0.000 A 
ATOM     27  S   UNL     1      45.237   6.616  11.890  0.00  0.00    +0.000 S 
ATOM     28  C   UNL     1      46.619   7.380  12.524  0.00  0.00    +0.000 A 
ATOM     29  N   UNL     1      46.951   8.646  12.150  0.00  0.00    +0.000 NA
ATOM     30  C   UNL     1      48.041   9.090  12.681  0.00  0.00    +0.000 A 
ATOM     31  N   UNL     1      48.832   8.382  13.547  0.00  0.00    +0.000 N 
ATOM     32  C   UNL     1      48.524   7.109  13.969  0.00  0.00    +0.000 A 
ATOM     33  O   UNL     1      49.243   6.524  14.772  0.00  0.00    +0.000 OA
ATOM     34  C   UNL     1      47.301   6.567  13.410  0.00  0.00    +0.000 A 
ATOM     35  H   UNL     1      49.675   8.784  13.927  0.00  0.00    +0.000 HD
ENDBRANCH  22  25
ENDBRANCH  20  21
ENDBRANCH   6  20
TORSDOF 7
ENDMDL
MODEL 7
REMARK VINA RESULT:    -6.852      3.290      5.090
REMARK INTER + INTRA:         -10.958
REMARK INTER:                  -9.344
REMARK INTRA:                  -1.614
REMARK UNBOUND:                -1.302
REMARK  Name = 
REMARK  8 active torsions:
REMARK  status: ('A' for Active; 'I' for Inactive)
REMARK    1  A    between atoms: C_1  and  O_2
REMARK    2  A    between atoms: O_2  and  C_3
REMARK    3  A    between atoms: C_5  and  C_6
REMARK    4  A    between atoms: C_6  and  N_7
REMARK    5  A    between atoms: C_8  and  C_10
REMARK    6  A    between atoms: C_17  and  C_18
REMARK    7  A    between atoms: C_18  and  N_19
REMARK    8  A    between atoms: C_20  and  C_22
REMARK                            x       y       z     vdW  Elec       q    Type
REMARK                         _______ _______ _______ _____ _____    ______ ____
ROOT
ATOM      1  C   UNL     1      46.471   6.461  12.693  0.00  0.00    +0.000 A 
ATOM      2  C   UNL     1      45.657   5.745  11.801  0.00  0.00    +0.000 A 
ATOM      3  C   UNL     1      45.455   4.364  11.950  0.00  0.00    +0.000 A 
ATOM      4  C   UNL     1      46.065   3.704  13.022  0.00  0.00    +0.000 A 
ATOM      5  C   UNL     1      46.880   4.407  13.911  0.00  0.00    +0.000 A 
ATOM      6  C   UNL     1      47.104   5.786  13.755  0.00  0.00    +0.000 A 
ENDROOT
BRANCH   1   8
ATOM      7  C   UNL     1      45.644   8.686  12.872  0.00  0.00    +0.000 C 
ATOM      8  O   UNL     1      46.725   7.804  12.590  0.00  0.00    +0.000 OA
ENDBRANCH   1   8
BRANCH   3   9
ATOM      9  C   UNL     1      44.553   3.615  11.003  0.00  0.00    +0.000 C 
BRANCH   9  10
ATOM     10  N   UNL     1      45.315   2.955   9.971  0.00  0.00    +0.000 N 
ATOM     11  C   UNL     1      45.350   3.432   8.685  0.00  0.00    +0.000 C 
ATOM     12  O   UNL     1      44.709   4.415   8.327  0.00  0.00    +0.000 OA
ATOM     13  H   UNL     1      45.925   2.198  10.245  0.00  0.00    +0.000 HD
BRANCH  11  14
ATOM     14  C   UNL     1      46.199   2.697   7.783  0.00  0.00    +0.000 A 
ATOM     15  C   UNL     1      46.929   3.055   6.664  0.00  0.00    +0.000 A 
ATOM     16  C   UNL     1      47.554   1.870   6.236  0.00  0.00    +0.000 A 
ATOM     17  N   UNL     1      47.253   0.832   7.012  0.00  0.00    +0.000 NA
ATOM     18  N   UNL     1      46.435   1.355   7.941  0.00  0.00    +0.000 N 
ATOM     19  H   UNL     1      46.061   0.748   8.666  0.00  0.00    +0.000 HD
ENDBRANCH  11  14
ENDBRANCH   9  10
ENDBRANCH   3   9
BRANCH   6  20
ATOM     20  C   UNL     1      47.953   6.503  14.782  0.00  0.00    +0.000 C 
BRANCH  20  21
ATOM     21  N   UNL     1      49.193   6.958  14.195  0.00  0.00    +0.000 N 
ATOM     22  C   UNL     1      49.640   8.249  14.287  0.00  0.00    +0.000 C 
ATOM     23  O   UNL     1      48.998   9.130  14.852  0.00  0.00    +0.000 OA
ATOM     24  H   UNL     1      49.743   6.264  13.705  0.00  0.00    +0.000 HD
BRANCH  22  25
ATOM     25  C   UNL     1      50.972   8.512  13.724  0.00  0.00    +0.000 A 
ATOM     26  C   UNL     1      51.961   9.084  14.514  0.00  0.00    +0.000 A 
ATOM     27  S   UNL     1      53.463   9.243  13.720  0.00  0.00    +0.000 S 
ATOM     28  C   UNL     1      52.831   8.604  12.277  0.00  0.00    +0.000 A 
ATOM     29  N   UNL     1      53.614   8.461  11.172  0.00  0.00    +0.000 NA
ATOM     30  C   UNL     1      52.997   7.996  10.138  0.00  0.00    +0.000 A 
ATOM     31  N   UNL     1      51.668   7.666  10.104  0.00  0.00    +0.000 N 
ATOM     32  C   UNL     1      50.844   7.773  11.201  0.00  0.00    +0.000 A 
ATOM     33  O   UNL     1      49.668   7.433  11.136  0.00  0.00    +0.000 OA
ATOM     34  C   UNL     1      51.491   8.280  12.396  0.00  0.00    +0.000 A 
ATOM     35  H   UNL     1      51.242   7.309   9.263  0.00  0.00    +0.000 HD
ENDBRANCH  22  25
ENDBRANCH  20  21
ENDBRANCH   6  20
TORSDOF 7
ENDMDL
MODEL 8
REMARK VINA RESULT:    -6.621      4.849      8.146
REMARK INTER + INTRA:         -10.633
REMARK INTER:                  -9.554
REMARK INTRA:                  -1.080
REMARK UNBOUND:                -1.302
REMARK  Name = 
REMARK  8 active torsions:
REMARK  status: ('A' for Active; 'I' for Inactive)
REMARK    1  A    between atoms: C_1  and  O_2
REMARK    2  A    between atoms: O_2  and  C_3
REMARK    3  A    between atoms: C_5  and  C_6
REMARK    4  A    between atoms: C_6  and  N_7
REMARK    5  A    between atoms: C_8  and  C_10
REMARK    6  A    between atoms: C_17  and  C_18
REMARK    7  A    between atoms: C_18  and  N_19
REMARK    8  A    between atoms: C_20  and  C_22
REMARK                            x       y       z     vdW  Elec       q    Type
REMARK                         _______ _______ _______ _____ _____    ______ ____
ROOT
ATOM      1  C   UNL     1      47.986   9.641  12.161  0.00  0.00    +0.000 A 
ATOM      2  C   UNL     1      49.330   9.767  11.774  0.00  0.00    +0.000 A 
ATOM      3  C   UNL     1      50.178   8.650  11.719  0.00  0.00    +0.000 A 
ATOM      4  C   UNL     1      49.658   7.392  12.039  0.00  0.00    +0.000 A 
ATOM      5  C   UNL     1      48.324   7.258  12.429  0.00  0.00    +0.000 A 
ATOM      6  C   UNL     1      47.476   8.375  12.507  0.00  0.00    +0.000 A 
ENDROOT
BRANCH   1   8
ATOM      7  C   UNL     1      46.827  11.401  11.054  0.00  0.00    +0.000 C 
ATOM      8  O   UNL     1      47.114  10.695  12.255  0.00  0.00    +0.000 OA
ENDBRANCH   1   8
BRANCH   3   9
ATOM      9  C   UNL     1      51.610   8.796  11.271  0.00  0.00    +0.000 C 
BRANCH   9  10
ATOM     10  N   UNL     1      51.880   7.969  10.120  0.00  0.00    +0.000 N 
ATOM     11  C   UNL     1      53.045   7.252  10.007  0.00  0.00    +0.000 C 
ATOM     12  O   UNL     1      53.936   7.302  10.849  0.00  0.00    +0.000 OA
ATOM     13  H   UNL     1      51.137   7.832   9.451  0.00  0.00    +0.000 HD
BRANCH  11  14
ATOM     14  C   UNL     1      53.146   6.431   8.828  0.00  0.00    +0.000 A 
ATOM     15  C   UNL     1      53.923   5.334   8.500  0.00  0.00    +0.000 A 
ATOM     16  C   UNL     1      53.537   4.988   7.192  0.00  0.00    +0.000 A 
ATOM     17  N   UNL     1      52.592   5.793   6.714  0.00  0.00    +0.000 NA
ATOM     18  N   UNL     1      52.369   6.655   7.720  0.00  0.00    +0.000 N 
ATOM     19  H   UNL     1      51.672   7.385   7.597  0.00  0.00    +0.000 HD
ENDBRANCH  11  14
ENDBRANCH   9  10
ENDBRANCH   3   9
BRANCH   6  20
ATOM     20  C   UNL     1      46.026   8.159  12.885  0.00  0.00    +0.000 C 
BRANCH  20  21
ATOM     21  N   UNL     1      45.607   6.813  12.566  0.00  0.00    +0.000 N 
ATOM     22  C   UNL     1      44.556   6.528  11.737  0.00  0.00    +0.000 C 
ATOM     23  O   UNL     1      43.864   7.404  11.225  0.00  0.00    +0.000 OA
ATOM     24  H   UNL     1      46.143   6.063  12.983  0.00  0.00    +0.000 HD
BRANCH  22  25
ATOM     25  C   UNL     1      44.337   5.106  11.438  0.00  0.00    +0.000 A 
ATOM     26  C   UNL     1      43.633   4.307  12.330  0.00  0.00    +0.000 A 
ATOM     27  S   UNL     1      43.408   2.706  11.783  0.00  0.00    +0.000 S 
ATOM     28  C   UNL     1      44.289   3.009  10.360  0.00  0.00    +0.000 A 
ATOM     29  N   UNL     1      44.475   2.032   9.431  0.00  0.00    +0.000 NA
ATOM     30  C   UNL     1      45.191   2.389   8.418  0.00  0.00    +0.000 A 
ATOM     31  N   UNL     1      45.742   3.632   8.250  0.00  0.00    +0.000 N 
ATOM     32  C   UNL     1      45.563   4.656   9.152  0.00  0.00    +0.000 A 
ATOM     33  O   UNL     1      46.046   5.764   8.946  0.00  0.00    +0.000 OA
ATOM     34  C   UNL     1      44.755   4.311  10.305  0.00  0.00    +0.000 A 
ATOM     35  H   UNL     1      46.295   3.850   7.436  0.00  0.00    +0.000 HD
ENDBRANCH  22  25
ENDBRANCH  20  21
ENDBRANCH   6  20
TORSDOF 7
ENDMDL
MODEL 9
REMARK VINA RESULT:    -6.560      3.413      8.268
REMARK INTER + INTRA:         -10.548
REMARK INTER:                  -9.552
REMARK INTRA:                  -0.995
REMARK UNBOUND:                -1.302
REMARK  Name = 
REMARK  8 active torsions:
REMARK  status: ('A' for Active; 'I' for Inactive)
REMARK    1  A    between atoms: C_1  and  O_2
REMARK    2  A    between atoms: O_2  and  C_3
REMARK    3  A    between atoms: C_5  and  C_6
REMARK    4  A    between atoms: C_6  and  N_7
REMARK    5  A    between atoms: C_8  and  C_10
REMARK    6  A    between atoms: C_17  and  C_18
REMARK    7  A    between atoms: C_18  and  N_19
REMARK    8  A    between atoms: C_20  and  C_22
REMARK                            x       y       z     vdW  Elec       q    Type
REMARK                         _______ _______ _______ _____ _____    ______ ____
ROOT
ATOM      1  C   UNL     1      50.065   6.390  16.529  0.00  0.00    +0.000 A 
ATOM      2  C   UNL     1      50.285   5.323  17.414  0.00  0.00    +0.000 A 
ATOM      3  C   UNL     1      49.312   4.331  17.612  0.00  0.00    +0.000 A 
ATOM      4  C   UNL     1      48.115   4.407  16.894  0.00  0.00    +0.000 A 
ATOM      5  C   UNL     1      47.886   5.467  16.015  0.00  0.00    +0.000 A 
ATOM      6  C   UNL     1      48.846   6.475  15.828  0.00  0.00    +0.000 A 
ENDROOT
BRANCH   1   8
ATOM      7  C   UNL     1      52.305   7.017  16.023  0.00  0.00    +0.000 C 
ATOM      8  O   UNL     1      50.965   7.401  16.308  0.00  0.00    +0.000 OA
ENDBRANCH   1   8
BRANCH   3   9
ATOM      9  C   UNL     1      49.576   3.174  18.542  0.00  0.00    +0.000 C 
BRANCH   9  10
ATOM     10  N   UNL     1      50.930   2.696  18.404  0.00  0.00    +0.000 N 
ATOM     11  C   UNL     1      51.279   1.792  17.431  0.00  0.00    +0.000 C 
ATOM     12  O   UNL     1      50.461   1.309  16.654  0.00  0.00    +0.000 OA
ATOM     13  H   UNL     1      51.646   3.135  18.964  0.00  0.00    +0.000 HD
BRANCH  11  14
ATOM     14  C   UNL     1      52.678   1.454  17.385  0.00  0.00    +0.000 A 
ATOM     15  C   UNL     1      53.836   2.174  17.617  0.00  0.00    +0.000 A 
ATOM     16  C   UNL     1      54.886   1.260  17.410  0.00  0.00    +0.000 A 
ATOM     17  N   UNL     1      54.445   0.052  17.070  0.00  0.00    +0.000 NA
ATOM     18  N   UNL     1      53.108   0.191  17.063  0.00  0.00    +0.000 N 
ATOM     19  H   UNL     1      52.531  -0.611  16.829  0.00  0.00    +0.000 HD
ENDBRANCH  11  14
ENDBRANCH   9  10
ENDBRANCH   3   9
BRANCH   6  20
ATOM     20  C   UNL     1      48.562   7.570  14.822  0.00  0.00    +0.000 C 
BRANCH  20  21
ATOM     21  N   UNL     1      47.360   7.279  14.073  0.00  0.00    +0.000 N 
ATOM     22  C   UNL     1      47.338   6.469  12.970  0.00  0.00    +0.000 C 
ATOM     23  O   UNL     1      48.352   5.951  12.513  0.00  0.00    +0.000 OA
ATOM     24  H   UNL     1      46.505   7.703  14.410  0.00  0.00    +0.000 HD
BRANCH  22  25
ATOM     25  C   UNL     1      46.012   6.197  12.396  0.00  0.00    +0.000 A 
ATOM     26  C   UNL     1      45.270   7.230  11.838  0.00  0.00    +0.000 A 
ATOM     27  S   UNL     1      43.794   6.718  11.151  0.00  0.00    +0.000 S 
ATOM     28  C   UNL     1      44.070   5.107  11.622  0.00  0.00    +0.000 A 
ATOM     29  N   UNL     1      43.169   4.129  11.332  0.00  0.00    +0.000 NA
ATOM     30  C   UNL     1      43.487   2.961  11.778  0.00  0.00    +0.000 A 
ATOM     31  N   UNL     1      44.622   2.681  12.493  0.00  0.00    +0.000 N 
ATOM     32  C   UNL     1      45.571   3.632  12.790  0.00  0.00    +0.000 A 
ATOM     33  O   UNL     1      46.590   3.330  13.402  0.00  0.00    +0.000 OA
ATOM     34  C   UNL     1      45.267   4.962  12.300  0.00  0.00    +0.000 A 
ATOM     35  H   UNL     1      44.815   1.745  12.817  0.00  0.00    +0.000 HD
ENDBRANCH  22  25
ENDBRANCH  20  21
ENDBRANCH   6  20
TORSDOF 7
ENDMDL
