MODEL 1
REMARK VINA RESULT:    -8.516      0.000      0.000
REMARK INTER + INTRA:         -13.382
REMARK INTER:                 -12.000
REMARK INTRA:                  -1.382
REMARK UNBOUND:                -1.382
REMARK  Name = 
REMARK  8 active torsions:
REMARK  status: ('A' for Active; 'I' for Inactive)
REMARK    1  A    between atoms: C_1  and  O_2
REMARK    2  A    between atoms: O_2  and  C_3
REMARK    3  A    between atoms: C_10  and  C_11
REMARK    4  A    between atoms: N_13  and  C_14
REMARK    5  A    between atoms: C_14  and  C_15
REMARK    6  A    between atoms: C_18  and  N_19
REMARK    7  A    between atoms: N_19  and  C_20
REMARK    8  A    between atoms: C_20  and  C_21
REMARK                            x       y       z     vdW  Elec       q    Type
REMARK                         _______ _______ _______ _____ _____    ______ ____
ROOT
ATOM      1  C   UNL     1      46.300   8.030  12.831  0.00  0.00    +0.000 C 
ENDROOT
BRANCH   1   2
ATOM      2  C   UNL     1      45.719   6.976  11.923  0.00  0.00    +0.000 A 
ATOM      3  C   UNL     1      44.473   6.397  12.200  0.00  0.00    +0.000 A 
ATOM      4  C   UNL     1      43.913   5.448  11.332  0.00  0.00    +0.000 A 
ATOM      5  C   UNL     1      44.585   5.057  10.171  0.00  0.00    +0.000 A 
ATOM      6  C   UNL     1      45.869   5.569   9.951  0.00  0.00    +0.000 A 
ATOM      7  C   UNL     1      46.427   6.527  10.803  0.00  0.00    +0.000 A 
BRANCH   5   8
ATOM      8  N   UNL     1      44.081   4.157   9.237  0.00  0.00    +0.000 N 
ATOM      9  H   UNL     1      44.137   4.515   8.285  0.00  0.00    +0.000 HD
BRANCH   8  10
ATOM     10  C   UNL     1      44.450   2.743   9.309  0.00  0.00    +0.000 C 
BRANCH  10  11
ATOM     11  C   UNL     1      45.510   2.439   8.261  0.00  0.00    +0.000 A 
ATOM     12  C   UNL     1      45.775   3.377   7.259  0.00  0.00    +0.000 A 
ATOM     13  C   UNL     1      46.746   3.095   6.305  0.00  0.00    +0.000 A 
ATOM     14  C   UNL     1      47.423   1.884   6.367  0.00  0.00    +0.000 A 
ATOM     15  C   UNL     1      47.098   1.004   7.386  0.00  0.00    +0.000 A 
ATOM     16  N   UNL     1      46.163   1.251   8.332  0.00  0.00    +0.000 NA
ENDBRANCH  10  11
ENDBRANCH   8  10
ENDBRANCH   5   8
ENDBRANCH   1   2
BRANCH   1  19
ATOM     17  C   UNL     1      48.216   7.101  14.065  0.00  0.00    +0.000 C 
ATOM     18  O   UNL     1      48.969   7.297  13.116  0.00  0.00    +0.000 OA
ATOM     19  N   UNL     1      46.890   7.437  14.002  0.00  0.00    +0.000 N 
ATOM     20  H   UNL     1      46.292   7.296  14.804  0.00  0.00    +0.000 HD
BRANCH  17  28
ATOM     21  C   UNL     1      47.280   4.297  15.837  0.00  0.00    +0.000 A 
ATOM     22  N   UNL     1      47.165   3.250  16.681  0.00  0.00    +0.000 NA
ATOM     23  C   UNL     1      48.015   3.175  17.709  0.00  0.00    +0.000 A 
ATOM     24  N   UNL     1      48.982   4.035  18.014  0.00  0.00    +0.000 NA
ATOM     25  C   UNL     1      49.069   5.058  17.146  0.00  0.00    +0.000 A 
ATOM     26  S   UNL     1      50.243   6.259  17.386  0.00  0.00    +0.000 S 
ATOM     27  C   UNL     1      49.748   7.091  15.990  0.00  0.00    +0.000 A 
ATOM     28  C   UNL     1      48.697   6.482  15.313  0.00  0.00    +0.000 A 
ATOM     29  C   UNL     1      48.276   5.274  16.023  0.00  0.00    +0.000 A 
BRANCH  21  31
ATOM     30  C   UNL     1      46.791   3.759  13.597  0.00  0.00    +0.000 C 
ATOM     31  O   UNL     1      46.380   4.405  14.798  0.00  0.00    +0.000 OA
ENDBRANCH  21  31
ENDBRANCH  17  28
ENDBRANCH   1  19
TORSDOF 7
ENDMDL
MODEL 2
REMARK VINA RESULT:    -7.587      1.986      2.818
REMARK INTER + INTRA:         -12.074
REMARK INTER:                 -11.226
REMARK INTRA:                  -0.848
REMARK UNBOUND:                -1.382
REMARK  Name = 
REMARK  8 active torsions:
REMARK  status: ('A' for Active; 'I' for Inactive)
REMARK    1  A    between atoms: C_1  and  O_2
REMARK    2  A    between atoms: O_2  and  C_3
REMARK    3  A    between atoms: C_10  and  C_11
REMARK    4  A    between atoms: N_13  and  C_14
REMARK    5  A    between atoms: C_14  and  C_15
REMARK    6  A    between atoms: C_18  and  N_19
REMARK    7  A    between atoms: N_19  and  C_20
REMARK    8  A    between atoms: C_20  and  C_21
REMARK                            x       y       z     vdW  Elec       q    Type
REMARK                         _______ _______ _______ _____ _____    ______ ____
ROOT
ATOM      1  C   UNL     1      47.378   6.708  13.460  0.00  0.00    +0.000 C 
ENDROOT
BRANCH   1   2
ATOM      2  C   UNL     1      46.510   5.972  12.472  0.00  0.00    +0.000 A 
ATOM      3  C   UNL     1      46.444   6.378  11.132  0.00  0.00    +0.000 A 
ATOM      4  C   UNL     1      45.671   5.667  10.203  0.00  0.00    +0.000 A 
ATOM      5  C   UNL     1      44.945   4.538  10.592  0.00  0.00    +0.000 A 
ATOM      6  C   UNL     1      44.940   4.196  11.949  0.00  0.00    +0.000 A 
ATOM      7  C   UNL     1      45.723   4.889  12.877  0.00  0.00    +0.000 A 
BRANCH   5   8
ATOM      8  N   UNL     1      44.190   3.753   9.726  0.00  0.00    +0.000 N 
ATOM      9  H   UNL     1      43.976   4.234   8.854  0.00  0.00    +0.000 HD
BRANCH   8  10
ATOM     10  C   UNL     1      44.555   2.354   9.499  0.00  0.00    +0.000 C 
BRANCH  10  11
ATOM     11  C   UNL     1      45.561   2.268   8.361  0.00  0.00    +0.000 A 
ATOM     12  C   UNL     1      45.664   3.325   7.453  0.00  0.00    +0.000 A 
ATOM     13  C   UNL     1      46.587   3.242   6.417  0.00  0.00    +0.000 A 
ATOM     14  C   UNL     1      47.378   2.106   6.305  0.00  0.00    +0.000 A 
ATOM     15  C   UNL     1      47.210   1.098   7.240  0.00  0.00    +0.000 A 
ATOM     16  N   UNL     1      46.326   1.151   8.263  0.00  0.00    +0.000 NA
ENDBRANCH  10  11
ENDBRANCH   8  10
ENDBRANCH   5   8
ENDBRANCH   1   2
BRANCH   1  19
ATOM     17  C   UNL     1      48.576   6.003  15.491  0.00  0.00    +0.000 C 
ATOM     18  O   UNL     1      49.585   6.613  15.151  0.00  0.00    +0.000 OA
ATOM     19  N   UNL     1      47.449   6.003  14.713  0.00  0.00    +0.000 N 
ATOM     20  H   UNL     1      46.618   5.519  15.023  0.00  0.00    +0.000 HD
BRANCH  17  28
ATOM     21  C   UNL     1      49.012   6.825  18.810  0.00  0.00    +0.000 A 
ATOM     22  N   UNL     1      49.075   6.874  20.157  0.00  0.00    +0.000 NA
ATOM     23  C   UNL     1      48.856   5.746  20.838  0.00  0.00    +0.000 A 
ATOM     24  N   UNL     1      48.583   4.546  20.335  0.00  0.00    +0.000 NA
ATOM     25  C   UNL     1      48.522   4.541  18.992  0.00  0.00    +0.000 A 
ATOM     26  S   UNL     1      48.193   3.089  18.176  0.00  0.00    +0.000 S 
ATOM     27  C   UNL     1      48.266   3.864  16.667  0.00  0.00    +0.000 A 
ATOM     28  C   UNL     1      48.532   5.227  16.743  0.00  0.00    +0.000 A 
ATOM     29  C   UNL     1      48.708   5.625  18.140  0.00  0.00    +0.000 A 
BRANCH  21  31
ATOM     30  C   UNL     1      48.151   8.829  17.919  0.00  0.00    +0.000 C 
ATOM     31  O   UNL     1      49.279   7.976  18.098  0.00  0.00    +0.000 OA
ENDBRANCH  21  31
ENDBRANCH  17  28
ENDBRANCH   1  19
TORSDOF 7
ENDMDL
MODEL 3
REMARK VINA RESULT:    -7.455      1.685      2.216
REMARK INTER + INTRA:         -11.887
REMARK INTER:                 -10.870
REMARK INTRA:                  -1.017
REMARK UNBOUND:                -1.382
REMARK  Name = 
REMARK  8 active torsions:
REMARK  status: ('A' for Active; 'I' for Inactive)
REMARK    1  A    between atoms: C_1  and  O_2
REMARK    2  A    between atoms: O_2  and  C_3
REMARK    3  A    between atoms: C_10  and  C_11
REMARK    4  A    between atoms: N_13  and  C_14
REMARK    5  A    between atoms: C_14  and  C_15
REMARK    6  A    between atoms: C_18  and  N_19
REMARK    7  A    between atoms: N_19  and  C_20
REMARK    8  A    between atoms: C_20  and  C_21
REMARK                            x       y       z     vdW  Elec       q    Type
REMARK                         _______ _______ _______ _____ _____    ______ ____
ROOT
ATOM      1  C   UNL     1      47.255   7.298  13.447  0.00  0.00    +0.000 C 
ENDROOT
BRANCH   1   2
ATOM      2  C   UNL     1      46.558   6.147  12.767  0.00  0.00    +0.000 A 
ATOM      3  C   UNL     1      45.940   6.317  11.520  0.00  0.00    +0.000 A 
ATOM      4  C   UNL     1      45.329   5.236  10.869  0.00  0.00    +0.000 A 
ATOM      5  C   UNL     1      45.321   3.965  11.448  0.00  0.00    +0.000 A 
ATOM      6  C   UNL     1      45.855   3.825  12.733  0.00  0.00    +0.000 A 
ATOM      7  C   UNL     1      46.481   4.894  13.382  0.00  0.00    +0.000 A 
BRANCH   5   8
ATOM      8  N   UNL     1      44.776   2.833  10.849  0.00  0.00    +0.000 N 
ATOM      9  H   UNL     1      44.117   2.351  11.458  0.00  0.00    +0.000 HD
BRANCH   8  10
ATOM     10  C   UNL     1      44.295   2.893   9.468  0.00  0.00    +0.000 C 
BRANCH  10  11
ATOM     11  C   UNL     1      45.416   2.498   8.520  0.00  0.00    +0.000 A 
ATOM     12  C   UNL     1      45.928   3.444   7.628  0.00  0.00    +0.000 A 
ATOM     13  C   UNL     1      46.955   3.078   6.765  0.00  0.00    +0.000 A 
ATOM     14  C   UNL     1      47.441   1.778   6.806  0.00  0.00    +0.000 A 
ATOM     15  C   UNL     1      46.876   0.896   7.713  0.00  0.00    +0.000 A 
ATOM     16  N   UNL     1      45.880   1.224   8.569  0.00  0.00    +0.000 NA
ENDBRANCH  10  11
ENDBRANCH   8  10
ENDBRANCH   5   8
ENDBRANCH   1   2
BRANCH   1  19
ATOM     17  C   UNL     1      48.922   7.514  15.244  0.00  0.00    +0.000 C 
ATOM     18  O   UNL     1      48.381   8.529  15.673  0.00  0.00    +0.000 OA
ATOM     19  N   UNL     1      48.426   6.851  14.154  0.00  0.00    +0.000 N 
ATOM     20  H   UNL     1      48.868   6.001  13.832  0.00  0.00    +0.000 HD
BRANCH  17  28
ATOM     21  C   UNL     1      49.489   5.029  17.564  0.00  0.00    +0.000 A 
ATOM     22  N   UNL     1      49.995   4.091  18.392  0.00  0.00    +0.000 NA
ATOM     23  C   UNL     1      51.322   4.017  18.522  0.00  0.00    +0.000 A 
ATOM     24  N   UNL     1      52.230   4.782  17.922  0.00  0.00    +0.000 NA
ATOM     25  C   UNL     1      51.687   5.697  17.101  0.00  0.00    +0.000 A 
ATOM     26  S   UNL     1      52.698   6.769  16.259  0.00  0.00    +0.000 S 
ATOM     27  C   UNL     1      51.368   7.511  15.509  0.00  0.00    +0.000 A 
ATOM     28  C   UNL     1      50.140   6.968  15.869  0.00  0.00    +0.000 A 
ATOM     29  C   UNL     1      50.334   5.894  16.844  0.00  0.00    +0.000 A 
BRANCH  21  31
ATOM     30  C   UNL     1      47.484   4.013  16.859  0.00  0.00    +0.000 C 
ATOM     31  O   UNL     1      48.119   5.140  17.457  0.00  0.00    +0.000 OA
ENDBRANCH  21  31
ENDBRANCH  17  28
ENDBRANCH   1  19
TORSDOF 7
ENDMDL
MODEL 4
REMARK VINA RESULT:    -7.311      1.869      2.318
REMARK INTER + INTRA:         -11.684
REMARK INTER:                 -10.700
REMARK INTRA:                  -0.985
REMARK UNBOUND:                -1.382
REMARK  Name = 
REMARK  8 active torsions:
REMARK  status: ('A' for Active; 'I' for Inactive)
REMARK    1  A    between atoms: C_1  and  O_2
REMARK    2  A    between atoms: O_2  and  C_3
REMARK    3  A    between atoms: C_10  and  C_11
REMARK    4  A    between atoms: N_13  and  C_14
REMARK    5  A    between atoms: C_14  and  C_15
REMARK    6  A    between atoms: C_18  and  N_19
REMARK    7  A    between atoms: N_19  and  C_20
REMARK    8  A    between atoms: C_20  and  C_21
REMARK                            x       y       z     vdW  Elec       q    Type
REMARK                         _______ _______ _______ _____ _____    ______ ____
ROOT
ATOM      1  C   UNL     1      48.257   7.374  13.520  0.00  0.00    +0.000 C 
ENDROOT
BRANCH   1   2
ATOM      2  C   UNL     1      47.284   6.407  12.893  0.00  0.00    +0.000 A 
ATOM      3  C   UNL     1      46.989   5.184  13.510  0.00  0.00    +0.000 A 
ATOM      4  C   UNL     1      46.052   4.304  12.949  0.00  0.00    +0.000 A 
ATOM      5  C   UNL     1      45.392   4.626  11.761  0.00  0.00    +0.000 A 
ATOM      6  C   UNL     1      45.761   5.804  11.103  0.00  0.00    +0.000 A 
ATOM      7  C   UNL     1      46.682   6.694  11.664  0.00  0.00    +0.000 A 
BRANCH   5   8
ATOM      8  N   UNL     1      44.419   3.831  11.163  0.00  0.00    +0.000 N 
ATOM      9  H   UNL     1      43.591   3.727  11.747  0.00  0.00    +0.000 HD
BRANCH   8  10
ATOM     10  C   UNL     1      44.069   4.035   9.756  0.00  0.00    +0.000 C 
BRANCH  10  11
ATOM     11  C   UNL     1      45.067   3.302   8.872  0.00  0.00    +0.000 A 
ATOM     12  C   UNL     1      45.808   4.020   7.929  0.00  0.00    +0.000 A 
ATOM     13  C   UNL     1      46.720   3.346   7.126  0.00  0.00    +0.000 A 
ATOM     14  C   UNL     1      46.867   1.973   7.275  0.00  0.00    +0.000 A 
ATOM     15  C   UNL     1      46.091   1.332   8.226  0.00  0.00    +0.000 A 
ATOM     16  N   UNL     1      45.199   1.960   9.027  0.00  0.00    +0.000 NA
ENDBRANCH  10  11
ENDBRANCH   8  10
ENDBRANCH   5   8
ENDBRANCH   1   2
BRANCH   1  19
ATOM     17  C   UNL     1      49.141   7.007  15.788  0.00  0.00    +0.000 C 
ATOM     18  O   UNL     1      50.224   6.637  15.345  0.00  0.00    +0.000 OA
ATOM     19  N   UNL     1      48.124   7.387  14.954  0.00  0.00    +0.000 N 
ATOM     20  H   UNL     1      47.249   7.717  15.336  0.00  0.00    +0.000 HD
BRANCH  17  28
ATOM     21  C   UNL     1      48.897   4.578  18.222  0.00  0.00    +0.000 A 
ATOM     22  N   UNL     1      48.807   3.860  19.360  0.00  0.00    +0.000 NA
ATOM     23  C   UNL     1      48.604   4.518  20.505  0.00  0.00    +0.000 A 
ATOM     24  N   UNL     1      48.469   5.832  20.661  0.00  0.00    +0.000 NA
ATOM     25  C   UNL     1      48.572   6.512  19.506  0.00  0.00    +0.000 A 
ATOM     26  S   UNL     1      48.415   8.201  19.515  0.00  0.00    +0.000 S 
ATOM     27  C   UNL     1      48.663   8.282  17.837  0.00  0.00    +0.000 A 
ATOM     28  C   UNL     1      48.875   7.046  17.237  0.00  0.00    +0.000 A 
ATOM     29  C   UNL     1      48.796   5.982  18.239  0.00  0.00    +0.000 A 
BRANCH  21  31
ATOM     30  C   UNL     1      47.868   3.319  16.518  0.00  0.00    +0.000 C 
ATOM     31  O   UNL     1      49.062   3.904  17.031  0.00  0.00    +0.000 OA
ENDBRANCH  21  31
ENDBRANCH  17  28
ENDBRANCH   1  19
TORSDOF 7
ENDMDL
MODEL 5
REMARK VINA RESULT:    -7.229      2.676      3.568
REMARK INTER + INTRA:         -11.570
REMARK INTER:                 -10.481
REMARK INTRA:                  -1.089
REMARK UNBOUND:                -1.382
REMARK  Name = 
REMARK  8 active torsions:
REMARK  status: ('A' for Active; 'I' for Inactive)
REMARK    1  A    between atoms: C_1  and  O_2
REMARK    2  A    between atoms: O_2  and  C_3
REMARK    3  A    between atoms: C_10  and  C_11
REMARK    4  A    between atoms: N_13  and  C_14
REMARK    5  A    between atoms: C_14  and  C_15
REMARK    6  A    between atoms: C_18  and  N_19
REMARK    7  A    between atoms: N_19  and  C_20
REMARK    8  A    between atoms: C_20  and  C_21
REMARK                            x       y       z     vdW  Elec       q    Type
REMARK                         _______ _______ _______ _____ _____    ______ ____
ROOT
ATOM      1  C   UNL     1      48.165   7.096  14.000  0.00  0.00    +0.000 C 
ENDROOT
BRANCH   1   2
ATOM      2  C   UNL     1      47.185   6.237  13.242  0.00  0.00    +0.000 A 
ATOM      3  C   UNL     1      46.951   4.908  13.622  0.00  0.00    +0.000 A 
ATOM      4  C   UNL     1      46.007   4.123  12.944  0.00  0.00    +0.000 A 
ATOM      5  C   UNL     1      45.279   4.646  11.873  0.00  0.00    +0.000 A 
ATOM      6  C   UNL     1      45.586   5.941  11.440  0.00  0.00    +0.000 A 
ATOM      7  C   UNL     1      46.513   6.736  12.122  0.00  0.00    +0.000 A 
BRANCH   5   8
ATOM      8  N   UNL     1      44.296   3.950  11.177  0.00  0.00    +0.000 N 
ATOM      9  H   UNL     1      43.436   3.852  11.715  0.00  0.00    +0.000 HD
BRANCH   8  10
ATOM     10  C   UNL     1      44.025   4.269   9.775  0.00  0.00    +0.000 C 
BRANCH  10  11
ATOM     11  C   UNL     1      45.042   3.568   8.887  0.00  0.00    +0.000 A 
ATOM     12  C   UNL     1      45.228   2.188   9.012  0.00  0.00    +0.000 A 
ATOM     13  C   UNL     1      46.157   1.552   8.197  0.00  0.00    +0.000 A 
ATOM     14  C   UNL     1      46.883   2.305   7.284  0.00  0.00    +0.000 A 
ATOM     15  C   UNL     1      46.647   3.668   7.226  0.00  0.00    +0.000 A 
ATOM     16  N   UNL     1      45.746   4.316   8.001  0.00  0.00    +0.000 NA
ENDBRANCH  10  11
ENDBRANCH   8  10
ENDBRANCH   5   8
ENDBRANCH   1   2
BRANCH   1  19
ATOM     17  C   UNL     1      49.082   6.514  16.209  0.00  0.00    +0.000 C 
ATOM     18  O   UNL     1      50.195   6.311  15.733  0.00  0.00    +0.000 OA
ATOM     19  N   UNL     1      48.033   6.905  15.420  0.00  0.00    +0.000 N 
ATOM     20  H   UNL     1      47.131   7.096  15.833  0.00  0.00    +0.000 HD
BRANCH  17  28
ATOM     21  C   UNL     1      47.765   8.556  18.653  0.00  0.00    +0.000 A 
ATOM     22  N   UNL     1      47.242   9.105  19.769  0.00  0.00    +0.000 NA
ATOM     23  C   UNL     1      47.197   8.358  20.875  0.00  0.00    +0.000 A 
ATOM     24  N   UNL     1      47.624   7.106  21.015  0.00  0.00    +0.000 NA
ATOM     25  C   UNL     1      48.131   6.594  19.881  0.00  0.00    +0.000 A 
ATOM     26  S   UNL     1      48.734   5.008  19.876  0.00  0.00    +0.000 S 
ATOM     27  C   UNL     1      49.131   5.111  18.228  0.00  0.00    +0.000 A 
ATOM     28  C   UNL     1      48.815   6.333  17.646  0.00  0.00    +0.000 A 
ATOM     29  C   UNL     1      48.236   7.230  18.647  0.00  0.00    +0.000 A 
BRANCH  21  31
ATOM     30  C   UNL     1      47.990  10.730  17.776  0.00  0.00    +0.000 C 
ATOM     31  O   UNL     1      47.854   9.335  17.519  0.00  0.00    +0.000 OA
ENDBRANCH  21  31
ENDBRANCH  17  28
ENDBRANCH   1  19
TORSDOF 7
ENDMDL
MODEL 6
REMARK VINA RESULT:    -7.105      2.301      3.758
REMARK INTER + INTRA:         -11.394
REMARK INTER:                 -10.425
REMARK INTRA:                  -0.970
REMARK UNBOUND:                -1.382
REMARK  Name = 
REMARK  8 active torsions:
REMARK  status: ('A' for Active; 'I' for Inactive)
REMARK    1  A    between atoms: C_1  and  O_2
REMARK    2  A    between atoms: O_2  and  C_3
REMARK    3  A    between atoms: C_10  and  C_11
REMARK    4  A    between atoms: N_13  and  C_14
REMARK    5  A    between atoms: C_14  and  C_15
REMARK    6  A    between atoms: C_18  and  N_19
REMARK    7  A    between atoms: N_19  and  C_20
REMARK    8  A    between atoms: C_20  and  C_21
REMARK                            x       y       z     vdW  Elec       q    Type
REMARK                         _______ _______ _______ _____ _____    ______ ____
ROOT
ATOM      1  C   UNL     1      47.184   4.031  15.026  0.00  0.00    +0.000 C 
ENDROOT
BRANCH   1   2
ATOM      2  C   UNL     1      46.565   4.397  13.701  0.00  0.00    +0.000 A 
ATOM      3  C   UNL     1      46.841   5.631  13.097  0.00  0.00    +0.000 A 
ATOM      4  C   UNL     1      46.300   5.954  11.844  0.00  0.00    +0.000 A 
ATOM      5  C   UNL     1      45.471   5.054  11.170  0.00  0.00    +0.000 A 
ATOM      6  C   UNL     1      45.124   3.865  11.822  0.00  0.00    +0.000 A 
ATOM      7  C   UNL     1      45.673   3.529  13.064  0.00  0.00    +0.000 A 
BRANCH   5   8
ATOM      8  N   UNL     1      44.930   5.278   9.908  0.00  0.00    +0.000 N 
ATOM      9  H   UNL     1      45.549   5.826   9.313  0.00  0.00    +0.000 HD
BRANCH   8  10
ATOM     10  C   UNL     1      44.304   4.178   9.173  0.00  0.00    +0.000 C 
BRANCH  10  11
ATOM     11  C   UNL     1      45.371   3.388   8.431  0.00  0.00    +0.000 A 
ATOM     12  C   UNL     1      45.495   2.016   8.661  0.00  0.00    +0.000 A 
ATOM     13  C   UNL     1      46.471   1.298   7.978  0.00  0.00    +0.000 A 
ATOM     14  C   UNL     1      47.303   1.966   7.090  0.00  0.00    +0.000 A 
ATOM     15  C   UNL     1      47.122   3.329   6.922  0.00  0.00    +0.000 A 
ATOM     16  N   UNL     1      46.178   4.054   7.566  0.00  0.00    +0.000 NA
ENDBRANCH  10  11
ENDBRANCH   8  10
ENDBRANCH   5   8
ENDBRANCH   1   2
BRANCH   1  19
ATOM     17  C   UNL     1      48.538   5.311  16.634  0.00  0.00    +0.000 C 
ATOM     18  O   UNL     1      49.360   4.404  16.719  0.00  0.00    +0.000 OA
ATOM     19  N   UNL     1      47.442   5.203  15.821  0.00  0.00    +0.000 N 
ATOM     20  H   UNL     1      46.791   5.972  15.741  0.00  0.00    +0.000 HD
BRANCH  17  28
ATOM     21  C   UNL     1      50.187   8.286  16.076  0.00  0.00    +0.000 A 
ATOM     22  N   UNL     1      50.677   9.543  16.093  0.00  0.00    +0.000 NA
ATOM     23  C   UNL     1      50.389  10.316  17.144  0.00  0.00    +0.000 A 
ATOM     24  N   UNL     1      49.664   9.984  18.208  0.00  0.00    +0.000 NA
ATOM     25  C   UNL     1      49.188   8.728  18.150  0.00  0.00    +0.000 A 
ATOM     26  S   UNL     1      48.248   8.130  19.429  0.00  0.00    +0.000 S 
ATOM     27  C   UNL     1      48.051   6.634  18.650  0.00  0.00    +0.000 A 
ATOM     28  C   UNL     1      48.680   6.554  17.413  0.00  0.00    +0.000 A 
ATOM     29  C   UNL     1      49.382   7.806  17.126  0.00  0.00    +0.000 A 
BRANCH  21  31
ATOM     30  C   UNL     1      49.803   7.752  13.814  0.00  0.00    +0.000 C 
ATOM     31  O   UNL     1      50.515   7.468  15.015  0.00  0.00    +0.000 OA
ENDBRANCH  21  31
ENDBRANCH  17  28
ENDBRANCH   1  19
TORSDOF 7
ENDMDL
MODEL 7
REMARK VINA RESULT:    -6.992      2.192      3.939
REMARK INTER + INTRA:         -11.236
REMARK INTER:                 -10.050
REMARK INTRA:                  -1.186
REMARK UNBOUND:                -1.382
REMARK  Name = 
REMARK  8 active torsions:
REMARK  status: ('A' for Active; 'I' for Inactive)
REMARK    1  A    between atoms: C_1  and  O_2
REMARK    2  A    between atoms: O_2  and  C_3
REMARK    3  A    between atoms: C_10  and  C_11
REMARK    4  A    between atoms: N_13  and  C_14
REMARK    5  A    between atoms: C_14  and  C_15
REMARK    6  A    between atoms: C_18  and  N_19
REMARK    7  A    between atoms: N_19  and  C_20
REMARK    8  A    between atoms: C_20  and  C_21
REMARK                            x       y       z     vdW  Elec       q    Type
REMARK                         _______ _______ _______ _____ _____    ______ ____
ROOT
ATOM      1  C   UNL     1      47.188   4.716  14.723  0.00  0.00    +0.000 C 
ENDROOT
BRANCH   1   2
ATOM      2  C   UNL     1      46.374   4.515  13.470  0.00  0.00    +0.000 A 
ATOM      3  C   UNL     1      45.983   5.609  12.685  0.00  0.00    +0.000 A 
ATOM      4  C   UNL     1      45.263   5.419  11.497  0.00  0.00    +0.000 A 
ATOM      5  C   UNL     1      44.917   4.135  11.068  0.00  0.00    +0.000 A 
ATOM      6  C   UNL     1      45.228   3.057  11.905  0.00  0.00    +0.000 A 
ATOM      7  C   UNL     1      45.961   3.237  13.082  0.00  0.00    +0.000 A 
BRANCH   5   8
ATOM      8  N   UNL     1      44.243   3.858   9.883  0.00  0.00    +0.000 N 
ATOM      9  H   UNL     1      43.245   4.045   9.952  0.00  0.00    +0.000 HD
BRANCH   8  10
ATOM     10  C   UNL     1      44.794   4.309   8.604  0.00  0.00    +0.000 C 
BRANCH  10  11
ATOM     11  C   UNL     1      45.707   3.235   8.035  0.00  0.00    +0.000 A 
ATOM     12  C   UNL     1      46.613   3.567   7.024  0.00  0.00    +0.000 A 
ATOM     13  C   UNL     1      47.447   2.581   6.509  0.00  0.00    +0.000 A 
ATOM     14  C   UNL     1      47.354   1.289   7.007  0.00  0.00    +0.000 A 
ATOM     15  C   UNL     1      46.426   1.037   8.004  0.00  0.00    +0.000 A 
ATOM     16  N   UNL     1      45.604   1.975   8.530  0.00  0.00    +0.000 NA
ENDBRANCH  10  11
ENDBRANCH   8  10
ENDBRANCH   5   8
ENDBRANCH   1   2
BRANCH   1  19
ATOM     17  C   UNL     1      48.635   6.504  15.599  0.00  0.00    +0.000 C 
ATOM     18  O   UNL     1      49.406   5.687  16.093  0.00  0.00    +0.000 OA
ATOM     19  N   UNL     1      47.523   6.104  14.908  0.00  0.00    +0.000 N 
ATOM     20  H   UNL     1      46.915   6.789  14.482  0.00  0.00    +0.000 HD
BRANCH  17  28
ATOM     21  C   UNL     1      48.609   9.132  13.369  0.00  0.00    +0.000 A 
ATOM     22  N   UNL     1      48.606  10.326  12.742  0.00  0.00    +0.000 NA
ATOM     23  C   UNL     1      48.824  11.421  13.475  0.00  0.00    +0.000 A 
ATOM     24  N   UNL     1      49.058  11.477  14.783  0.00  0.00    +0.000 NA
ATOM     25  C   UNL     1      49.046  10.269  15.371  0.00  0.00    +0.000 A 
ATOM     26  S   UNL     1      49.337  10.148  17.038  0.00  0.00    +0.000 S 
ATOM     27  C   UNL     1      49.148   8.460  16.998  0.00  0.00    +0.000 A 
ATOM     28  C   UNL     1      48.858   7.954  15.737  0.00  0.00    +0.000 A 
ATOM     29  C   UNL     1      48.820   9.040  14.757  0.00  0.00    +0.000 A 
BRANCH  21  31
ATOM     30  C   UNL     1      49.601   7.543  11.941  0.00  0.00    +0.000 C 
ATOM     31  O   UNL     1      48.427   7.993  12.612  0.00  0.00    +0.000 OA
ENDBRANCH  21  31
ENDBRANCH  17  28
ENDBRANCH   1  19
TORSDOF 7
ENDMDL
MODEL 8
REMARK VINA RESULT:    -6.784      4.073      8.893
REMARK INTER + INTRA:         -10.941
REMARK INTER:                 -10.017
REMARK INTRA:                  -0.924
REMARK UNBOUND:                -1.382
REMARK  Name = 
REMARK  8 active torsions:
REMARK  status: ('A' for Active; 'I' for Inactive)
REMARK    1  A    between atoms: C_1  and  O_2
REMARK    2  A    between atoms: O_2  and  C_3
REMARK    3  A    between atoms: C_10  and  C_11
REMARK    4  A    between atoms: N_13  and  C_14
REMARK    5  A    between atoms: C_14  and  C_15
REMARK    6  A    between atoms: C_18  and  N_19
REMARK    7  A    between atoms: N_19  and  C_20
REMARK    8  A    between atoms: C_20  and  C_21
REMARK                            x       y       z     vdW  Elec       q    Type
REMARK                         _______ _______ _______ _____ _____    ______ ____
ROOT
ATOM      1  C   UNL     1      47.288   3.475  16.848  0.00  0.00    +0.000 C 
ENDROOT
BRANCH   1   2
ATOM      2  C   UNL     1      48.761   3.436  17.164  0.00  0.00    +0.000 A 
ATOM      3  C   UNL     1      49.486   2.241  17.065  0.00  0.00    +0.000 A 
ATOM      4  C   UNL     1      50.865   2.214  17.317  0.00  0.00    +0.000 A 
ATOM      5  C   UNL     1      51.549   3.378  17.675  0.00  0.00    +0.000 A 
ATOM      6  C   UNL     1      50.803   4.547  17.865  0.00  0.00    +0.000 A 
ATOM      7  C   UNL     1      49.430   4.585  17.599  0.00  0.00    +0.000 A 
BRANCH   5   8
ATOM      8  N   UNL     1      52.921   3.446  17.899  0.00  0.00    +0.000 N 
ATOM      9  H   UNL     1      53.257   4.406  17.958  0.00  0.00    +0.000 HD
BRANCH   8  10
ATOM     10  C   UNL     1      53.541   2.590  18.911  0.00  0.00    +0.000 C 
BRANCH  10  11
ATOM     11  C   UNL     1      54.128   1.356  18.244  0.00  0.00    +0.000 A 
ATOM     12  C   UNL     1      54.722   1.471  16.984  0.00  0.00    +0.000 A 
ATOM     13  C   UNL     1      55.259   0.340  16.381  0.00  0.00    +0.000 A 
ATOM     14  C   UNL     1      55.183  -0.879  17.041  0.00  0.00    +0.000 A 
ATOM     15  C   UNL     1      54.572  -0.913  18.284  0.00  0.00    +0.000 A 
ATOM     16  N   UNL     1      54.046   0.170  18.900  0.00  0.00    +0.000 NA
ENDBRANCH  10  11
ENDBRANCH   8  10
ENDBRANCH   5   8
ENDBRANCH   1   2
BRANCH   1  19
ATOM     17  C   UNL     1      46.954   4.189  14.516  0.00  0.00    +0.000 C 
ATOM     18  O   UNL     1      47.163   3.053  14.101  0.00  0.00    +0.000 OA
ATOM     19  N   UNL     1      46.996   4.475  15.855  0.00  0.00    +0.000 N 
ATOM     20  H   UNL     1      46.793   5.409  16.181  0.00  0.00    +0.000 HD
BRANCH  17  28
ATOM     21  C   UNL     1      44.173   5.105  12.699  0.00  0.00    +0.000 A 
ATOM     22  N   UNL     1      43.235   5.716  11.945  0.00  0.00    +0.000 NA
ATOM     23  C   UNL     1      43.564   6.859  11.338  0.00  0.00    +0.000 A 
ATOM     24  N   UNL     1      44.738   7.482  11.382  0.00  0.00    +0.000 NA
ATOM     25  C   UNL     1      45.641   6.847  12.148  0.00  0.00    +0.000 A 
ATOM     26  S   UNL     1      47.201   7.494  12.312  0.00  0.00    +0.000 S 
ATOM     27  C   UNL     1      47.669   6.232  13.348  0.00  0.00    +0.000 A 
ATOM     28  C   UNL     1      46.665   5.304  13.597  0.00  0.00    +0.000 A 
ATOM     29  C   UNL     1      45.455   5.663  12.856  0.00  0.00    +0.000 A 
BRANCH  21  31
ATOM     30  C   UNL     1      43.702   2.819  12.381  0.00  0.00    +0.000 C 
ATOM     31  O   UNL     1      43.855   3.902  13.294  0.00  0.00    +0.000 OA
ENDBRANCH  21  31
ENDBRANCH  17  28
ENDBRANCH   1  19
TORSDOF 7
ENDMDL
MODEL 9
REMARK VINA RESULT:    -6.458      2.658      3.618
REMARK INTER + INTRA:         -10.482
REMARK INTER:                  -9.723
REMARK INTRA:                  -0.759
REMARK UNBOUND:                -1.382
REMARK  Name = 
REMARK  8 active torsions:
REMARK  status: ('A' for Active; 'I' for Inactive)
REMARK    1  A    between atoms: C_1  and  O_2
REMARK    2  A    between atoms: O_2  and  C_3
REMARK    3  A    between atoms: C_10  and  C_11
REMARK    4  A    between atoms: N_13  and  C_14
REMARK    5  A    between atoms: C_14  and  C_15
REMARK    6  A    between atoms: C_18  and  N_19
REMARK    7  A    between atoms: N_19  and  C_20
REMARK    8  A    between atoms: C_20  and  C_21
REMARK                            x       y       z     vdW  Elec       q    Type
REMARK                         _______ _______ _______ _____ _____    ______ ____
ROOT
ATOM      1  C   UNL     1      47.218   4.393  14.845  0.00  0.00    +0.000 C 
ENDROOT
BRANCH   1   2
ATOM      2  C   UNL     1      46.461   4.363  13.541  0.00  0.00    +0.000 A 
ATOM      3  C   UNL     1      46.305   5.525  12.774  0.00  0.00    +0.000 A 
ATOM      4  C   UNL     1      45.639   5.487  11.540  0.00  0.00    +0.000 A 
ATOM      5  C   UNL     1      45.113   4.290  11.048  0.00  0.00    +0.000 A 
ATOM      6  C   UNL     1      45.190   3.155  11.863  0.00  0.00    +0.000 A 
ATOM      7  C   UNL     1      45.867   3.181  13.086  0.00  0.00    +0.000 A 
BRANCH   5   8
ATOM      8  N   UNL     1      44.478   4.158   9.817  0.00  0.00    +0.000 N 
ATOM      9  H   UNL     1      43.520   4.503   9.837  0.00  0.00    +0.000 HD
BRANCH   8  10
ATOM     10  C   UNL     1      45.171   4.550   8.589  0.00  0.00    +0.000 C 
BRANCH  10  11
ATOM     11  C   UNL     1      45.895   3.346   8.007  0.00  0.00    +0.000 A 
ATOM     12  C   UNL     1      46.756   3.520   6.920  0.00  0.00    +0.000 A 
ATOM     13  C   UNL     1      47.417   2.416   6.393  0.00  0.00    +0.000 A 
ATOM     14  C   UNL     1      47.197   1.166   6.955  0.00  0.00    +0.000 A 
ATOM     15  C   UNL     1      46.323   1.073   8.025  0.00  0.00    +0.000 A 
ATOM     16  N   UNL     1      45.670   2.129   8.565  0.00  0.00    +0.000 NA
ENDBRANCH  10  11
ENDBRANCH   8  10
ENDBRANCH   5   8
ENDBRANCH   1   2
BRANCH   1  19
ATOM     17  C   UNL     1      48.637   6.084  15.935  0.00  0.00    +0.000 C 
ATOM     18  O   UNL     1      49.475   5.239  16.235  0.00  0.00    +0.000 OA
ATOM     19  N   UNL     1      47.501   5.746  15.249  0.00  0.00    +0.000 N 
ATOM     20  H   UNL     1      46.836   6.459  14.984  0.00  0.00    +0.000 HD
BRANCH  17  28
ATOM     21  C   UNL     1      48.893   7.724  18.955  0.00  0.00    +0.000 A 
ATOM     22  N   UNL     1      49.072   8.597  19.968  0.00  0.00    +0.000 NA
ATOM     23  C   UNL     1      49.264   9.883  19.663  0.00  0.00    +0.000 A 
ATOM     24  N   UNL     1      49.294  10.423  18.448  0.00  0.00    +0.000 NA
ATOM     25  C   UNL     1      49.119   9.521  17.467  0.00  0.00    +0.000 A 
ATOM     26  S   UNL     1      49.117  10.034  15.850  0.00  0.00    +0.000 S 
ATOM     27  C   UNL     1      48.879   8.446  15.295  0.00  0.00    +0.000 A 
ATOM     28  C   UNL     1      48.802   7.499  16.310  0.00  0.00    +0.000 A 
ATOM     29  C   UNL     1      48.923   8.151  17.615  0.00  0.00    +0.000 A 
BRANCH  21  31
ATOM     30  C   UNL     1      47.270   6.077  19.405  0.00  0.00    +0.000 C 
ATOM     31  O   UNL     1      48.651   6.402  19.263  0.00  0.00    +0.000 OA
ENDBRANCH  21  31
ENDBRANCH  17  28
ENDBRANCH   1  19
TORSDOF 7
ENDMDL
