MODEL 1
REMARK VINA RESULT:    -7.665      0.000      0.000
REMARK INTER + INTRA:         -10.773
REMARK INTER:                  -9.905
REMARK INTRA:                  -0.868
REMARK UNBOUND:                -0.868
REMARK  Name = 
REMARK  6 active torsions:
REMARK  status: ('A' for Active; 'I' for Inactive)
REMARK    1  A    between atoms: C_1  and  O_2
REMARK    2  A    between atoms: O_2  and  C_3
REMARK    3  A    between atoms: C_7  and  N_8
REMARK    4  A    between atoms: N_8  and  C_9
REMARK    5  A    between atoms: C_9  and  C_10
REMARK    6  A    between atoms: C_14  and  C_15
REMARK                            x       y       z     vdW  Elec       q    Type
REMARK                         _______ _______ _______ _____ _____    ______ ____
ROOT
ATOM      1  C   UNL     1      43.825   4.863  10.804  0.00  0.00    +0.000 A 
ATOM      2  C   UNL     1      43.186   3.900  11.593  0.00  0.00    +0.000 A 
ATOM      3  C   UNL     1      43.367   2.546  11.327  0.00  0.00    +0.000 A 
ATOM      4  C   UNL     1      44.191   2.142  10.274  0.00  0.00    +0.000 A 
ATOM      5  C   UNL     1      44.857   3.079   9.466  0.00  0.00    +0.000 A 
ATOM      6  C   UNL     1      44.672   4.442   9.764  0.00  0.00    +0.000 A 
ENDROOT
BRANCH   5   7
ATOM      7  C   UNL     1      45.686   2.655   8.320  0.00  0.00    +0.000 A 
ATOM      8  C   UNL     1      46.266   1.380   8.260  0.00  0.00    +0.000 A 
ATOM      9  N   UNL     1      47.019   0.907   7.235  0.00  0.00    +0.000 NA
ATOM     10  C   UNL     1      47.204   1.747   6.193  0.00  0.00    +0.000 A 
ATOM     11  C   UNL     1      46.676   3.022   6.144  0.00  0.00    +0.000 A 
ATOM     12  F   UNL     1      46.887   3.808   5.080  0.00  0.00    +0.000 F 
ATOM     13  C   UNL     1      45.916   3.484   7.213  0.00  0.00    +0.000 A 
ENDBRANCH   5   7
BRANCH   1  14
ATOM     14  C   UNL     1      43.574   6.333  11.038  0.00  0.00    +0.000 C 
BRANCH  14  15
ATOM     15  N   UNL     1      44.077   6.737  12.342  0.00  0.00    +0.000 N 
ATOM     16  H   UNL     1      43.463   6.484  13.114  0.00  0.00    +0.000 HD
BRANCH  15  21
ATOM     17  C   UNL     1      47.297   5.483  13.765  0.00  0.00    +0.000 A 
ATOM     18  C   UNL     1      48.151   6.253  12.987  0.00  0.00    +0.000 A 
ATOM     19  N   UNL     1      47.741   7.146  12.060  0.00  0.00    +0.000 NA
ATOM     20  C   UNL     1      46.399   7.273  11.910  0.00  0.00    +0.000 A 
ATOM     21  C   UNL     1      45.433   6.580  12.644  0.00  0.00    +0.000 A 
ATOM     22  C   UNL     1      45.923   5.648  13.569  0.00  0.00    +0.000 A 
BRANCH  17  24
ATOM     23  C   UNL     1      47.140   4.276  15.806  0.00  0.00    +0.000 C 
ATOM     24  O   UNL     1      47.890   4.628  14.650  0.00  0.00    +0.000 OA
ENDBRANCH  17  24
ENDBRANCH  15  21
ENDBRANCH  14  15
ENDBRANCH   1  14
TORSDOF 5
ENDMDL
MODEL 2
REMARK VINA RESULT:    -7.418      1.934      2.648
REMARK INTER + INTRA:         -10.454
REMARK INTER:                  -9.706
REMARK INTRA:                  -0.748
REMARK UNBOUND:                -0.868
REMARK  Name = 
REMARK  6 active torsions:
REMARK  status: ('A' for Active; 'I' for Inactive)
REMARK    1  A    between atoms: C_1  and  O_2
REMARK    2  A    between atoms: O_2  and  C_3
REMARK    3  A    between atoms: C_7  and  N_8
REMARK    4  A    between atoms: N_8  and  C_9
REMARK    5  A    between atoms: C_9  and  C_10
REMARK    6  A    between atoms: C_14  and  C_15
REMARK                            x       y       z     vdW  Elec       q    Type
REMARK                         _______ _______ _______ _____ _____    ______ ____
ROOT
ATOM      1  C   UNL     1      44.063   5.258  11.301  0.00  0.00    +0.000 A 
ATOM      2  C   UNL     1      43.306   4.362  12.065  0.00  0.00    +0.000 A 
ATOM      3  C   UNL     1      43.283   3.010  11.738  0.00  0.00    +0.000 A 
ATOM      4  C   UNL     1      44.019   2.539  10.648  0.00  0.00    +0.000 A 
ATOM      5  C   UNL     1      44.798   3.407   9.862  0.00  0.00    +0.000 A 
ATOM      6  C   UNL     1      44.819   4.767  10.223  0.00  0.00    +0.000 A 
ENDROOT
BRANCH   5   7
ATOM      7  C   UNL     1      45.532   2.919   8.678  0.00  0.00    +0.000 A 
ATOM      8  C   UNL     1      45.910   3.780   7.638  0.00  0.00    +0.000 A 
ATOM      9  N   UNL     1      46.605   3.416   6.530  0.00  0.00    +0.000 NA
ATOM     10  C   UNL     1      46.959   2.115   6.449  0.00  0.00    +0.000 A 
ATOM     11  C   UNL     1      46.645   1.181   7.417  0.00  0.00    +0.000 A 
ATOM     12  F   UNL     1      47.030  -0.095   7.285  0.00  0.00    +0.000 F 
ATOM     13  C   UNL     1      45.924   1.580   8.536  0.00  0.00    +0.000 A 
ENDBRANCH   5   7
BRANCH   1  14
ATOM     14  C   UNL     1      44.033   6.737  11.604  0.00  0.00    +0.000 C 
BRANCH  14  15
ATOM     15  N   UNL     1      44.833   7.035  12.781  0.00  0.00    +0.000 N 
ATOM     16  H   UNL     1      44.463   6.633  13.640  0.00  0.00    +0.000 HD
BRANCH  15  21
ATOM     17  C   UNL     1      48.414   7.911  12.167  0.00  0.00    +0.000 A 
ATOM     18  C   UNL     1      48.981   6.820  12.812  0.00  0.00    +0.000 A 
ATOM     19  N   UNL     1      48.274   5.834  13.407  0.00  0.00    +0.000 NA
ATOM     20  C   UNL     1      46.924   5.950  13.346  0.00  0.00    +0.000 A 
ATOM     21  C   UNL     1      46.228   6.981  12.707  0.00  0.00    +0.000 A 
ATOM     22  C   UNL     1      47.019   7.986  12.136  0.00  0.00    +0.000 A 
BRANCH  17  24
ATOM     23  C   UNL     1      48.783  10.119  11.370  0.00  0.00    +0.000 C 
ATOM     24  O   UNL     1      49.285   8.813  11.626  0.00  0.00    +0.000 OA
ENDBRANCH  17  24
ENDBRANCH  15  21
ENDBRANCH  14  15
ENDBRANCH   1  14
TORSDOF 5
ENDMDL
MODEL 3
REMARK VINA RESULT:    -7.340      3.068      6.687
REMARK INTER + INTRA:         -10.353
REMARK INTER:                  -9.552
REMARK INTRA:                  -0.801
REMARK UNBOUND:                -0.868
REMARK  Name = 
REMARK  6 active torsions:
REMARK  status: ('A' for Active; 'I' for Inactive)
REMARK    1  A    between atoms: C_1  and  O_2
REMARK    2  A    between atoms: O_2  and  C_3
REMARK    3  A    between atoms: C_7  and  N_8
REMARK    4  A    between atoms: N_8  and  C_9
REMARK    5  A    between atoms: C_9  and  C_10
REMARK    6  A    between atoms: C_14  and  C_15
REMARK                            x       y       z     vdW  Elec       q    Type
REMARK                         _______ _______ _______ _____ _____    ______ ____
ROOT
ATOM      1  C   UNL     1      44.708   4.939  11.761  0.00  0.00    +0.000 A 
ATOM      2  C   UNL     1      45.197   4.015  12.692  0.00  0.00    +0.000 A 
ATOM      3  C   UNL     1      46.332   4.311  13.441  0.00  0.00    +0.000 A 
ATOM      4  C   UNL     1      46.986   5.534  13.270  0.00  0.00    +0.000 A 
ATOM      5  C   UNL     1      46.519   6.490  12.352  0.00  0.00    +0.000 A 
ATOM      6  C   UNL     1      45.361   6.175  11.618  0.00  0.00    +0.000 A 
ENDROOT
BRANCH   5   7
ATOM      7  C   UNL     1      47.240   7.760  12.132  0.00  0.00    +0.000 A 
ATOM      8  C   UNL     1      46.641   9.002  12.382  0.00  0.00    +0.000 A 
ATOM      9  N   UNL     1      47.241  10.210  12.228  0.00  0.00    +0.000 NA
ATOM     10  C   UNL     1      48.525  10.188  11.808  0.00  0.00    +0.000 A 
ATOM     11  C   UNL     1      49.215   9.022  11.536  0.00  0.00    +0.000 A 
ATOM     12  F   UNL     1      50.490   9.064  11.129  0.00  0.00    +0.000 F 
ATOM     13  C   UNL     1      48.572   7.801  11.694  0.00  0.00    +0.000 A 
ENDBRANCH   5   7
BRANCH   1  14
ATOM     14  C   UNL     1      43.522   4.595  10.891  0.00  0.00    +0.000 C 
BRANCH  14  15
ATOM     15  N   UNL     1      43.872   4.699   9.484  0.00  0.00    +0.000 N 
ATOM     16  H   UNL     1      44.088   5.648   9.184  0.00  0.00    +0.000 HD
BRANCH  15  21
ATOM     17  C   UNL     1      46.620   3.038   7.571  0.00  0.00    +0.000 A 
ATOM     18  C   UNL     1      46.366   1.736   7.981  0.00  0.00    +0.000 A 
ATOM     19  N   UNL     1      45.362   1.381   8.814  0.00  0.00    +0.000 NA
ATOM     20  C   UNL     1      44.570   2.391   9.255  0.00  0.00    +0.000 A 
ATOM     21  C   UNL     1      44.701   3.737   8.899  0.00  0.00    +0.000 A 
ATOM     22  C   UNL     1      45.778   4.042   8.057  0.00  0.00    +0.000 A 
BRANCH  17  24
ATOM     23  C   UNL     1      47.931   2.174   5.787  0.00  0.00    +0.000 C 
ATOM     24  O   UNL     1      47.682   3.210   6.729  0.00  0.00    +0.000 OA
ENDBRANCH  17  24
ENDBRANCH  15  21
ENDBRANCH  14  15
ENDBRANCH   1  14
TORSDOF 5
ENDMDL
MODEL 4
REMARK VINA RESULT:    -7.337      3.506      7.355
REMARK INTER + INTRA:         -10.349
REMARK INTER:                  -9.595
REMARK INTRA:                  -0.754
REMARK UNBOUND:                -0.868
REMARK  Name = 
REMARK  6 active torsions:
REMARK  status: ('A' for Active; 'I' for Inactive)
REMARK    1  A    between atoms: C_1  and  O_2
REMARK    2  A    between atoms: O_2  and  C_3
REMARK    3  A    between atoms: C_7  and  N_8
REMARK    4  A    between atoms: N_8  and  C_9
REMARK    5  A    between atoms: C_9  and  C_10
REMARK    6  A    between atoms: C_14  and  C_15
REMARK                            x       y       z     vdW  Elec       q    Type
REMARK                         _______ _______ _______ _____ _____    ______ ____
ROOT
ATOM      1  C   UNL     1      45.163   5.451  11.876  0.00  0.00    +0.000 A 
ATOM      2  C   UNL     1      45.678   6.578  11.224  0.00  0.00    +0.000 A 
ATOM      3  C   UNL     1      46.787   7.239  11.741  0.00  0.00    +0.000 A 
ATOM      4  C   UNL     1      47.396   6.779  12.912  0.00  0.00    +0.000 A 
ATOM      5  C   UNL     1      46.914   5.646  13.589  0.00  0.00    +0.000 A 
ATOM      6  C   UNL     1      45.801   4.984  13.038  0.00  0.00    +0.000 A 
ENDROOT
BRANCH   5   7
ATOM      7  C   UNL     1      47.523   5.191  14.855  0.00  0.00    +0.000 A 
ATOM      8  C   UNL     1      48.565   5.900  15.470  0.00  0.00    +0.000 A 
ATOM      9  N   UNL     1      49.161   5.561  16.641  0.00  0.00    +0.000 NA
ATOM     10  C   UNL     1      48.690   4.452  17.252  0.00  0.00    +0.000 A 
ATOM     11  C   UNL     1      47.665   3.681  16.739  0.00  0.00    +0.000 A 
ATOM     12  F   UNL     1      47.234   2.595  17.394  0.00  0.00    +0.000 F 
ATOM     13  C   UNL     1      47.079   4.046  15.532  0.00  0.00    +0.000 A 
ENDBRANCH   5   7
BRANCH   1  14
ATOM     14  C   UNL     1      43.915   4.773  11.363  0.00  0.00    +0.000 C 
BRANCH  14  15
ATOM     15  N   UNL     1      43.894   4.772   9.909  0.00  0.00    +0.000 N 
ATOM     16  H   UNL     1      43.945   5.702   9.498  0.00  0.00    +0.000 HD
BRANCH  15  21
ATOM     17  C   UNL     1      46.369   3.139   7.634  0.00  0.00    +0.000 A 
ATOM     18  C   UNL     1      46.150   1.829   8.036  0.00  0.00    +0.000 A 
ATOM     19  N   UNL     1      45.250   1.460   8.975  0.00  0.00    +0.000 NA
ATOM     20  C   UNL     1      44.530   2.465   9.535  0.00  0.00    +0.000 A 
ATOM     21  C   UNL     1      44.634   3.819   9.203  0.00  0.00    +0.000 A 
ATOM     22  C   UNL     1      45.605   4.137   8.245  0.00  0.00    +0.000 A 
BRANCH  17  24
ATOM     23  C   UNL     1      47.907   2.156   6.112  0.00  0.00    +0.000 C 
ATOM     24  O   UNL     1      47.323   3.325   6.674  0.00  0.00    +0.000 OA
ENDBRANCH  17  24
ENDBRANCH  15  21
ENDBRANCH  14  15
ENDBRANCH   1  14
TORSDOF 5
ENDMDL
MODEL 5
REMARK VINA RESULT:    -7.144      1.918      2.753
REMARK INTER + INTRA:         -10.100
REMARK INTER:                  -9.394
REMARK INTRA:                  -0.707
REMARK UNBOUND:                -0.868
REMARK  Name = 
REMARK  6 active torsions:
REMARK  status: ('A' for Active; 'I' for Inactive)
REMARK    1  A    between atoms: C_1  and  O_2
REMARK    2  A    between atoms: O_2  and  C_3
REMARK    3  A    between atoms: C_7  and  N_8
REMARK    4  A    between atoms: N_8  and  C_9
REMARK    5  A    between atoms: C_9  and  C_10
REMARK    6  A    between atoms: C_14  and  C_15
REMARK                            x       y       z     vdW  Elec       q    Type
REMARK                         _______ _______ _______ _____ _____    ______ ____
ROOT
ATOM      1  C   UNL     1      44.981   6.077  12.065  0.00  0.00    +0.000 A 
ATOM      2  C   UNL     1      43.635   5.884  12.395  0.00  0.00    +0.000 A 
ATOM      3  C   UNL     1      42.863   4.973  11.679  0.00  0.00    +0.000 A 
ATOM      4  C   UNL     1      43.431   4.244  10.631  0.00  0.00    +0.000 A 
ATOM      5  C   UNL     1      44.782   4.403  10.277  0.00  0.00    +0.000 A 
ATOM      6  C   UNL     1      45.546   5.318  11.026  0.00  0.00    +0.000 A 
ENDROOT
BRANCH   5   7
ATOM      7  C   UNL     1      45.369   3.673   9.136  0.00  0.00    +0.000 A 
ATOM      8  C   UNL     1      45.871   4.342   8.011  0.00  0.00    +0.000 A 
ATOM      9  N   UNL     1      46.445   3.747   6.935  0.00  0.00    +0.000 NA
ATOM     10  C   UNL     1      46.538   2.400   6.977  0.00  0.00    +0.000 A 
ATOM     11  C   UNL     1      46.081   1.640   8.037  0.00  0.00    +0.000 A 
ATOM     12  F   UNL     1      46.207   0.307   8.025  0.00  0.00    +0.000 F 
ATOM     13  C   UNL     1      45.489   2.276   9.121  0.00  0.00    +0.000 A 
ENDBRANCH   5   7
BRANCH   1  14
ATOM     14  C   UNL     1      45.804   7.117  12.787  0.00  0.00    +0.000 C 
BRANCH  14  15
ATOM     15  N   UNL     1      47.166   6.647  12.984  0.00  0.00    +0.000 N 
ATOM     16  H   UNL     1      47.874   7.271  12.601  0.00  0.00    +0.000 HD
BRANCH  15  21
ATOM     17  C   UNL     1      47.474   4.331  15.902  0.00  0.00    +0.000 A 
ATOM     18  C   UNL     1      48.515   4.987  16.545  0.00  0.00    +0.000 A 
ATOM     19  N   UNL     1      49.094   6.122  16.095  0.00  0.00    +0.000 NA
ATOM     20  C   UNL     1      48.596   6.626  14.938  0.00  0.00    +0.000 A 
ATOM     21  C   UNL     1      47.537   6.081  14.207  0.00  0.00    +0.000 A 
ATOM     22  C   UNL     1      47.000   4.889  14.711  0.00  0.00    +0.000 A 
BRANCH  17  24
ATOM     23  C   UNL     1      47.621   2.824  17.733  0.00  0.00    +0.000 C 
ATOM     24  O   UNL     1      47.015   3.193  16.500  0.00  0.00    +0.000 OA
ENDBRANCH  17  24
ENDBRANCH  15  21
ENDBRANCH  14  15
ENDBRANCH   1  14
TORSDOF 5
ENDMDL
MODEL 6
REMARK VINA RESULT:    -6.555      2.528      4.392
REMARK INTER + INTRA:          -9.339
REMARK INTER:                  -8.804
REMARK INTRA:                  -0.534
REMARK UNBOUND:                -0.868
REMARK  Name = 
REMARK  6 active torsions:
REMARK  status: ('A' for Active; 'I' for Inactive)
REMARK    1  A    between atoms: C_1  and  O_2
REMARK    2  A    between atoms: O_2  and  C_3
REMARK    3  A    between atoms: C_7  and  N_8
REMARK    4  A    between atoms: N_8  and  C_9
REMARK    5  A    between atoms: C_9  and  C_10
REMARK    6  A    between atoms: C_14  and  C_15
REMARK                            x       y       z     vdW  Elec       q    Type
REMARK                         _______ _______ _______ _____ _____    ______ ____
ROOT
ATOM      1  C   UNL     1      47.001   7.079  12.898  0.00  0.00    +0.000 A 
ATOM      2  C   UNL     1      46.212   8.234  12.865  0.00  0.00    +0.000 A 
ATOM      3  C   UNL     1      45.089   8.291  12.046  0.00  0.00    +0.000 A 
ATOM      4  C   UNL     1      44.740   7.192  11.256  0.00  0.00    +0.000 A 
ATOM      5  C   UNL     1      45.502   6.011  11.270  0.00  0.00    +0.000 A 
ATOM      6  C   UNL     1      46.624   5.972  12.119  0.00  0.00    +0.000 A 
ENDROOT
BRANCH   5   7
ATOM      7  C   UNL     1      45.166   4.869  10.397  0.00  0.00    +0.000 A 
ATOM      8  C   UNL     1      44.371   3.806  10.846  0.00  0.00    +0.000 A 
ATOM      9  N   UNL     1      43.999   2.734  10.100  0.00  0.00    +0.000 NA
ATOM     10  C   UNL     1      44.433   2.717   8.821  0.00  0.00    +0.000 A 
ATOM     11  C   UNL     1      45.216   3.714   8.273  0.00  0.00    +0.000 A 
ATOM     12  F   UNL     1      45.611   3.646   6.994  0.00  0.00    +0.000 F 
ATOM     13  C   UNL     1      45.590   4.795   9.062  0.00  0.00    +0.000 A 
ENDBRANCH   5   7
BRANCH   1  14
ATOM     14  C   UNL     1      48.263   7.037  13.727  0.00  0.00    +0.000 C 
BRANCH  14  15
ATOM     15  N   UNL     1      47.946   6.850  15.134  0.00  0.00    +0.000 N 
ATOM     16  H   UNL     1      47.062   7.271  15.414  0.00  0.00    +0.000 HD
BRANCH  15  21
ATOM     17  C   UNL     1      49.117   4.190  17.484  0.00  0.00    +0.000 A 
ATOM     18  C   UNL     1      48.392   3.137  16.942  0.00  0.00    +0.000 A 
ATOM     19  N   UNL     1      47.575   3.245  15.871  0.00  0.00    +0.000 NA
ATOM     20  C   UNL     1      47.487   4.478  15.312  0.00  0.00    +0.000 A 
ATOM     21  C   UNL     1      48.182   5.613  15.741  0.00  0.00    +0.000 A 
ATOM     22  C   UNL     1      48.988   5.441  16.874  0.00  0.00    +0.000 A 
BRANCH  17  24
ATOM     23  C   UNL     1      49.879   4.835  19.640  0.00  0.00    +0.000 C 
ATOM     24  O   UNL     1      49.888   3.896  18.572  0.00  0.00    +0.000 OA
ENDBRANCH  17  24
ENDBRANCH  15  21
ENDBRANCH  14  15
ENDBRANCH   1  14
TORSDOF 5
ENDMDL
MODEL 7
REMARK VINA RESULT:    -6.527      3.286      7.104
REMARK INTER + INTRA:          -9.303
REMARK INTER:                  -8.585
REMARK INTRA:                  -0.718
REMARK UNBOUND:                -0.868
REMARK  Name = 
REMARK  6 active torsions:
REMARK  status: ('A' for Active; 'I' for Inactive)
REMARK    1  A    between atoms: C_1  and  O_2
REMARK    2  A    between atoms: O_2  and  C_3
REMARK    3  A    between atoms: C_7  and  N_8
REMARK    4  A    between atoms: N_8  and  C_9
REMARK    5  A    between atoms: C_9  and  C_10
REMARK    6  A    between atoms: C_14  and  C_15
REMARK                            x       y       z     vdW  Elec       q    Type
REMARK                         _______ _______ _______ _____ _____    ______ ____
ROOT
ATOM      1  C   UNL     1      44.851   5.802  11.789  0.00  0.00    +0.000 A 
ATOM      2  C   UNL     1      44.182   6.959  11.373  0.00  0.00    +0.000 A 
ATOM      3  C   UNL     1      44.753   8.211  11.583  0.00  0.00    +0.000 A 
ATOM      4  C   UNL     1      45.999   8.318  12.206  0.00  0.00    +0.000 A 
ATOM      5  C   UNL     1      46.705   7.179  12.629  0.00  0.00    +0.000 A 
ATOM      6  C   UNL     1      46.115   5.923  12.391  0.00  0.00    +0.000 A 
ENDROOT
BRANCH   5   7
ATOM      7  C   UNL     1      47.997   7.293  13.335  0.00  0.00    +0.000 A 
ATOM      8  C   UNL     1      48.237   6.631  14.547  0.00  0.00    +0.000 A 
ATOM      9  N   UNL     1      49.401   6.666  15.245  0.00  0.00    +0.000 NA
ATOM     10  C   UNL     1      50.399   7.399  14.703  0.00  0.00    +0.000 A 
ATOM     11  C   UNL     1      50.274   8.088  13.512  0.00  0.00    +0.000 A 
ATOM     12  F   UNL     1      51.302   8.792  13.021  0.00  0.00    +0.000 F 
ATOM     13  C   UNL     1      49.067   8.041  12.825  0.00  0.00    +0.000 A 
ENDBRANCH   5   7
BRANCH   1  14
ATOM     14  C   UNL     1      44.205   4.447  11.632  0.00  0.00    +0.000 C 
BRANCH  14  15
ATOM     15  N   UNL     1      43.739   4.256  10.268  0.00  0.00    +0.000 N 
ATOM     16  H   UNL     1      43.291   5.079   9.869  0.00  0.00    +0.000 HD
BRANCH  15  21
ATOM     17  C   UNL     1      45.986   3.437   7.396  0.00  0.00    +0.000 A 
ATOM     18  C   UNL     1      46.245   2.117   7.738  0.00  0.00    +0.000 A 
ATOM     19  N   UNL     1      45.727   1.494   8.820  0.00  0.00    +0.000 NA
ATOM     20  C   UNL     1      44.900   2.239   9.596  0.00  0.00    +0.000 A 
ATOM     21  C   UNL     1      44.537   3.567   9.350  0.00  0.00    +0.000 A 
ATOM     22  C   UNL     1      45.131   4.162   8.230  0.00  0.00    +0.000 A 
BRANCH  17  24
ATOM     23  C   UNL     1      47.170   2.929   5.399  0.00  0.00    +0.000 C 
ATOM     24  O   UNL     1      46.601   3.901   6.268  0.00  0.00    +0.000 OA
ENDBRANCH  17  24
ENDBRANCH  15  21
ENDBRANCH  14  15
ENDBRANCH   1  14
TORSDOF 5
ENDMDL
MODEL 8
REMARK VINA RESULT:    -6.295      3.699      7.779
REMARK INTER + INTRA:          -9.002
REMARK INTER:                  -8.286
REMARK INTRA:                  -0.716
REMARK UNBOUND:                -0.868
REMARK  Name = 
REMARK  6 active torsions:
REMARK  status: ('A' for Active; 'I' for Inactive)
REMARK    1  A    between atoms: C_1  and  O_2
REMARK    2  A    between atoms: O_2  and  C_3
REMARK    3  A    between atoms: C_7  and  N_8
REMARK    4  A    between atoms: N_8  and  C_9
REMARK    5  A    between atoms: C_9  and  C_10
REMARK    6  A    between atoms: C_14  and  C_15
REMARK                            x       y       z     vdW  Elec       q    Type
REMARK                         _______ _______ _______ _____ _____    ______ ____
ROOT
ATOM      1  C   UNL     1      47.453   7.070  12.746  0.00  0.00    +0.000 A 
ATOM      2  C   UNL     1      48.564   7.888  12.512  0.00  0.00    +0.000 A 
ATOM      3  C   UNL     1      49.601   7.941  13.438  0.00  0.00    +0.000 A 
ATOM      4  C   UNL     1      49.540   7.175  14.604  0.00  0.00    +0.000 A 
ATOM      5  C   UNL     1      48.445   6.334  14.870  0.00  0.00    +0.000 A 
ATOM      6  C   UNL     1      47.417   6.284  13.910  0.00  0.00    +0.000 A 
ENDROOT
BRANCH   5   7
ATOM      7  C   UNL     1      48.354   5.565  16.126  0.00  0.00    +0.000 A 
ATOM      8  C   UNL     1      49.026   5.968  17.289  0.00  0.00    +0.000 A 
ATOM      9  N   UNL     1      48.976   5.330  18.486  0.00  0.00    +0.000 NA
ATOM     10  C   UNL     1      48.201   4.225  18.542  0.00  0.00    +0.000 A 
ATOM     11  C   UNL     1      47.492   3.741  17.460  0.00  0.00    +0.000 A 
ATOM     12  F   UNL     1      46.734   2.643  17.577  0.00  0.00    +0.000 F 
ATOM     13  C   UNL     1      47.570   4.409  16.243  0.00  0.00    +0.000 A 
ENDBRANCH   5   7
BRANCH   1  14
ATOM     14  C   UNL     1      46.290   7.064  11.782  0.00  0.00    +0.000 C 
BRANCH  14  15
ATOM     15  N   UNL     1      45.093   6.548  12.427  0.00  0.00    +0.000 N 
ATOM     16  H   UNL     1      44.374   7.252  12.579  0.00  0.00    +0.000 HD
BRANCH  15  21
ATOM     17  C   UNL     1      44.227   3.496  10.452  0.00  0.00    +0.000 A 
ATOM     18  C   UNL     1      43.668   2.761  11.489  0.00  0.00    +0.000 A 
ATOM     19  N   UNL     1      43.549   3.204  12.760  0.00  0.00    +0.000 NA
ATOM     20  C   UNL     1      44.015   4.456  12.999  0.00  0.00    +0.000 A 
ATOM     21  C   UNL     1      44.575   5.308  12.042  0.00  0.00    +0.000 A 
ATOM     22  C   UNL     1      44.696   4.778  10.751  0.00  0.00    +0.000 A 
BRANCH  17  24
ATOM     23  C   UNL     1      45.398   2.062   8.961  0.00  0.00    +0.000 C 
ATOM     24  O   UNL     1      44.268   2.884   9.232  0.00  0.00    +0.000 OA
ENDBRANCH  17  24
ENDBRANCH  15  21
ENDBRANCH  14  15
ENDBRANCH   1  14
TORSDOF 5
ENDMDL
MODEL 9
REMARK VINA RESULT:    -6.044      2.479      4.346
REMARK INTER + INTRA:          -8.678
REMARK INTER:                  -7.986
REMARK INTRA:                  -0.692
REMARK UNBOUND:                -0.868
REMARK  Name = 
REMARK  6 active torsions:
REMARK  status: ('A' for Active; 'I' for Inactive)
REMARK    1  A    between atoms: C_1  and  O_2
REMARK    2  A    between atoms: O_2  and  C_3
REMARK    3  A    between atoms: C_7  and  N_8
REMARK    4  A    between atoms: N_8  and  C_9
REMARK    5  A    between atoms: C_9  and  C_10
REMARK    6  A    between atoms: C_14  and  C_15
REMARK                            x       y       z     vdW  Elec       q    Type
REMARK                         _______ _______ _______ _____ _____    ______ ____
ROOT
ATOM      1  C   UNL     1      47.242   7.780  12.383  0.00  0.00    +0.000 A 
ATOM      2  C   UNL     1      46.280   8.784  12.542  0.00  0.00    +0.000 A 
ATOM      3  C   UNL     1      44.998   8.612  12.030  0.00  0.00    +0.000 A 
ATOM      4  C   UNL     1      44.663   7.435  11.356  0.00  0.00    +0.000 A 
ATOM      5  C   UNL     1      45.599   6.400  11.185  0.00  0.00    +0.000 A 
ATOM      6  C   UNL     1      46.884   6.589  11.727  0.00  0.00    +0.000 A 
ENDROOT
BRANCH   5   7
ATOM      7  C   UNL     1      45.263   5.178  10.427  0.00  0.00    +0.000 A 
ATOM      8  C   UNL     1      44.507   4.143  10.994  0.00  0.00    +0.000 A 
ATOM      9  N   UNL     1      44.137   3.001  10.360  0.00  0.00    +0.000 NA
ATOM     10  C   UNL     1      44.533   2.879   9.074  0.00  0.00    +0.000 A 
ATOM     11  C   UNL     1      45.276   3.838   8.414  0.00  0.00    +0.000 A 
ATOM     12  F   UNL     1      45.634   3.664   7.135  0.00  0.00    +0.000 F 
ATOM     13  C   UNL     1      45.648   4.993   9.092  0.00  0.00    +0.000 A 
ENDBRANCH   5   7
BRANCH   1  14
ATOM     14  C   UNL     1      48.655   7.989  12.870  0.00  0.00    +0.000 C 
BRANCH  14  15
ATOM     15  N   UNL     1      48.657   8.612  14.185  0.00  0.00    +0.000 N 
ATOM     16  H   UNL     1      48.017   9.399  14.266  0.00  0.00    +0.000 HD
BRANCH  15  21
ATOM     17  C   UNL     1      48.818   5.674  16.490  0.00  0.00    +0.000 A 
ATOM     18  C   UNL     1      48.966   6.381  17.675  0.00  0.00    +0.000 A 
ATOM     19  N   UNL     1      48.999   7.730  17.760  0.00  0.00    +0.000 NA
ATOM     20  C   UNL     1      48.873   8.402  16.588  0.00  0.00    +0.000 A 
ATOM     21  C   UNL     1      48.693   7.814  15.332  0.00  0.00    +0.000 A 
ATOM     22  C   UNL     1      48.697   6.413  15.310  0.00  0.00    +0.000 A 
BRANCH  17  24
ATOM     23  C   UNL     1      47.559   3.660  16.416  0.00  0.00    +0.000 C 
ATOM     24  O   UNL     1      48.811   4.312  16.595  0.00  0.00    +0.000 OA
ENDBRANCH  17  24
ENDBRANCH  15  21
ENDBRANCH  14  15
ENDBRANCH   1  14
TORSDOF 5
ENDMDL
