MODEL 1
REMARK VINA RESULT:    -7.650      0.000      0.000
REMARK INTER + INTRA:         -12.419
REMARK INTER:                 -11.227
REMARK INTRA:                  -1.192
REMARK UNBOUND:                -1.192
REMARK  Name = 
REMARK  10 active torsions:
REMARK  status: ('A' for Active; 'I' for Inactive)
REMARK    1  A    between atoms: C_1  and  C_2
REMARK    2  A    between atoms: C_2  and  C_3
REMARK    3  A    between atoms: C_4  and  C_5
REMARK    4  A    between atoms: C_5  and  C_6
REMARK    5  A    between atoms: C_5  and  C_17
REMARK    6  A    between atoms: C_6  and  N_7
REMARK    7  A    between atoms: N_7  and  C_8
REMARK    8  A    between atoms: C_11  and  C_12
REMARK    9  A    between atoms: C_21  and  O_22
REMARK   10  A    between atoms: O_22  and  C_23
REMARK                            x       y       z     vdW  Elec       q    Type
REMARK                         _______ _______ _______ _____ _____    ______ ____
ROOT
ATOM      1  C   UNL     1      44.198   4.561  11.751  0.00  0.00    +0.000 C 
ENDROOT
BRANCH   1   2
ATOM      2  N   UNL     1      43.793   4.530  10.327  0.00  0.00    +0.000 N 
ATOM      3  H   UNL     1      43.568   5.466   9.989  0.00  0.00    +0.000 HD
BRANCH   2   4
ATOM      4  C   UNL     1      44.620   3.862   9.414  0.00  0.00    +0.000 A 
ATOM      5  C   UNL     1      45.421   4.526   8.480  0.00  0.00    +0.000 A 
ATOM      6  C   UNL     1      46.305   3.824   7.654  0.00  0.00    +0.000 A 
ATOM      7  C   UNL     1      46.432   2.438   7.771  0.00  0.00    +0.000 A 
ATOM      8  C   UNL     1      45.658   1.757   8.714  0.00  0.00    +0.000 A 
ATOM      9  C   UNL     1      44.772   2.471   9.534  0.00  0.00    +0.000 A 
BRANCH   7  10
ATOM     10  C   UNL     1      47.390   1.747   6.870  0.00  0.00    +0.000 C 
ATOM     11  N   UNL     1      48.490   2.444   6.457  0.00  0.00    +0.000 N 
ATOM     12  O   UNL     1      47.188   0.606   6.474  0.00  0.00    +0.000 OA
ATOM     13  H   UNL     1      48.580   3.443   6.570  0.00  0.00    +0.000 HD
ATOM     14  H   UNL     1      49.063   1.993   5.756  0.00  0.00    +0.000 HD
ENDBRANCH   7  10
ENDBRANCH   2   4
ENDBRANCH   1   2
BRANCH   1  15
ATOM     15  C   UNL     1      45.640   5.111  11.919  0.00  0.00    +0.000 C 
BRANCH  15  16
ATOM     16  C   UNL     1      45.668   6.632  12.023  0.00  0.00    +0.000 A 
ATOM     17  C   UNL     1      46.613   7.259  12.837  0.00  0.00    +0.000 A 
ATOM     18  C   UNL     1      46.558   8.640  12.999  0.00  0.00    +0.000 A 
ATOM     19  C   UNL     1      45.575   9.364  12.337  0.00  0.00    +0.000 A 
ATOM     20  C   UNL     1      44.691   8.674  11.527  0.00  0.00    +0.000 A 
ATOM     21  N   UNL     1      44.719   7.335  11.360  0.00  0.00    +0.000 NA
BRANCH  20  22
ATOM     22  O   UNL     1      43.727   9.417  10.877  0.00  0.00    +0.000 OA
ATOM     23  C   UNL     1      43.637  10.749  11.380  0.00  0.00    +0.000 C 
ENDBRANCH  20  22
ENDBRANCH  15  16
BRANCH  15  25
ATOM     24  C   UNL     1      46.815   4.043  14.079  0.00  0.00    +0.000 C 
ATOM     25  C   UNL     1      46.272   4.513  13.116  0.00  0.00    +0.000 C 
BRANCH  24  27
ATOM     26  C   UNL     1      47.212   4.272  16.501  0.00  0.00    +0.000 C 
ATOM     27  C   UNL     1      47.512   3.482  15.240  0.00  0.00    +0.000 C 
ENDBRANCH  24  27
ENDBRANCH  15  25
ENDBRANCH   1  15
TORSDOF 8
ENDMDL
MODEL 2
REMARK VINA RESULT:    -7.180      1.529      2.284
REMARK INTER + INTRA:         -11.729
REMARK INTER:                 -10.777
REMARK INTRA:                  -0.952
REMARK UNBOUND:                -1.192
REMARK  Name = 
REMARK  10 active torsions:
REMARK  status: ('A' for Active; 'I' for Inactive)
REMARK    1  A    between atoms: C_1  and  C_2
REMARK    2  A    between atoms: C_2  and  C_3
REMARK    3  A    between atoms: C_4  and  C_5
REMARK    4  A    between atoms: C_5  and  C_6
REMARK    5  A    between atoms: C_5  and  C_17
REMARK    6  A    between atoms: C_6  and  N_7
REMARK    7  A    between atoms: N_7  and  C_8
REMARK    8  A    between atoms: C_11  and  C_12
REMARK    9  A    between atoms: C_21  and  O_22
REMARK   10  A    between atoms: O_22  and  C_23
REMARK                            x       y       z     vdW  Elec       q    Type
REMARK                         _______ _______ _______ _____ _____    ______ ____
ROOT
ATOM      1  C   UNL     1      44.089   5.411  11.314  0.00  0.00    +0.000 C 
ENDROOT
BRANCH   1   2
ATOM      2  N   UNL     1      43.919   5.083   9.880  0.00  0.00    +0.000 N 
ATOM      3  H   UNL     1      43.937   5.925   9.306  0.00  0.00    +0.000 HD
BRANCH   2   4
ATOM      4  C   UNL     1      44.737   4.089   9.323  0.00  0.00    +0.000 A 
ATOM      5  C   UNL     1      44.592   2.729   9.613  0.00  0.00    +0.000 A 
ATOM      6  C   UNL     1      45.364   1.763   8.960  0.00  0.00    +0.000 A 
ATOM      7  C   UNL     1      46.277   2.137   7.971  0.00  0.00    +0.000 A 
ATOM      8  C   UNL     1      46.421   3.489   7.650  0.00  0.00    +0.000 A 
ATOM      9  C   UNL     1      45.644   4.449   8.314  0.00  0.00    +0.000 A 
BRANCH   7  10
ATOM     10  C   UNL     1      47.066   1.067   7.310  0.00  0.00    +0.000 C 
ATOM     11  N   UNL     1      46.789  -0.228   7.647  0.00  0.00    +0.000 N 
ATOM     12  O   UNL     1      47.962   1.329   6.517  0.00  0.00    +0.000 OA
ATOM     13  H   UNL     1      46.229  -0.477   8.448  0.00  0.00    +0.000 HD
ATOM     14  H   UNL     1      47.417  -0.927   7.270  0.00  0.00    +0.000 HD
ENDBRANCH   7  10
ENDBRANCH   2   4
ENDBRANCH   1   2
BRANCH   1  15
ATOM     15  C   UNL     1      45.526   5.920  11.614  0.00  0.00    +0.000 C 
BRANCH  15  16
ATOM     16  C   UNL     1      45.583   7.437  11.754  0.00  0.00    +0.000 A 
ATOM     17  C   UNL     1      44.492   8.215  11.364  0.00  0.00    +0.000 A 
ATOM     18  C   UNL     1      44.601   9.603  11.404  0.00  0.00    +0.000 A 
ATOM     19  C   UNL     1      45.785  10.180  11.845  0.00  0.00    +0.000 A 
ATOM     20  C   UNL     1      46.812   9.340  12.240  0.00  0.00    +0.000 A 
ATOM     21  N   UNL     1      46.733   7.994  12.203  0.00  0.00    +0.000 NA
BRANCH  20  22
ATOM     22  O   UNL     1      47.976   9.939  12.677  0.00  0.00    +0.000 OA
ATOM     23  C   UNL     1      48.886   9.003  13.251  0.00  0.00    +0.000 C 
ENDBRANCH  20  22
ENDBRANCH  15  16
BRANCH  15  25
ATOM     24  C   UNL     1      46.491   4.759  13.829  0.00  0.00    +0.000 C 
ATOM     25  C   UNL     1      46.041   5.281  12.844  0.00  0.00    +0.000 C 
BRANCH  24  27
ATOM     26  C   UNL     1      47.922   5.088  15.809  0.00  0.00    +0.000 C 
ATOM     27  C   UNL     1      47.072   4.116  15.011  0.00  0.00    +0.000 C 
ENDBRANCH  24  27
ENDBRANCH  15  25
ENDBRANCH   1  15
TORSDOF 8
ENDMDL
MODEL 3
REMARK VINA RESULT:    -7.163      1.942      4.070
REMARK INTER + INTRA:         -11.705
REMARK INTER:                 -10.584
REMARK INTRA:                  -1.121
REMARK UNBOUND:                -1.192
REMARK  Name = 
REMARK  10 active torsions:
REMARK  status: ('A' for Active; 'I' for Inactive)
REMARK    1  A    between atoms: C_1  and  C_2
REMARK    2  A    between atoms: C_2  and  C_3
REMARK    3  A    between atoms: C_4  and  C_5
REMARK    4  A    between atoms: C_5  and  C_6
REMARK    5  A    between atoms: C_5  and  C_17
REMARK    6  A    between atoms: C_6  and  N_7
REMARK    7  A    between atoms: N_7  and  C_8
REMARK    8  A    between atoms: C_11  and  C_12
REMARK    9  A    between atoms: C_21  and  O_22
REMARK   10  A    between atoms: O_22  and  C_23
REMARK                            x       y       z     vdW  Elec       q    Type
REMARK                         _______ _______ _______ _____ _____    ______ ____
ROOT
ATOM      1  C   UNL     1      43.208   4.867  11.032  0.00  0.00    +0.000 C 
ENDROOT
BRANCH   1   2
ATOM      2  N   UNL     1      43.870   5.084   9.725  0.00  0.00    +0.000 N 
ATOM      3  H   UNL     1      44.350   5.983   9.701  0.00  0.00    +0.000 HD
BRANCH   2   4
ATOM      4  C   UNL     1      44.698   4.070   9.222  0.00  0.00    +0.000 A 
ATOM      5  C   UNL     1      44.489   2.713   9.483  0.00  0.00    +0.000 A 
ATOM      6  C   UNL     1      45.280   1.729   8.880  0.00  0.00    +0.000 A 
ATOM      7  C   UNL     1      46.280   2.084   7.971  0.00  0.00    +0.000 A 
ATOM      8  C   UNL     1      46.490   3.434   7.678  0.00  0.00    +0.000 A 
ATOM      9  C   UNL     1      45.693   4.411   8.291  0.00  0.00    +0.000 A 
BRANCH   7  10
ATOM     10  C   UNL     1      47.085   0.996   7.360  0.00  0.00    +0.000 C 
ATOM     11  N   UNL     1      46.749  -0.292   7.667  0.00  0.00    +0.000 N 
ATOM     12  O   UNL     1      48.043   1.237   6.637  0.00  0.00    +0.000 OA
ATOM     13  H   UNL     1      46.125  -0.531   8.423  0.00  0.00    +0.000 HD
ATOM     14  H   UNL     1      47.382  -1.007   7.331  0.00  0.00    +0.000 HD
ENDBRANCH   7  10
ENDBRANCH   2   4
ENDBRANCH   1   2
BRANCH   1  15
ATOM     15  C   UNL     1      43.857   5.730  12.148  0.00  0.00    +0.000 C 
BRANCH  15  16
ATOM     16  C   UNL     1      45.178   5.144  12.634  0.00  0.00    +0.000 A 
ATOM     17  C   UNL     1      45.281   3.777  12.895  0.00  0.00    +0.000 A 
ATOM     18  C   UNL     1      46.463   3.278  13.435  0.00  0.00    +0.000 A 
ATOM     19  C   UNL     1      47.517   4.147  13.688  0.00  0.00    +0.000 A 
ATOM     20  C   UNL     1      47.347   5.485  13.377  0.00  0.00    +0.000 A 
ATOM     21  N   UNL     1      46.209   5.993  12.861  0.00  0.00    +0.000 NA
BRANCH  20  22
ATOM     22  O   UNL     1      48.410   6.326  13.634  0.00  0.00    +0.000 OA
ATOM     23  C   UNL     1      48.333   7.541  12.890  0.00  0.00    +0.000 C 
ENDBRANCH  20  22
ENDBRANCH  15  16
BRANCH  15  25
ATOM     24  C   UNL     1      44.227   8.244  11.293  0.00  0.00    +0.000 C 
ATOM     25  C   UNL     1      44.068   7.110  11.660  0.00  0.00    +0.000 C 
BRANCH  24  27
ATOM     26  C   UNL     1      45.495  10.323  11.675  0.00  0.00    +0.000 C 
ATOM     27  C   UNL     1      44.400   9.638  10.877  0.00  0.00    +0.000 C 
ENDBRANCH  24  27
ENDBRANCH  15  25
ENDBRANCH   1  15
TORSDOF 8
ENDMDL
MODEL 4
REMARK VINA RESULT:    -6.054      4.785      7.640
REMARK INTER + INTRA:         -10.076
REMARK INTER:                  -8.988
REMARK INTRA:                  -1.088
REMARK UNBOUND:                -1.192
REMARK  Name = 
REMARK  10 active torsions:
REMARK  status: ('A' for Active; 'I' for Inactive)
REMARK    1  A    between atoms: C_1  and  C_2
REMARK    2  A    between atoms: C_2  and  C_3
REMARK    3  A    between atoms: C_4  and  C_5
REMARK    4  A    between atoms: C_5  and  C_6
REMARK    5  A    between atoms: C_5  and  C_17
REMARK    6  A    between atoms: C_6  and  N_7
REMARK    7  A    between atoms: N_7  and  C_8
REMARK    8  A    between atoms: C_11  and  C_12
REMARK    9  A    between atoms: C_21  and  O_22
REMARK   10  A    between atoms: O_22  and  C_23
REMARK                            x       y       z     vdW  Elec       q    Type
REMARK                         _______ _______ _______ _____ _____    ______ ____
ROOT
ATOM      1  C   UNL     1      47.950   6.305  15.280  0.00  0.00    +0.000 C 
ENDROOT
BRANCH   1   2
ATOM      2  N   UNL     1      47.562   5.228  16.219  0.00  0.00    +0.000 N 
ATOM      3  H   UNL     1      46.758   4.708  15.869  0.00  0.00    +0.000 HD
BRANCH   2   4
ATOM      4  C   UNL     1      48.557   4.351  16.674  0.00  0.00    +0.000 A 
ATOM      5  C   UNL     1      48.486   2.964  16.510  0.00  0.00    +0.000 A 
ATOM      6  C   UNL     1      49.546   2.136  16.891  0.00  0.00    +0.000 A 
ATOM      7  C   UNL     1      50.720   2.683  17.413  0.00  0.00    +0.000 A 
ATOM      8  C   UNL     1      50.821   4.068  17.564  0.00  0.00    +0.000 A 
ATOM      9  C   UNL     1      49.750   4.889  17.182  0.00  0.00    +0.000 A 
BRANCH   7  10
ATOM     10  C   UNL     1      51.813   1.753  17.796  0.00  0.00    +0.000 C 
ATOM     11  N   UNL     1      51.489   0.442  18.004  0.00  0.00    +0.000 N 
ATOM     12  O   UNL     1      52.961   2.147  17.960  0.00  0.00    +0.000 OA
ATOM     13  H   UNL     1      50.537   0.122  18.103  0.00  0.00    +0.000 HD
ATOM     14  H   UNL     1      52.227  -0.143  18.374  0.00  0.00    +0.000 HD
ENDBRANCH   7  10
ENDBRANCH   2   4
ENDBRANCH   1   2
BRANCH   1  15
ATOM     15  C   UNL     1      47.933   5.809  13.808  0.00  0.00    +0.000 C 
BRANCH  15  16
ATOM     16  C   UNL     1      46.519   5.721  13.246  0.00  0.00    +0.000 A 
ATOM     17  C   UNL     1      45.941   6.833  12.632  0.00  0.00    +0.000 A 
ATOM     18  C   UNL     1      44.614   6.765  12.217  0.00  0.00    +0.000 A 
ATOM     19  C   UNL     1      43.900   5.589  12.409  0.00  0.00    +0.000 A 
ATOM     20  C   UNL     1      44.552   4.521  13.001  0.00  0.00    +0.000 A 
ATOM     21  N   UNL     1      45.834   4.565  13.419  0.00  0.00    +0.000 NA
BRANCH  20  22
ATOM     22  O   UNL     1      43.822   3.363  13.177  0.00  0.00    +0.000 OA
ATOM     23  C   UNL     1      43.380   2.806  11.940  0.00  0.00    +0.000 C 
ENDBRANCH  20  22
ENDBRANCH  15  16
BRANCH  15  25
ATOM     24  C   UNL     1      49.446   7.434  12.305  0.00  0.00    +0.000 C 
ATOM     25  C   UNL     1      48.755   6.704  12.964  0.00  0.00    +0.000 C 
BRANCH  24  27
ATOM     26  C   UNL     1      51.360   7.559  10.757  0.00  0.00    +0.000 C 
ATOM     27  C   UNL     1      50.309   8.332  11.532  0.00  0.00    +0.000 C 
ENDBRANCH  24  27
ENDBRANCH  15  25
ENDBRANCH   1  15
TORSDOF 8
ENDMDL
MODEL 5
REMARK VINA RESULT:    -5.986      2.362      6.534
REMARK INTER + INTRA:          -9.977
REMARK INTER:                  -8.566
REMARK INTRA:                  -1.411
REMARK UNBOUND:                -1.192
REMARK  Name = 
REMARK  10 active torsions:
REMARK  status: ('A' for Active; 'I' for Inactive)
REMARK    1  A    between atoms: C_1  and  C_2
REMARK    2  A    between atoms: C_2  and  C_3
REMARK    3  A    between atoms: C_4  and  C_5
REMARK    4  A    between atoms: C_5  and  C_6
REMARK    5  A    between atoms: C_5  and  C_17
REMARK    6  A    between atoms: C_6  and  N_7
REMARK    7  A    between atoms: N_7  and  C_8
REMARK    8  A    between atoms: C_11  and  C_12
REMARK    9  A    between atoms: C_21  and  O_22
REMARK   10  A    between atoms: O_22  and  C_23
REMARK                            x       y       z     vdW  Elec       q    Type
REMARK                         _______ _______ _______ _____ _____    ______ ____
ROOT
ATOM      1  C   UNL     1      43.844   5.981  11.502  0.00  0.00    +0.000 C 
ENDROOT
BRANCH   1   2
ATOM      2  N   UNL     1      44.974   6.671  10.839  0.00  0.00    +0.000 N 
ATOM      3  H   UNL     1      44.647   7.260  10.074  0.00  0.00    +0.000 HD
BRANCH   2   4
ATOM      4  C   UNL     1      45.890   7.368  11.639  0.00  0.00    +0.000 A 
ATOM      5  C   UNL     1      45.504   8.220  12.679  0.00  0.00    +0.000 A 
ATOM      6  C   UNL     1      46.452   8.818  13.515  0.00  0.00    +0.000 A 
ATOM      7  C   UNL     1      47.812   8.547  13.351  0.00  0.00    +0.000 A 
ATOM      8  C   UNL     1      48.219   7.681  12.333  0.00  0.00    +0.000 A 
ATOM      9  C   UNL     1      47.259   7.090  11.498  0.00  0.00    +0.000 A 
BRANCH   7  10
ATOM     10  C   UNL     1      48.771   9.208  14.272  0.00  0.00    +0.000 C 
ATOM     11  N   UNL     1      48.268   9.809  15.391  0.00  0.00    +0.000 N 
ATOM     12  O   UNL     1      49.970   9.253  14.024  0.00  0.00    +0.000 OA
ATOM     13  H   UNL     1      47.284   9.993  15.518  0.00  0.00    +0.000 HD
ATOM     14  H   UNL     1      48.926  10.349  15.938  0.00  0.00    +0.000 HD
ENDBRANCH   7  10
ENDBRANCH   2   4
ENDBRANCH   1   2
BRANCH   1  15
ATOM     15  C   UNL     1      44.143   4.471  11.709  0.00  0.00    +0.000 C 
BRANCH  15  16
ATOM     16  C   UNL     1      44.515   3.774  10.405  0.00  0.00    +0.000 A 
ATOM     17  C   UNL     1      44.153   2.442  10.198  0.00  0.00    +0.000 A 
ATOM     18  C   UNL     1      44.590   1.793   9.046  0.00  0.00    +0.000 A 
ATOM     19  C   UNL     1      45.362   2.487   8.125  0.00  0.00    +0.000 A 
ATOM     20  C   UNL     1      45.657   3.813   8.389  0.00  0.00    +0.000 A 
ATOM     21  N   UNL     1      45.252   4.462   9.501  0.00  0.00    +0.000 NA
BRANCH  20  22
ATOM     22  O   UNL     1      46.422   4.482   7.455  0.00  0.00    +0.000 OA
ATOM     23  C   UNL     1      46.790   3.648   6.357  0.00  0.00    +0.000 C 
ENDBRANCH  20  22
ENDBRANCH  15  16
BRANCH  15  25
ATOM     24  C   UNL     1      46.095   4.183  13.524  0.00  0.00    +0.000 C 
ATOM     25  C   UNL     1      45.230   4.303  12.698  0.00  0.00    +0.000 C 
BRANCH  24  27
ATOM     26  C   UNL     1      47.554   5.424  15.076  0.00  0.00    +0.000 C 
ATOM     27  C   UNL     1      47.129   4.062  14.555  0.00  0.00    +0.000 C 
ENDBRANCH  24  27
ENDBRANCH  15  25
ENDBRANCH   1  15
TORSDOF 8
ENDMDL
MODEL 6
REMARK VINA RESULT:    -5.953      3.539      7.548
REMARK INTER + INTRA:          -9.928
REMARK INTER:                  -9.193
REMARK INTRA:                  -0.735
REMARK UNBOUND:                -1.192
REMARK  Name = 
REMARK  10 active torsions:
REMARK  status: ('A' for Active; 'I' for Inactive)
REMARK    1  A    between atoms: C_1  and  C_2
REMARK    2  A    between atoms: C_2  and  C_3
REMARK    3  A    between atoms: C_4  and  C_5
REMARK    4  A    between atoms: C_5  and  C_6
REMARK    5  A    between atoms: C_5  and  C_17
REMARK    6  A    between atoms: C_6  and  N_7
REMARK    7  A    between atoms: N_7  and  C_8
REMARK    8  A    between atoms: C_11  and  C_12
REMARK    9  A    between atoms: C_21  and  O_22
REMARK   10  A    between atoms: O_22  and  C_23
REMARK                            x       y       z     vdW  Elec       q    Type
REMARK                         _______ _______ _______ _____ _____    ______ ____
ROOT
ATOM      1  C   UNL     1      45.880   5.891  13.130  0.00  0.00    +0.000 C 
ENDROOT
BRANCH   1   2
ATOM      2  N   UNL     1      47.029   6.490  13.847  0.00  0.00    +0.000 N 
ATOM      3  H   UNL     1      46.809   7.432  14.170  0.00  0.00    +0.000 HD
BRANCH   2   4
ATOM      4  C   UNL     1      47.637   5.748  14.869  0.00  0.00    +0.000 A 
ATOM      5  C   UNL     1      48.616   6.273  15.717  0.00  0.00    +0.000 A 
ATOM      6  C   UNL     1      49.124   5.529  16.786  0.00  0.00    +0.000 A 
ATOM      7  C   UNL     1      48.634   4.248  17.052  0.00  0.00    +0.000 A 
ATOM      8  C   UNL     1      47.638   3.712  16.232  0.00  0.00    +0.000 A 
ATOM      9  C   UNL     1      47.139   4.467  15.160  0.00  0.00    +0.000 A 
BRANCH   7  10
ATOM     10  C   UNL     1      49.209   3.507  18.204  0.00  0.00    +0.000 C 
ATOM     11  N   UNL     1      48.389   3.244  19.264  0.00  0.00    +0.000 N 
ATOM     12  O   UNL     1      50.388   3.174  18.227  0.00  0.00    +0.000 OA
ATOM     13  H   UNL     1      47.492   3.689  19.387  0.00  0.00    +0.000 HD
ATOM     14  H   UNL     1      48.835   2.841  20.079  0.00  0.00    +0.000 HD
ENDBRANCH   7  10
ENDBRANCH   2   4
ENDBRANCH   1   2
BRANCH   1  15
ATOM     15  C   UNL     1      45.909   6.242  11.617  0.00  0.00    +0.000 C 
BRANCH  15  16
ATOM     16  C   UNL     1      45.352   5.115  10.755  0.00  0.00    +0.000 A 
ATOM     17  C   UNL     1      44.598   4.095  11.338  0.00  0.00    +0.000 A 
ATOM     18  C   UNL     1      44.186   3.023  10.553  0.00  0.00    +0.000 A 
ATOM     19  C   UNL     1      44.520   2.998   9.205  0.00  0.00    +0.000 A 
ATOM     20  C   UNL     1      45.247   4.059   8.694  0.00  0.00    +0.000 A 
ATOM     21  N   UNL     1      45.665   5.105   9.437  0.00  0.00    +0.000 NA
BRANCH  20  22
ATOM     22  O   UNL     1      45.563   4.012   7.352  0.00  0.00    +0.000 OA
ATOM     23  C   UNL     1      46.819   3.380   7.111  0.00  0.00    +0.000 C 
ENDBRANCH  20  22
ENDBRANCH  15  16
BRANCH  15  25
ATOM     24  C   UNL     1      44.525   8.501  11.208  0.00  0.00    +0.000 C 
ATOM     25  C   UNL     1      45.147   7.486  11.373  0.00  0.00    +0.000 C 
BRANCH  24  27
ATOM     26  C   UNL     1      44.563  10.950  11.483  0.00  0.00    +0.000 C 
ATOM     27  C   UNL     1      43.759   9.740  11.045  0.00  0.00    +0.000 C 
ENDBRANCH  24  27
ENDBRANCH  15  25
ENDBRANCH   1  15
TORSDOF 8
ENDMDL
MODEL 7
REMARK VINA RESULT:    -5.929      3.912      6.633
REMARK INTER + INTRA:          -9.894
REMARK INTER:                  -8.700
REMARK INTRA:                  -1.194
REMARK UNBOUND:                -1.192
REMARK  Name = 
REMARK  10 active torsions:
REMARK  status: ('A' for Active; 'I' for Inactive)
REMARK    1  A    between atoms: C_1  and  C_2
REMARK    2  A    between atoms: C_2  and  C_3
REMARK    3  A    between atoms: C_4  and  C_5
REMARK    4  A    between atoms: C_5  and  C_6
REMARK    5  A    between atoms: C_5  and  C_17
REMARK    6  A    between atoms: C_6  and  N_7
REMARK    7  A    between atoms: N_7  and  C_8
REMARK    8  A    between atoms: C_11  and  C_12
REMARK    9  A    between atoms: C_21  and  O_22
REMARK   10  A    between atoms: O_22  and  C_23
REMARK                            x       y       z     vdW  Elec       q    Type
REMARK                         _______ _______ _______ _____ _____    ______ ____
ROOT
ATOM      1  C   UNL     1      47.120   4.171  15.114  0.00  0.00    +0.000 C 
ENDROOT
BRANCH   1   2
ATOM      2  N   UNL     1      45.919   4.730  14.452  0.00  0.00    +0.000 N 
ATOM      3  H   UNL     1      45.760   5.696  14.736  0.00  0.00    +0.000 HD
BRANCH   2   4
ATOM      4  C   UNL     1      45.804   4.599  13.061  0.00  0.00    +0.000 A 
ATOM      5  C   UNL     1      45.297   3.453  12.440  0.00  0.00    +0.000 A 
ATOM      6  C   UNL     1      45.107   3.404  11.056  0.00  0.00    +0.000 A 
ATOM      7  C   UNL     1      45.389   4.518  10.262  0.00  0.00    +0.000 A 
ATOM      8  C   UNL     1      45.874   5.682  10.865  0.00  0.00    +0.000 A 
ATOM      9  C   UNL     1      46.064   5.719  12.254  0.00  0.00    +0.000 A 
BRANCH   7  10
ATOM     10  C   UNL     1      45.163   4.407   8.799  0.00  0.00    +0.000 C 
ATOM     11  N   UNL     1      44.038   3.759   8.376  0.00  0.00    +0.000 N 
ATOM     12  O   UNL     1      45.974   4.844   7.991  0.00  0.00    +0.000 OA
ATOM     13  H   UNL     1      43.469   3.193   8.988  0.00  0.00    +0.000 HD
ATOM     14  H   UNL     1      43.968   3.597   7.379  0.00  0.00    +0.000 HD
ENDBRANCH   7  10
ENDBRANCH   2   4
ENDBRANCH   1   2
BRANCH   1  15
ATOM     15  C   UNL     1      47.877   5.256  15.928  0.00  0.00    +0.000 C 
BRANCH  15  16
ATOM     16  C   UNL     1      48.989   4.662  16.784  0.00  0.00    +0.000 A 
ATOM     17  C   UNL     1      49.773   5.493  17.586  0.00  0.00    +0.000 A 
ATOM     18  C   UNL     1      50.848   4.947  18.282  0.00  0.00    +0.000 A 
ATOM     19  C   UNL     1      51.107   3.587  18.174  0.00  0.00    +0.000 A 
ATOM     20  C   UNL     1      50.269   2.824  17.380  0.00  0.00    +0.000 A 
ATOM     21  N   UNL     1      49.227   3.331  16.690  0.00  0.00    +0.000 NA
BRANCH  20  22
ATOM     22  O   UNL     1      50.547   1.475  17.293  0.00  0.00    +0.000 OA
ATOM     23  C   UNL     1      51.940   1.197  17.426  0.00  0.00    +0.000 C 
ENDBRANCH  20  22
ENDBRANCH  15  16
BRANCH  15  25
ATOM     24  C   UNL     1      48.905   7.078  14.252  0.00  0.00    +0.000 C 
ATOM     25  C   UNL     1      48.436   6.275  15.013  0.00  0.00    +0.000 C 
BRANCH  24  27
ATOM     26  C   UNL     1      48.430   8.778  12.530  0.00  0.00    +0.000 C 
ATOM     27  C   UNL     1      49.498   8.029  13.307  0.00  0.00    +0.000 C 
ENDBRANCH  24  27
ENDBRANCH  15  25
ENDBRANCH   1  15
TORSDOF 8
ENDMDL
MODEL 8
REMARK VINA RESULT:    -5.869      3.961      7.133
REMARK INTER + INTRA:          -9.805
REMARK INTER:                  -8.973
REMARK INTRA:                  -0.832
REMARK UNBOUND:                -1.192
REMARK  Name = 
REMARK  10 active torsions:
REMARK  status: ('A' for Active; 'I' for Inactive)
REMARK    1  A    between atoms: C_1  and  C_2
REMARK    2  A    between atoms: C_2  and  C_3
REMARK    3  A    between atoms: C_4  and  C_5
REMARK    4  A    between atoms: C_5  and  C_6
REMARK    5  A    between atoms: C_5  and  C_17
REMARK    6  A    between atoms: C_6  and  N_7
REMARK    7  A    between atoms: N_7  and  C_8
REMARK    8  A    between atoms: C_11  and  C_12
REMARK    9  A    between atoms: C_21  and  O_22
REMARK   10  A    between atoms: O_22  and  C_23
REMARK                            x       y       z     vdW  Elec       q    Type
REMARK                         _______ _______ _______ _____ _____    ______ ____
ROOT
ATOM      1  C   UNL     1      46.668   4.091  13.936  0.00  0.00    +0.000 C 
ENDROOT
BRANCH   1   2
ATOM      2  N   UNL     1      46.511   4.302  15.393  0.00  0.00    +0.000 N 
ATOM      3  H   UNL     1      45.744   3.742  15.764  0.00  0.00    +0.000 HD
BRANCH   2   4
ATOM      4  C   UNL     1      47.645   4.187  16.209  0.00  0.00    +0.000 A 
ATOM      5  C   UNL     1      48.163   2.957  16.629  0.00  0.00    +0.000 A 
ATOM      6  C   UNL     1      49.353   2.884  17.359  0.00  0.00    +0.000 A 
ATOM      7  C   UNL     1      50.073   4.044  17.657  0.00  0.00    +0.000 A 
ATOM      8  C   UNL     1      49.586   5.281  17.227  0.00  0.00    +0.000 A 
ATOM      9  C   UNL     1      48.390   5.342  16.498  0.00  0.00    +0.000 A 
BRANCH   7  10
ATOM     10  C   UNL     1      51.332   3.903  18.433  0.00  0.00    +0.000 C 
ATOM     11  N   UNL     1      52.010   2.721  18.335  0.00  0.00    +0.000 N 
ATOM     12  O   UNL     1      51.734   4.796  19.168  0.00  0.00    +0.000 OA
ATOM     13  H   UNL     1      51.606   1.889  17.931  0.00  0.00    +0.000 HD
ATOM     14  H   UNL     1      52.798   2.610  18.961  0.00  0.00    +0.000 HD
ENDBRANCH   7  10
ENDBRANCH   2   4
ENDBRANCH   1   2
BRANCH   1  15
ATOM     15  C   UNL     1      45.632   4.917  13.127  0.00  0.00    +0.000 C 
BRANCH  15  16
ATOM     16  C   UNL     1      46.155   6.304  12.767  0.00  0.00    +0.000 A 
ATOM     17  C   UNL     1      47.511   6.490  12.497  0.00  0.00    +0.000 A 
ATOM     18  C   UNL     1      47.986   7.779  12.271  0.00  0.00    +0.000 A 
ATOM     19  C   UNL     1      47.099   8.847  12.306  0.00  0.00    +0.000 A 
ATOM     20  C   UNL     1      45.765   8.578  12.554  0.00  0.00    +0.000 A 
ATOM     21  N   UNL     1      45.282   7.340  12.784  0.00  0.00    +0.000 NA
BRANCH  20  22
ATOM     22  O   UNL     1      44.904   9.657  12.579  0.00  0.00    +0.000 OA
ATOM     23  C   UNL     1      45.314  10.700  11.696  0.00  0.00    +0.000 C 
ENDBRANCH  20  22
ENDBRANCH  15  16
BRANCH  15  25
ATOM     24  C   UNL     1      44.918   3.614  10.895  0.00  0.00    +0.000 C 
ATOM     25  C   UNL     1      45.254   4.188  11.897  0.00  0.00    +0.000 C 
BRANCH  24  27
ATOM     26  C   UNL     1      44.652   3.816   8.453  0.00  0.00    +0.000 C 
ATOM     27  C   UNL     1      44.475   2.933   9.676  0.00  0.00    +0.000 C 
ENDBRANCH  24  27
ENDBRANCH  15  25
ENDBRANCH   1  15
TORSDOF 8
ENDMDL
MODEL 9
REMARK VINA RESULT:    -5.806      3.988      7.202
REMARK INTER + INTRA:          -9.714
REMARK INTER:                  -8.642
REMARK INTRA:                  -1.071
REMARK UNBOUND:                -1.192
REMARK  Name = 
REMARK  10 active torsions:
REMARK  status: ('A' for Active; 'I' for Inactive)
REMARK    1  A    between atoms: C_1  and  C_2
REMARK    2  A    between atoms: C_2  and  C_3
REMARK    3  A    between atoms: C_4  and  C_5
REMARK    4  A    between atoms: C_5  and  C_6
REMARK    5  A    between atoms: C_5  and  C_17
REMARK    6  A    between atoms: C_6  and  N_7
REMARK    7  A    between atoms: N_7  and  C_8
REMARK    8  A    between atoms: C_11  and  C_12
REMARK    9  A    between atoms: C_21  and  O_22
REMARK   10  A    between atoms: O_22  and  C_23
REMARK                            x       y       z     vdW  Elec       q    Type
REMARK                         _______ _______ _______ _____ _____    ______ ____
ROOT
ATOM      1  C   UNL     1      46.465   4.147  13.667  0.00  0.00    +0.000 C 
ENDROOT
BRANCH   1   2
ATOM      2  N   UNL     1      46.385   4.407  15.123  0.00  0.00    +0.000 N 
ATOM      3  H   UNL     1      45.642   3.858  15.554  0.00  0.00    +0.000 HD
BRANCH   2   4
ATOM      4  C   UNL     1      47.563   4.323  15.880  0.00  0.00    +0.000 A 
ATOM      5  C   UNL     1      48.301   5.443  16.273  0.00  0.00    +0.000 A 
ATOM      6  C   UNL     1      49.414   5.320  17.110  0.00  0.00    +0.000 A 
ATOM      7  C   UNL     1      49.793   4.069  17.603  0.00  0.00    +0.000 A 
ATOM      8  C   UNL     1      49.056   2.939  17.242  0.00  0.00    +0.000 A 
ATOM      9  C   UNL     1      47.943   3.074  16.399  0.00  0.00    +0.000 A 
BRANCH   7  10
ATOM     10  C   UNL     1      50.982   4.001  18.492  0.00  0.00    +0.000 C 
ATOM     11  N   UNL     1      50.827   4.393  19.791  0.00  0.00    +0.000 N 
ATOM     12  O   UNL     1      52.076   3.644  18.071  0.00  0.00    +0.000 OA
ATOM     13  H   UNL     1      50.019   4.900  20.118  0.00  0.00    +0.000 HD
ATOM     14  H   UNL     1      51.675   4.446  20.342  0.00  0.00    +0.000 HD
ENDBRANCH   7  10
ENDBRANCH   2   4
ENDBRANCH   1   2
BRANCH   1  15
ATOM     15  C   UNL     1      45.208   4.678  12.926  0.00  0.00    +0.000 C 
BRANCH  15  16
ATOM     16  C   UNL     1      45.303   6.169  12.625  0.00  0.00    +0.000 A 
ATOM     17  C   UNL     1      44.387   6.767  11.758  0.00  0.00    +0.000 A 
ATOM     18  C   UNL     1      44.552   8.106  11.416  0.00  0.00    +0.000 A 
ATOM     19  C   UNL     1      45.614   8.820  11.955  0.00  0.00    +0.000 A 
ATOM     20  C   UNL     1      46.465   8.165  12.827  0.00  0.00    +0.000 A 
ATOM     21  N   UNL     1      46.330   6.866  13.168  0.00  0.00    +0.000 NA
BRANCH  20  22
ATOM     22  O   UNL     1      47.509   8.898  13.352  0.00  0.00    +0.000 OA
ATOM     23  C   UNL     1      48.605   8.075  13.750  0.00  0.00    +0.000 C 
ENDBRANCH  20  22
ENDBRANCH  15  16
BRANCH  15  25
ATOM     24  C   UNL     1      44.876   3.304  10.647  0.00  0.00    +0.000 C 
ATOM     25  C   UNL     1      45.006   3.923  11.670  0.00  0.00    +0.000 C 
BRANCH  24  27
ATOM     26  C   UNL     1      44.931   3.453   8.188  0.00  0.00    +0.000 C 
ATOM     27  C   UNL     1      44.757   2.551   9.396  0.00  0.00    +0.000 C 
ENDBRANCH  24  27
ENDBRANCH  15  25
ENDBRANCH   1  15
TORSDOF 8
ENDMDL
