MODEL 1
REMARK VINA RESULT:    -7.937      0.000      0.000
REMARK INTER + INTRA:          -9.927
REMARK INTER:                  -9.561
REMARK INTRA:                  -0.366
REMARK UNBOUND:                -0.366
REMARK  Name = 
REMARK  4 active torsions:
REMARK  status: ('A' for Active; 'I' for Inactive)
REMARK    1  A    between atoms: N_1  and  C_2
REMARK    2  A    between atoms: C_2  and  C_3
REMARK    3  A    between atoms: C_7  and  C_8
REMARK    4  A    between atoms: C_8  and  N_9
REMARK                            x       y       z     vdW  Elec       q    Type
REMARK                         _______ _______ _______ _____ _____    ______ ____
ROOT
ATOM      1  C   UNL     1      46.705   2.541   6.842  0.00  0.00    +0.000 A 
ATOM      2  C   UNL     1      46.723   1.295   7.457  0.00  0.00    +0.000 A 
ATOM      3  N   UNL     1      45.961   0.961   8.522  0.00  0.00    +0.000 NA
ATOM      4  C   UNL     1      45.122   1.910   8.991  0.00  0.00    +0.000 A 
ATOM      5  C   UNL     1      45.018   3.194   8.465  0.00  0.00    +0.000 A 
ATOM      6  C   UNL     1      45.838   3.503   7.374  0.00  0.00    +0.000 A 
ENDROOT
BRANCH   1   7
ATOM      7  C   UNL     1      47.544   2.824   5.629  0.00  0.00    +0.000 C 
BRANCH   7   8
ATOM      8  N   UNL     1      48.536   1.782   5.393  0.00  0.00    +0.000 NA
ATOM      9  H   UNL     1      48.246   1.225   4.590  0.00  0.00    +0.000 HD
ATOM     10  H   UNL     1      48.546   1.146   6.189  0.00  0.00    +0.000 HD
ENDBRANCH   7   8
ENDBRANCH   1   7
BRANCH   5  11
ATOM     11  C   UNL     1      44.051   4.188   9.040  0.00  0.00    +0.000 C 
BRANCH  11  12
ATOM     12  N   UNL     1      44.139   4.266  10.497  0.00  0.00    +0.000 N 
ATOM     13  C   UNL     1      43.376   3.511  11.356  0.00  0.00    +0.000 A 
ATOM     14  C   UNL     1      43.792   3.774  12.641  0.00  0.00    +0.000 A 
ATOM     15  C   UNL     1      44.855   4.713  12.565  0.00  0.00    +0.000 A 
ATOM     16  C   UNL     1      45.674   5.328  13.534  0.00  0.00    +0.000 A 
ATOM     17  C   UNL     1      46.667   6.225  13.128  0.00  0.00    +0.000 A 
ATOM     18  C   UNL     1      46.844   6.519  11.779  0.00  0.00    +0.000 A 
ATOM     19  C   UNL     1      46.044   5.921  10.801  0.00  0.00    +0.000 A 
ATOM     20  C   UNL     1      45.054   5.014  11.214  0.00  0.00    +0.000 A 
ENDBRANCH  11  12
ENDBRANCH   5  11
TORSDOF 4
ENDMDL
MODEL 2
REMARK VINA RESULT:    -7.224      1.507      2.140
REMARK INTER + INTRA:          -9.068
REMARK INTER:                  -8.699
REMARK INTRA:                  -0.369
REMARK UNBOUND:                -0.366
REMARK  Name = 
REMARK  4 active torsions:
REMARK  status: ('A' for Active; 'I' for Inactive)
REMARK    1  A    between atoms: N_1  and  C_2
REMARK    2  A    between atoms: C_2  and  C_3
REMARK    3  A    between atoms: C_7  and  C_8
REMARK    4  A    between atoms: C_8  and  N_9
REMARK                            x       y       z     vdW  Elec       q    Type
REMARK                         _______ _______ _______ _____ _____    ______ ____
ROOT
ATOM      1  C   UNL     1      46.524   1.974   7.558  0.00  0.00    +0.000 A 
ATOM      2  C   UNL     1      46.827   3.177   6.932  0.00  0.00    +0.000 A 
ATOM      3  N   UNL     1      46.350   4.380   7.323  0.00  0.00    +0.000 NA
ATOM      4  C   UNL     1      45.541   4.390   8.405  0.00  0.00    +0.000 A 
ATOM      5  C   UNL     1      45.160   3.252   9.110  0.00  0.00    +0.000 A 
ATOM      6  C   UNL     1      45.664   2.027   8.661  0.00  0.00    +0.000 A 
ENDROOT
BRANCH   1   7
ATOM      7  C   UNL     1      47.134   0.681   7.098  0.00  0.00    +0.000 C 
BRANCH   7   8
ATOM      8  N   UNL     1      46.718  -0.446   7.924  0.00  0.00    +0.000 NA
ATOM      9  H   UNL     1      47.445  -1.161   7.897  0.00  0.00    +0.000 HD
ATOM     10  H   UNL     1      45.889  -0.872   7.512  0.00  0.00    +0.000 HD
ENDBRANCH   7   8
ENDBRANCH   1   7
BRANCH   5  11
ATOM     11  C   UNL     1      44.264   3.353  10.311  0.00  0.00    +0.000 C 
BRANCH  11  12
ATOM     12  N   UNL     1      44.952   3.920  11.469  0.00  0.00    +0.000 N 
ATOM     13  C   UNL     1      45.649   3.176  12.391  0.00  0.00    +0.000 A 
ATOM     14  C   UNL     1      46.242   4.043  13.280  0.00  0.00    +0.000 A 
ATOM     15  C   UNL     1      45.907   5.364  12.881  0.00  0.00    +0.000 A 
ATOM     16  C   UNL     1      46.236   6.640  13.383  0.00  0.00    +0.000 A 
ATOM     17  C   UNL     1      45.743   7.781  12.742  0.00  0.00    +0.000 A 
ATOM     18  C   UNL     1      44.927   7.664  11.621  0.00  0.00    +0.000 A 
ATOM     19  C   UNL     1      44.588   6.409  11.105  0.00  0.00    +0.000 A 
ATOM     20  C   UNL     1      45.093   5.267  11.747  0.00  0.00    +0.000 A 
ENDBRANCH  11  12
ENDBRANCH   5  11
TORSDOF 4
ENDMDL
MODEL 3
REMARK VINA RESULT:    -7.201      1.962      6.086
REMARK INTER + INTRA:          -9.040
REMARK INTER:                  -8.609
REMARK INTRA:                  -0.431
REMARK UNBOUND:                -0.366
REMARK  Name = 
REMARK  4 active torsions:
REMARK  status: ('A' for Active; 'I' for Inactive)
REMARK    1  A    between atoms: N_1  and  C_2
REMARK    2  A    between atoms: C_2  and  C_3
REMARK    3  A    between atoms: C_7  and  C_8
REMARK    4  A    between atoms: C_8  and  N_9
REMARK                            x       y       z     vdW  Elec       q    Type
REMARK                         _______ _______ _______ _____ _____    ______ ____
ROOT
ATOM      1  C   UNL     1      45.575   4.496  13.171  0.00  0.00    +0.000 A 
ATOM      2  C   UNL     1      44.428   5.168  13.577  0.00  0.00    +0.000 A 
ATOM      3  N   UNL     1      43.244   5.113  12.928  0.00  0.00    +0.000 NA
ATOM      4  C   UNL     1      43.190   4.333  11.826  0.00  0.00    +0.000 A 
ATOM      5  C   UNL     1      44.271   3.619  11.318  0.00  0.00    +0.000 A 
ATOM      6  C   UNL     1      45.482   3.718  12.011  0.00  0.00    +0.000 A 
ENDROOT
BRANCH   1   7
ATOM      7  C   UNL     1      46.843   4.563  13.973  0.00  0.00    +0.000 C 
BRANCH   7   8
ATOM      8  N   UNL     1      47.308   3.242  14.377  0.00  0.00    +0.000 NA
ATOM      9  H   UNL     1      47.789   3.321  15.272  0.00  0.00    +0.000 HD
ATOM     10  H   UNL     1      48.006   2.917  13.709  0.00  0.00    +0.000 HD
ENDBRANCH   7   8
ENDBRANCH   1   7
BRANCH   5  11
ATOM     11  C   UNL     1      44.124   2.767  10.090  0.00  0.00    +0.000 C 
BRANCH  11  12
ATOM     12  N   UNL     1      45.009   3.197   9.009  0.00  0.00    +0.000 N 
ATOM     13  C   UNL     1      45.218   4.510   8.661  0.00  0.00    +0.000 A 
ATOM     14  C   UNL     1      46.177   4.544   7.675  0.00  0.00    +0.000 A 
ATOM     15  C   UNL     1      46.580   3.206   7.421  0.00  0.00    +0.000 A 
ATOM     16  C   UNL     1      47.526   2.629   6.549  0.00  0.00    +0.000 A 
ATOM     17  C   UNL     1      47.700   1.241   6.541  0.00  0.00    +0.000 A 
ATOM     18  C   UNL     1      46.940   0.430   7.379  0.00  0.00    +0.000 A 
ATOM     19  C   UNL     1      45.996   0.980   8.252  0.00  0.00    +0.000 A 
ATOM     20  C   UNL     1      45.832   2.375   8.262  0.00  0.00    +0.000 A 
ENDBRANCH  11  12
ENDBRANCH   5  11
TORSDOF 4
ENDMDL
MODEL 4
REMARK VINA RESULT:    -6.555      1.702      2.872
REMARK INTER + INTRA:          -8.263
REMARK INTER:                  -7.755
REMARK INTRA:                  -0.508
REMARK UNBOUND:                -0.366
REMARK  Name = 
REMARK  4 active torsions:
REMARK  status: ('A' for Active; 'I' for Inactive)
REMARK    1  A    between atoms: N_1  and  C_2
REMARK    2  A    between atoms: C_2  and  C_3
REMARK    3  A    between atoms: C_7  and  C_8
REMARK    4  A    between atoms: C_8  and  N_9
REMARK                            x       y       z     vdW  Elec       q    Type
REMARK                         _______ _______ _______ _____ _____    ______ ____
ROOT
ATOM      1  C   UNL     1      45.270   3.383   8.530  0.00  0.00    +0.000 A 
ATOM      2  C   UNL     1      44.531   2.305   9.001  0.00  0.00    +0.000 A 
ATOM      3  N   UNL     1      43.855   2.299  10.171  0.00  0.00    +0.000 NA
ATOM      4  C   UNL     1      43.900   3.432  10.906  0.00  0.00    +0.000 A 
ATOM      5  C   UNL     1      44.610   4.573  10.543  0.00  0.00    +0.000 A 
ATOM      6  C   UNL     1      45.310   4.530   9.333  0.00  0.00    +0.000 A 
ENDROOT
BRANCH   1   7
ATOM      7  C   UNL     1      45.954   3.335   7.194  0.00  0.00    +0.000 C 
BRANCH   7   8
ATOM      8  N   UNL     1      46.980   4.364   7.065  0.00  0.00    +0.000 NA
ATOM      9  H   UNL     1      47.308   4.621   7.996  0.00  0.00    +0.000 HD
ATOM     10  H   UNL     1      46.559   5.205   6.672  0.00  0.00    +0.000 HD
ENDBRANCH   7   8
ENDBRANCH   1   7
BRANCH   5  11
ATOM     11  C   UNL     1      44.600   5.797  11.413  0.00  0.00    +0.000 C 
BRANCH  11  12
ATOM     12  N   UNL     1      45.655   5.765  12.425  0.00  0.00    +0.000 N 
ATOM     13  C   UNL     1      45.622   4.972  13.547  0.00  0.00    +0.000 A 
ATOM     14  C   UNL     1      46.815   5.128  14.216  0.00  0.00    +0.000 A 
ATOM     15  C   UNL     1      47.611   6.036  13.470  0.00  0.00    +0.000 A 
ATOM     16  C   UNL     1      48.911   6.554  13.644  0.00  0.00    +0.000 A 
ATOM     17  C   UNL     1      49.429   7.448  12.702  0.00  0.00    +0.000 A 
ATOM     18  C   UNL     1      48.669   7.834  11.603  0.00  0.00    +0.000 A 
ATOM     19  C   UNL     1      47.377   7.334  11.409  0.00  0.00    +0.000 A 
ATOM     20  C   UNL     1      46.865   6.430  12.353  0.00  0.00    +0.000 A 
ENDBRANCH  11  12
ENDBRANCH   5  11
TORSDOF 4
ENDMDL
MODEL 5
REMARK VINA RESULT:    -6.527      1.722      5.685
REMARK INTER + INTRA:          -8.229
REMARK INTER:                  -7.669
REMARK INTRA:                  -0.560
REMARK UNBOUND:                -0.366
REMARK  Name = 
REMARK  4 active torsions:
REMARK  status: ('A' for Active; 'I' for Inactive)
REMARK    1  A    between atoms: N_1  and  C_2
REMARK    2  A    between atoms: C_2  and  C_3
REMARK    3  A    between atoms: C_7  and  C_8
REMARK    4  A    between atoms: C_8  and  N_9
REMARK                            x       y       z     vdW  Elec       q    Type
REMARK                         _______ _______ _______ _____ _____    ______ ____
ROOT
ATOM      1  C   UNL     1      45.868   5.843  12.341  0.00  0.00    +0.000 A 
ATOM      2  C   UNL     1      44.799   5.657  13.208  0.00  0.00    +0.000 A 
ATOM      3  N   UNL     1      43.600   5.153  12.841  0.00  0.00    +0.000 NA
ATOM      4  C   UNL     1      43.461   4.799  11.544  0.00  0.00    +0.000 A 
ATOM      5  C   UNL     1      44.455   4.943  10.582  0.00  0.00    +0.000 A 
ATOM      6  C   UNL     1      45.675   5.484  11.002  0.00  0.00    +0.000 A 
ENDROOT
BRANCH   1   7
ATOM      7  C   UNL     1      47.190   6.360  12.833  0.00  0.00    +0.000 C 
BRANCH   7   8
ATOM      8  N   UNL     1      47.879   7.154  11.822  0.00  0.00    +0.000 NA
ATOM      9  H   UNL     1      48.831   7.336  12.139  0.00  0.00    +0.000 HD
ATOM     10  H   UNL     1      47.426   8.064  11.750  0.00  0.00    +0.000 HD
ENDBRANCH   7   8
ENDBRANCH   1   7
BRANCH   5  11
ATOM     11  C   UNL     1      44.222   4.513   9.162  0.00  0.00    +0.000 C 
BRANCH  11  12
ATOM     12  N   UNL     1      44.854   3.230   8.862  0.00  0.00    +0.000 N 
ATOM     13  C   UNL     1      44.392   2.018   9.318  0.00  0.00    +0.000 A 
ATOM     14  C   UNL     1      45.170   1.028   8.763  0.00  0.00    +0.000 A 
ATOM     15  C   UNL     1      46.132   1.653   7.927  0.00  0.00    +0.000 A 
ATOM     16  C   UNL     1      47.162   1.162   7.100  0.00  0.00    +0.000 A 
ATOM     17  C   UNL     1      47.954   2.059   6.376  0.00  0.00    +0.000 A 
ATOM     18  C   UNL     1      47.736   3.430   6.475  0.00  0.00    +0.000 A 
ATOM     19  C   UNL     1      46.720   3.941   7.289  0.00  0.00    +0.000 A 
ATOM     20  C   UNL     1      45.923   3.035   8.006  0.00  0.00    +0.000 A 
ENDBRANCH  11  12
ENDBRANCH   5  11
TORSDOF 4
ENDMDL
MODEL 6
REMARK VINA RESULT:    -6.382      2.753      5.674
REMARK INTER + INTRA:          -8.054
REMARK INTER:                  -7.553
REMARK INTRA:                  -0.501
REMARK UNBOUND:                -0.366
REMARK  Name = 
REMARK  4 active torsions:
REMARK  status: ('A' for Active; 'I' for Inactive)
REMARK    1  A    between atoms: N_1  and  C_2
REMARK    2  A    between atoms: C_2  and  C_3
REMARK    3  A    between atoms: C_7  and  C_8
REMARK    4  A    between atoms: C_8  and  N_9
REMARK                            x       y       z     vdW  Elec       q    Type
REMARK                         _______ _______ _______ _____ _____    ______ ____
ROOT
ATOM      1  C   UNL     1      48.043   7.660  12.396  0.00  0.00    +0.000 A 
ATOM      2  C   UNL     1      48.622   6.755  13.277  0.00  0.00    +0.000 A 
ATOM      3  N   UNL     1      47.964   5.723  13.851  0.00  0.00    +0.000 NA
ATOM      4  C   UNL     1      46.663   5.572  13.518  0.00  0.00    +0.000 A 
ATOM      5  C   UNL     1      45.972   6.415  12.654  0.00  0.00    +0.000 A 
ATOM      6  C   UNL     1      46.687   7.480  12.095  0.00  0.00    +0.000 A 
ENDROOT
BRANCH   1   7
ATOM      7  C   UNL     1      48.851   8.752  11.756  0.00  0.00    +0.000 C 
BRANCH   7   8
ATOM      8  N   UNL     1      50.120   8.968  12.440  0.00  0.00    +0.000 NA
ATOM      9  H   UNL     1      50.314   8.165  13.037  0.00  0.00    +0.000 HD
ATOM     10  H   UNL     1      50.028   9.768  13.066  0.00  0.00    +0.000 HD
ENDBRANCH   7   8
ENDBRANCH   1   7
BRANCH   5  11
ATOM     11  C   UNL     1      44.527   6.169  12.328  0.00  0.00    +0.000 C 
BRANCH  11  12
ATOM     12  N   UNL     1      44.297   4.819  11.816  0.00  0.00    +0.000 N 
ATOM     13  C   UNL     1      43.552   3.866  12.466  0.00  0.00    +0.000 A 
ATOM     14  C   UNL     1      43.470   2.758  11.654  0.00  0.00    +0.000 A 
ATOM     15  C   UNL     1      44.179   3.049  10.458  0.00  0.00    +0.000 A 
ATOM     16  C   UNL     1      44.419   2.324   9.273  0.00  0.00    +0.000 A 
ATOM     17  C   UNL     1      45.168   2.907   8.247  0.00  0.00    +0.000 A 
ATOM     18  C   UNL     1      45.681   4.193   8.391  0.00  0.00    +0.000 A 
ATOM     19  C   UNL     1      45.456   4.932   9.557  0.00  0.00    +0.000 A 
ATOM     20  C   UNL     1      44.696   4.344  10.581  0.00  0.00    +0.000 A 
ENDBRANCH  11  12
ENDBRANCH   5  11
TORSDOF 4
ENDMDL
MODEL 7
REMARK VINA RESULT:    -6.280      1.446      2.339
REMARK INTER + INTRA:          -7.931
REMARK INTER:                  -7.444
REMARK INTRA:                  -0.486
REMARK UNBOUND:                -0.366
REMARK  Name = 
REMARK  4 active torsions:
REMARK  status: ('A' for Active; 'I' for Inactive)
REMARK    1  A    between atoms: N_1  and  C_2
REMARK    2  A    between atoms: C_2  and  C_3
REMARK    3  A    between atoms: C_7  and  C_8
REMARK    4  A    between atoms: C_8  and  N_9
REMARK                            x       y       z     vdW  Elec       q    Type
REMARK                         _______ _______ _______ _____ _____    ______ ____
ROOT
ATOM      1  C   UNL     1      45.962   3.420   7.984  0.00  0.00    +0.000 A 
ATOM      2  C   UNL     1      45.603   2.098   8.221  0.00  0.00    +0.000 A 
ATOM      3  N   UNL     1      44.730   1.706   9.175  0.00  0.00    +0.000 NA
ATOM      4  C   UNL     1      44.169   2.681   9.923  0.00  0.00    +0.000 A 
ATOM      5  C   UNL     1      44.452   4.036   9.785  0.00  0.00    +0.000 A 
ATOM      6  C   UNL     1      45.374   4.396   8.796  0.00  0.00    +0.000 A 
ENDROOT
BRANCH   1   7
ATOM      7  C   UNL     1      46.901   3.785   6.870  0.00  0.00    +0.000 C 
BRANCH   7   8
ATOM      8  N   UNL     1      46.752   2.905   5.716  0.00  0.00    +0.000 NA
ATOM      9  H   UNL     1      46.607   3.475   4.884  0.00  0.00    +0.000 HD
ATOM     10  H   UNL     1      45.905   2.350   5.829  0.00  0.00    +0.000 HD
ENDBRANCH   7   8
ENDBRANCH   1   7
BRANCH   5  11
ATOM     11  C   UNL     1      43.775   5.058  10.652  0.00  0.00    +0.000 C 
BRANCH  11  12
ATOM     12  N   UNL     1      44.733   5.893  11.374  0.00  0.00    +0.000 N 
ATOM     13  C   UNL     1      44.818   7.259  11.242  0.00  0.00    +0.000 A 
ATOM     14  C   UNL     1      45.758   7.718  12.136  0.00  0.00    +0.000 A 
ATOM     15  C   UNL     1      46.257   6.596  12.850  0.00  0.00    +0.000 A 
ATOM     16  C   UNL     1      47.203   6.449  13.885  0.00  0.00    +0.000 A 
ATOM     17  C   UNL     1      47.475   5.175  14.395  0.00  0.00    +0.000 A 
ATOM     18  C   UNL     1      46.825   4.057  13.882  0.00  0.00    +0.000 A 
ATOM     19  C   UNL     1      45.883   4.177  12.856  0.00  0.00    +0.000 A 
ATOM     20  C   UNL     1      45.607   5.460  12.354  0.00  0.00    +0.000 A 
ENDBRANCH  11  12
ENDBRANCH   5  11
TORSDOF 4
ENDMDL
MODEL 8
REMARK VINA RESULT:    -5.906      2.381      4.548
REMARK INTER + INTRA:          -7.481
REMARK INTER:                  -6.942
REMARK INTRA:                  -0.539
REMARK UNBOUND:                -0.366
REMARK  Name = 
REMARK  4 active torsions:
REMARK  status: ('A' for Active; 'I' for Inactive)
REMARK    1  A    between atoms: N_1  and  C_2
REMARK    2  A    between atoms: C_2  and  C_3
REMARK    3  A    between atoms: C_7  and  C_8
REMARK    4  A    between atoms: C_8  and  N_9
REMARK                            x       y       z     vdW  Elec       q    Type
REMARK                         _______ _______ _______ _____ _____    ______ ____
ROOT
ATOM      1  C   UNL     1      44.747   4.037  10.214  0.00  0.00    +0.000 A 
ATOM      2  C   UNL     1      43.755   3.237  10.767  0.00  0.00    +0.000 A 
ATOM      3  N   UNL     1      43.466   3.186  12.086  0.00  0.00    +0.000 NA
ATOM      4  C   UNL     1      44.192   3.985  12.899  0.00  0.00    +0.000 A 
ATOM      5  C   UNL     1      45.214   4.823  12.465  0.00  0.00    +0.000 A 
ATOM      6  C   UNL     1      45.491   4.833  11.094  0.00  0.00    +0.000 A 
ENDROOT
BRANCH   1   7
ATOM      7  C   UNL     1      44.977   4.082   8.730  0.00  0.00    +0.000 C 
BRANCH   7   8
ATOM      8  N   UNL     1      45.960   5.091   8.357  0.00  0.00    +0.000 NA
ATOM      9  H   UNL     1      45.733   5.964   8.832  0.00  0.00    +0.000 HD
ATOM     10  H   UNL     1      45.876   5.283   7.359  0.00  0.00    +0.000 HD
ENDBRANCH   7   8
ENDBRANCH   1   7
BRANCH   5  11
ATOM     11  C   UNL     1      45.966   5.689  13.435  0.00  0.00    +0.000 C 
BRANCH  11  12
ATOM     12  N   UNL     1      46.249   7.014  12.888  0.00  0.00    +0.000 N 
ATOM     13  C   UNL     1      45.318   8.020  12.786  0.00  0.00    +0.000 A 
ATOM     14  C   UNL     1      45.955   9.148  12.321  0.00  0.00    +0.000 A 
ATOM     15  C   UNL     1      47.327   8.825  12.145  0.00  0.00    +0.000 A 
ATOM     16  C   UNL     1      48.450   9.565  11.720  0.00  0.00    +0.000 A 
ATOM     17  C   UNL     1      49.702   8.945  11.661  0.00  0.00    +0.000 A 
ATOM     18  C   UNL     1      49.844   7.606  12.010  0.00  0.00    +0.000 A 
ATOM     19  C   UNL     1      48.745   6.851  12.434  0.00  0.00    +0.000 A 
ATOM     20  C   UNL     1      47.491   7.481  12.500  0.00  0.00    +0.000 A 
ENDBRANCH  11  12
ENDBRANCH   5  11
TORSDOF 4
ENDMDL
MODEL 9
REMARK VINA RESULT:    -5.815      2.819      5.134
REMARK INTER + INTRA:          -7.372
REMARK INTER:                  -6.928
REMARK INTRA:                  -0.443
REMARK UNBOUND:                -0.366
REMARK  Name = 
REMARK  4 active torsions:
REMARK  status: ('A' for Active; 'I' for Inactive)
REMARK    1  A    between atoms: N_1  and  C_2
REMARK    2  A    between atoms: C_2  and  C_3
REMARK    3  A    between atoms: C_7  and  C_8
REMARK    4  A    between atoms: C_8  and  N_9
REMARK                            x       y       z     vdW  Elec       q    Type
REMARK                         _______ _______ _______ _____ _____    ______ ____
ROOT
ATOM      1  C   UNL     1      44.885   4.286  10.549  0.00  0.00    +0.000 A 
ATOM      2  C   UNL     1      44.659   3.295  11.497  0.00  0.00    +0.000 A 
ATOM      3  N   UNL     1      44.763   3.481  12.831  0.00  0.00    +0.000 NA
ATOM      4  C   UNL     1      45.094   4.723  13.248  0.00  0.00    +0.000 A 
ATOM      5  C   UNL     1      45.351   5.793  12.397  0.00  0.00    +0.000 A 
ATOM      6  C   UNL     1      45.248   5.552  11.023  0.00  0.00    +0.000 A 
ENDROOT
BRANCH   1   7
ATOM      7  C   UNL     1      44.699   4.019   9.083  0.00  0.00    +0.000 C 
BRANCH   7   8
ATOM      8  N   UNL     1      45.576   4.844   8.259  0.00  0.00    +0.000 NA
ATOM      9  H   UNL     1      45.647   5.770   8.679  0.00  0.00    +0.000 HD
ATOM     10  H   UNL     1      45.142   4.980   7.347  0.00  0.00    +0.000 HD
ENDBRANCH   7   8
ENDBRANCH   1   7
BRANCH   5  11
ATOM     11  C   UNL     1      45.703   7.146  12.944  0.00  0.00    +0.000 C 
BRANCH  11  12
ATOM     12  N   UNL     1      47.092   7.509  12.669  0.00  0.00    +0.000 N 
ATOM     13  C   UNL     1      48.149   6.635  12.756  0.00  0.00    +0.000 A 
ATOM     14  C   UNL     1      49.284   7.291  12.337  0.00  0.00    +0.000 A 
ATOM     15  C   UNL     1      48.906   8.609  11.966  0.00  0.00    +0.000 A 
ATOM     16  C   UNL     1      49.619   9.711  11.452  0.00  0.00    +0.000 A 
ATOM     17  C   UNL     1      48.940  10.902  11.173  0.00  0.00    +0.000 A 
ATOM     18  C   UNL     1      47.572  11.005  11.408  0.00  0.00    +0.000 A 
ATOM     19  C   UNL     1      46.844   9.925  11.917  0.00  0.00    +0.000 A 
ATOM     20  C   UNL     1      47.530   8.729  12.187  0.00  0.00    +0.000 A 
ENDBRANCH  11  12
ENDBRANCH   5  11
TORSDOF 4
ENDMDL
