MODEL 1
REMARK VINA RESULT:    -9.766      0.000      0.000
REMARK INTER + INTRA:         -13.508
REMARK INTER:                 -12.621
REMARK INTRA:                  -0.888
REMARK UNBOUND:                -0.888
REMARK  Name = 
REMARK  5 active torsions:
REMARK  status: ('A' for Active; 'I' for Inactive)
REMARK    1  A    between atoms: C_2  and  C_4
REMARK    2  A    between atoms: N_8  and  C_9
REMARK    3  A    between atoms: C_9  and  C_10
REMARK    4  A    between atoms: C_10  and  C_13
REMARK    5  A    between atoms: C_15  and  C_16
REMARK                            x       y       z     vdW  Elec       q    Type
REMARK                         _______ _______ _______ _____ _____    ______ ____
ROOT
ATOM      1  C   UNL     1      43.456   4.635  12.451  0.00  0.00    +0.000 C 
ATOM      2  F   UNL     1      42.539   5.587  12.797  0.00  0.00    +0.000 F 
ATOM      3  F   UNL     1      43.064   3.509  13.124  0.00  0.00    +0.000 F 
ENDROOT
BRANCH   1   4
ATOM      4  C   UNL     1      44.863   5.056  12.815  0.00  0.00    +0.000 A 
ATOM      5  C   UNL     1      45.540   4.489  13.911  0.00  0.00    +0.000 A 
ATOM      6  C   UNL     1      46.861   4.863  14.239  0.00  0.00    +0.000 A 
ATOM      7  C   UNL     1      47.493   5.815  13.421  0.00  0.00    +0.000 A 
ATOM      8  C   UNL     1      46.833   6.387  12.335  0.00  0.00    +0.000 A 
ATOM      9  C   UNL     1      45.527   6.012  12.052  0.00  0.00    +0.000 A 
ATOM     10  F   UNL     1      44.922   6.572  10.995  0.00  0.00    +0.000 F 
BRANCH   6  11
ATOM     11  C   UNL     1      47.560   4.251  15.388  0.00  0.00    +0.000 A 
ATOM     12  C   UNL     1      47.980   4.990  16.496  0.00  0.00    +0.000 A 
ATOM     13  C   UNL     1      48.678   4.350  17.518  0.00  0.00    +0.000 A 
ATOM     14  C   UNL     1      48.933   2.991  17.416  0.00  0.00    +0.000 A 
ATOM     15  C   UNL     1      48.469   2.322  16.298  0.00  0.00    +0.000 A 
ATOM     16  N   UNL     1      47.793   2.918  15.291  0.00  0.00    +0.000 NA
ENDBRANCH   6  11
ENDBRANCH   1   4
BRANCH   1  17
ATOM     17  C   UNL     1      43.335   4.354  10.932  0.00  0.00    +0.000 C 
BRANCH  17  22
ATOM     18  C   UNL     1      46.619   2.615   7.387  0.00  0.00    +0.000 A 
ATOM     19  C   UNL     1      46.157   3.897   7.659  0.00  0.00    +0.000 A 
ATOM     20  C   UNL     1      45.256   4.082   8.709  0.00  0.00    +0.000 A 
ATOM     21  C   UNL     1      44.818   2.990   9.455  0.00  0.00    +0.000 A 
ATOM     22  N   UNL     1      43.946   3.100  10.502  0.00  0.00    +0.000 N 
ATOM     23  N   UNL     1      45.255   1.745   9.190  0.00  0.00    +0.000 NA
ATOM     24  C   UNL     1      46.137   1.578   8.170  0.00  0.00    +0.000 A 
ATOM     25  H   UNL     1      43.623   2.218  10.885  0.00  0.00    +0.000 HD
BRANCH  18  27
ATOM     26  N   UNL     1      47.466   3.093   5.163  0.00  0.00    +0.000 N 
ATOM     27  C   UNL     1      47.559   2.322   6.288  0.00  0.00    +0.000 C 
ATOM     28  O   UNL     1      48.404   1.442   6.385  0.00  0.00    +0.000 OA
ATOM     29  H   UNL     1      48.174   2.940   4.454  0.00  0.00    +0.000 HD
ATOM     30  H   UNL     1      46.970   3.972   5.144  0.00  0.00    +0.000 HD
ENDBRANCH  18  27
ENDBRANCH  17  22
ENDBRANCH   1  17
TORSDOF 5
ENDMDL
MODEL 2
REMARK VINA RESULT:    -9.489      2.529      4.204
REMARK INTER + INTRA:         -13.150
REMARK INTER:                 -12.123
REMARK INTRA:                  -1.027
REMARK UNBOUND:                -0.888
REMARK  Name = 
REMARK  5 active torsions:
REMARK  status: ('A' for Active; 'I' for Inactive)
REMARK    1  A    between atoms: C_2  and  C_4
REMARK    2  A    between atoms: N_8  and  C_9
REMARK    3  A    between atoms: C_9  and  C_10
REMARK    4  A    between atoms: C_10  and  C_13
REMARK    5  A    between atoms: C_15  and  C_16
REMARK                            x       y       z     vdW  Elec       q    Type
REMARK                         _______ _______ _______ _____ _____    ______ ____
ROOT
ATOM      1  C   UNL     1      43.244   4.906  12.566  0.00  0.00    +0.000 C 
ATOM      2  F   UNL     1      42.290   5.875  12.687  0.00  0.00    +0.000 F 
ATOM      3  F   UNL     1      42.990   4.034  13.591  0.00  0.00    +0.000 F 
ENDROOT
BRANCH   1   4
ATOM      4  C   UNL     1      44.641   5.483  12.644  0.00  0.00    +0.000 A 
ATOM      5  C   UNL     1      44.878   6.860  12.468  0.00  0.00    +0.000 A 
ATOM      6  C   UNL     1      46.176   7.405  12.562  0.00  0.00    +0.000 A 
ATOM      7  C   UNL     1      47.234   6.528  12.856  0.00  0.00    +0.000 A 
ATOM      8  C   UNL     1      47.014   5.162  13.029  0.00  0.00    +0.000 A 
ATOM      9  C   UNL     1      45.727   4.655  12.910  0.00  0.00    +0.000 A 
ATOM     10  F   UNL     1      45.545   3.340  13.091  0.00  0.00    +0.000 F 
BRANCH   6  11
ATOM     11  C   UNL     1      46.406   8.854  12.384  0.00  0.00    +0.000 A 
ATOM     12  C   UNL     1      45.396   9.734  11.992  0.00  0.00    +0.000 A 
ATOM     13  C   UNL     1      45.702  11.079  11.795  0.00  0.00    +0.000 A 
ATOM     14  C   UNL     1      47.001  11.516  12.004  0.00  0.00    +0.000 A 
ATOM     15  C   UNL     1      47.944  10.589  12.412  0.00  0.00    +0.000 A 
ATOM     16  N   UNL     1      47.675   9.278  12.605  0.00  0.00    +0.000 NA
ENDBRANCH   6  11
ENDBRANCH   1   4
BRANCH   1  17
ATOM     17  C   UNL     1      43.027   4.153  11.229  0.00  0.00    +0.000 C 
BRANCH  17  22
ATOM     18  C   UNL     1      46.389   2.466   7.732  0.00  0.00    +0.000 A 
ATOM     19  C   UNL     1      45.698   1.800   8.738  0.00  0.00    +0.000 A 
ATOM     20  C   UNL     1      44.825   2.523   9.552  0.00  0.00    +0.000 A 
ATOM     21  C   UNL     1      44.668   3.894   9.364  0.00  0.00    +0.000 A 
ATOM     22  N   UNL     1      43.824   4.661  10.117  0.00  0.00    +0.000 N 
ATOM     23  N   UNL     1      45.342   4.547   8.398  0.00  0.00    +0.000 NA
ATOM     24  C   UNL     1      46.185   3.831   7.608  0.00  0.00    +0.000 A 
ATOM     25  H   UNL     1      43.890   5.660   9.952  0.00  0.00    +0.000 HD
BRANCH  18  27
ATOM     26  N   UNL     1      48.444   2.498   6.440  0.00  0.00    +0.000 N 
ATOM     27  C   UNL     1      47.345   1.788   6.836  0.00  0.00    +0.000 C 
ATOM     28  O   UNL     1      47.176   0.629   6.479  0.00  0.00    +0.000 OA
ATOM     29  H   UNL     1      49.135   1.992   5.899  0.00  0.00    +0.000 HD
ATOM     30  H   UNL     1      48.744   3.343   6.906  0.00  0.00    +0.000 HD
ENDBRANCH  18  27
ENDBRANCH  17  22
ENDBRANCH   1  17
TORSDOF 5
ENDMDL
MODEL 3
REMARK VINA RESULT:    -9.163      2.454      3.067
REMARK INTER + INTRA:         -12.729
REMARK INTER:                 -11.675
REMARK INTRA:                  -1.054
REMARK UNBOUND:                -0.888
REMARK  Name = 
REMARK  5 active torsions:
REMARK  status: ('A' for Active; 'I' for Inactive)
REMARK    1  A    between atoms: C_2  and  C_4
REMARK    2  A    between atoms: N_8  and  C_9
REMARK    3  A    between atoms: C_9  and  C_10
REMARK    4  A    between atoms: C_10  and  C_13
REMARK    5  A    between atoms: C_15  and  C_16
REMARK                            x       y       z     vdW  Elec       q    Type
REMARK                         _______ _______ _______ _____ _____    ______ ____
ROOT
ATOM      1  C   UNL     1      44.046   3.891  12.518  0.00  0.00    +0.000 C 
ATOM      2  F   UNL     1      43.163   3.863  13.559  0.00  0.00    +0.000 F 
ATOM      3  F   UNL     1      45.049   3.034  12.885  0.00  0.00    +0.000 F 
ENDROOT
BRANCH   1   4
ATOM      4  C   UNL     1      44.560   5.291  12.260  0.00  0.00    +0.000 A 
ATOM      5  C   UNL     1      45.891   5.651  12.546  0.00  0.00    +0.000 A 
ATOM      6  C   UNL     1      46.379   6.949  12.284  0.00  0.00    +0.000 A 
ATOM      7  C   UNL     1      45.494   7.877  11.709  0.00  0.00    +0.000 A 
ATOM      8  C   UNL     1      44.173   7.536  11.425  0.00  0.00    +0.000 A 
ATOM      9  C   UNL     1      43.719   6.256  11.712  0.00  0.00    +0.000 A 
ATOM     10  F   UNL     1      42.447   5.954  11.418  0.00  0.00    +0.000 F 
BRANCH   6  11
ATOM     11  C   UNL     1      47.781   7.307  12.582  0.00  0.00    +0.000 A 
ATOM     12  C   UNL     1      48.653   7.810  11.614  0.00  0.00    +0.000 A 
ATOM     13  C   UNL     1      49.976   8.077  11.959  0.00  0.00    +0.000 A 
ATOM     14  C   UNL     1      50.396   7.847  13.261  0.00  0.00    +0.000 A 
ATOM     15  C   UNL     1      49.470   7.366  14.169  0.00  0.00    +0.000 A 
ATOM     16  N   UNL     1      48.182   7.094  13.860  0.00  0.00    +0.000 NA
ENDBRANCH   6  11
ENDBRANCH   1   4
BRANCH   1  17
ATOM     17  C   UNL     1      43.354   3.312  11.258  0.00  0.00    +0.000 C 
BRANCH  17  22
ATOM     18  C   UNL     1      46.566   2.712   7.296  0.00  0.00    +0.000 A 
ATOM     19  C   UNL     1      45.941   3.843   7.808  0.00  0.00    +0.000 A 
ATOM     20  C   UNL     1      45.109   3.711   8.921  0.00  0.00    +0.000 A 
ATOM     21  C   UNL     1      44.901   2.458   9.493  0.00  0.00    +0.000 A 
ATOM     22  N   UNL     1      44.109   2.258  10.588  0.00  0.00    +0.000 N 
ATOM     23  N   UNL     1      45.496   1.358   8.995  0.00  0.00    +0.000 NA
ATOM     24  C   UNL     1      46.308   1.500   7.915  0.00  0.00    +0.000 A 
ATOM     25  H   UNL     1      43.953   1.286  10.832  0.00  0.00    +0.000 HD
BRANCH  18  27
ATOM     26  N   UNL     1      48.781   2.535   6.319  0.00  0.00    +0.000 N 
ATOM     27  C   UNL     1      47.447   2.753   6.114  0.00  0.00    +0.000 C 
ATOM     28  O   UNL     1      47.003   2.950   4.990  0.00  0.00    +0.000 OA
ATOM     29  H   UNL     1      49.360   2.477   5.489  0.00  0.00    +0.000 HD
ATOM     30  H   UNL     1      49.141   2.124   7.168  0.00  0.00    +0.000 HD
ENDBRANCH  18  27
ENDBRANCH  17  22
ENDBRANCH   1  17
TORSDOF 5
ENDMDL
MODEL 4
REMARK VINA RESULT:    -9.040      2.660      4.748
REMARK INTER + INTRA:         -12.570
REMARK INTER:                 -11.622
REMARK INTRA:                  -0.948
REMARK UNBOUND:                -0.888
REMARK  Name = 
REMARK  5 active torsions:
REMARK  status: ('A' for Active; 'I' for Inactive)
REMARK    1  A    between atoms: C_2  and  C_4
REMARK    2  A    between atoms: N_8  and  C_9
REMARK    3  A    between atoms: C_9  and  C_10
REMARK    4  A    between atoms: C_10  and  C_13
REMARK    5  A    between atoms: C_15  and  C_16
REMARK                            x       y       z     vdW  Elec       q    Type
REMARK                         _______ _______ _______ _____ _____    ______ ____
ROOT
ATOM      1  C   UNL     1      43.962   4.161  12.554  0.00  0.00    +0.000 C 
ATOM      2  F   UNL     1      42.927   4.442  13.399  0.00  0.00    +0.000 F 
ATOM      3  F   UNL     1      44.585   3.076  13.109  0.00  0.00    +0.000 F 
ENDROOT
BRANCH   1   4
ATOM      4  C   UNL     1      44.899   5.341  12.407  0.00  0.00    +0.000 A 
ATOM      5  C   UNL     1      44.427   6.611  12.026  0.00  0.00    +0.000 A 
ATOM      6  C   UNL     1      45.294   7.719  11.911  0.00  0.00    +0.000 A 
ATOM      7  C   UNL     1      46.654   7.519  12.207  0.00  0.00    +0.000 A 
ATOM      8  C   UNL     1      47.134   6.266  12.582  0.00  0.00    +0.000 A 
ATOM      9  C   UNL     1      46.258   5.193  12.667  0.00  0.00    +0.000 A 
ATOM     10  F   UNL     1      46.748   4.002  13.040  0.00  0.00    +0.000 F 
BRANCH   6  11
ATOM     11  C   UNL     1      44.781   9.048  11.518  0.00  0.00    +0.000 A 
ATOM     12  C   UNL     1      45.445  10.235  11.831  0.00  0.00    +0.000 A 
ATOM     13  C   UNL     1      44.872  11.453  11.471  0.00  0.00    +0.000 A 
ATOM     14  C   UNL     1      43.659  11.458  10.799  0.00  0.00    +0.000 A 
ATOM     15  C   UNL     1      43.070  10.241  10.506  0.00  0.00    +0.000 A 
ATOM     16  N   UNL     1      43.602   9.046  10.848  0.00  0.00    +0.000 NA
ENDBRANCH   6  11
ENDBRANCH   1   4
BRANCH   1  17
ATOM     17  C   UNL     1      43.386   3.735  11.180  0.00  0.00    +0.000 C 
BRANCH  17  22
ATOM     18  C   UNL     1      46.592   2.773   7.285  0.00  0.00    +0.000 A 
ATOM     19  C   UNL     1      46.037   3.962   7.745  0.00  0.00    +0.000 A 
ATOM     20  C   UNL     1      45.187   3.928   8.852  0.00  0.00    +0.000 A 
ATOM     21  C   UNL     1      44.891   2.714   9.469  0.00  0.00    +0.000 A 
ATOM     22  N   UNL     1      44.076   2.609  10.561  0.00  0.00    +0.000 N 
ATOM     23  N   UNL     1      45.418   1.559   9.022  0.00  0.00    +0.000 NA
ATOM     24  C   UNL     1      46.249   1.605   7.947  0.00  0.00    +0.000 A 
ATOM     25  H   UNL     1      43.854   1.659  10.840  0.00  0.00    +0.000 HD
BRANCH  18  27
ATOM     26  N   UNL     1      48.798   2.399   6.343  0.00  0.00    +0.000 N 
ATOM     27  C   UNL     1      47.486   2.711   6.114  0.00  0.00    +0.000 C 
ATOM     28  O   UNL     1      47.070   2.905   4.979  0.00  0.00    +0.000 OA
ATOM     29  H   UNL     1      49.379   2.272   5.523  0.00  0.00    +0.000 HD
ATOM     30  H   UNL     1      49.117   1.989   7.209  0.00  0.00    +0.000 HD
ENDBRANCH  18  27
ENDBRANCH  17  22
ENDBRANCH   1  17
TORSDOF 5
ENDMDL
MODEL 5
REMARK VINA RESULT:    -8.642      2.850      7.869
REMARK INTER + INTRA:         -12.056
REMARK INTER:                 -11.498
REMARK INTRA:                  -0.558
REMARK UNBOUND:                -0.888
REMARK  Name = 
REMARK  5 active torsions:
REMARK  status: ('A' for Active; 'I' for Inactive)
REMARK    1  A    between atoms: C_2  and  C_4
REMARK    2  A    between atoms: N_8  and  C_9
REMARK    3  A    between atoms: C_9  and  C_10
REMARK    4  A    between atoms: C_10  and  C_13
REMARK    5  A    between atoms: C_15  and  C_16
REMARK                            x       y       z     vdW  Elec       q    Type
REMARK                         _______ _______ _______ _____ _____    ______ ____
ROOT
ATOM      1  C   UNL     1      45.104   5.991  12.254  0.00  0.00    +0.000 C 
ATOM      2  F   UNL     1      44.178   6.317  13.204  0.00  0.00    +0.000 F 
ATOM      3  F   UNL     1      45.149   7.076  11.421  0.00  0.00    +0.000 F 
ENDROOT
BRANCH   1   4
ATOM      4  C   UNL     1      44.727   4.723  11.519  0.00  0.00    +0.000 A 
ATOM      5  C   UNL     1      45.409   4.318  10.356  0.00  0.00    +0.000 A 
ATOM      6  C   UNL     1      45.075   3.123   9.681  0.00  0.00    +0.000 A 
ATOM      7  C   UNL     1      44.043   2.335  10.218  0.00  0.00    +0.000 A 
ATOM      8  C   UNL     1      43.357   2.727  11.366  0.00  0.00    +0.000 A 
ATOM      9  C   UNL     1      43.697   3.917  11.995  0.00  0.00    +0.000 A 
ATOM     10  F   UNL     1      43.027   4.263  13.103  0.00  0.00    +0.000 F 
BRANCH   6  11
ATOM     11  C   UNL     1      45.808   2.708   8.467  0.00  0.00    +0.000 A 
ATOM     12  C   UNL     1      46.027   3.567   7.388  0.00  0.00    +0.000 A 
ATOM     13  C   UNL     1      46.683   3.087   6.256  0.00  0.00    +0.000 A 
ATOM     14  C   UNL     1      47.112   1.768   6.230  0.00  0.00    +0.000 A 
ATOM     15  C   UNL     1      46.876   0.983   7.345  0.00  0.00    +0.000 A 
ATOM     16  N   UNL     1      46.239   1.422   8.453  0.00  0.00    +0.000 NA
ENDBRANCH   6  11
ENDBRANCH   1   4
BRANCH   1  17
ATOM     17  C   UNL     1      46.489   5.848  12.934  0.00  0.00    +0.000 C 
BRANCH  17  22
ATOM     18  C   UNL     1      48.554   4.174  17.328  0.00  0.00    +0.000 A 
ATOM     19  C   UNL     1      48.463   5.450  16.784  0.00  0.00    +0.000 A 
ATOM     20  C   UNL     1      47.828   5.617  15.553  0.00  0.00    +0.000 A 
ATOM     21  C   UNL     1      47.312   4.513  14.878  0.00  0.00    +0.000 A 
ATOM     22  N   UNL     1      46.670   4.604  13.675  0.00  0.00    +0.000 N 
ATOM     23  N   UNL     1      47.406   3.273  15.395  0.00  0.00    +0.000 NA
ATOM     24  C   UNL     1      48.021   3.125  16.598  0.00  0.00    +0.000 A 
ATOM     25  H   UNL     1      46.445   3.715  13.240  0.00  0.00    +0.000 HD
BRANCH  18  27
ATOM     26  N   UNL     1      48.502   3.232  19.565  0.00  0.00    +0.000 N 
ATOM     27  C   UNL     1      49.222   3.901  18.615  0.00  0.00    +0.000 C 
ATOM     28  O   UNL     1      50.382   4.236  18.819  0.00  0.00    +0.000 OA
ATOM     29  H   UNL     1      49.001   2.973  20.407  0.00  0.00    +0.000 HD
ATOM     30  H   UNL     1      47.655   2.725  19.349  0.00  0.00    +0.000 HD
ENDBRANCH  18  27
ENDBRANCH  17  22
ENDBRANCH   1  17
TORSDOF 5
ENDMDL
MODEL 6
REMARK VINA RESULT:    -8.539      2.635      7.381
REMARK INTER + INTRA:         -11.922
REMARK INTER:                 -11.175
REMARK INTRA:                  -0.747
REMARK UNBOUND:                -0.888
REMARK  Name = 
REMARK  5 active torsions:
REMARK  status: ('A' for Active; 'I' for Inactive)
REMARK    1  A    between atoms: C_2  and  C_4
REMARK    2  A    between atoms: N_8  and  C_9
REMARK    3  A    between atoms: C_9  and  C_10
REMARK    4  A    between atoms: C_10  and  C_13
REMARK    5  A    between atoms: C_15  and  C_16
REMARK                            x       y       z     vdW  Elec       q    Type
REMARK                         _______ _______ _______ _____ _____    ______ ____
ROOT
ATOM      1  C   UNL     1      45.358   6.923  11.754  0.00  0.00    +0.000 C 
ATOM      2  F   UNL     1      44.924   7.137  13.031  0.00  0.00    +0.000 F 
ATOM      3  F   UNL     1      44.878   7.986  11.037  0.00  0.00    +0.000 F 
ENDROOT
BRANCH   1   4
ATOM      4  C   UNL     1      44.865   5.600  11.210  0.00  0.00    +0.000 A 
ATOM      5  C   UNL     1      45.486   4.979  10.110  0.00  0.00    +0.000 A 
ATOM      6  C   UNL     1      45.042   3.734   9.615  0.00  0.00    +0.000 A 
ATOM      7  C   UNL     1      43.962   3.117  10.269  0.00  0.00    +0.000 A 
ATOM      8  C   UNL     1      43.336   3.722  11.357  0.00  0.00    +0.000 A 
ATOM      9  C   UNL     1      43.784   4.957  11.807  0.00  0.00    +0.000 A 
ATOM     10  F   UNL     1      43.168   5.509  12.861  0.00  0.00    +0.000 F 
BRANCH   6  11
ATOM     11  C   UNL     1      45.712   3.092   8.465  0.00  0.00    +0.000 A 
ATOM     12  C   UNL     1      46.051   1.737   8.450  0.00  0.00    +0.000 A 
ATOM     13  C   UNL     1      46.726   1.215   7.349  0.00  0.00    +0.000 A 
ATOM     14  C   UNL     1      47.039   2.051   6.287  0.00  0.00    +0.000 A 
ATOM     15  C   UNL     1      46.653   3.377   6.365  0.00  0.00    +0.000 A 
ATOM     16  N   UNL     1      46.001   3.910   7.423  0.00  0.00    +0.000 NA
ENDBRANCH   6  11
ENDBRANCH   1   4
BRANCH   1  17
ATOM     17  C   UNL     1      46.906   6.989  11.734  0.00  0.00    +0.000 C 
BRANCH  17  22
ATOM     18  C   UNL     1      47.806   4.011  15.820  0.00  0.00    +0.000 A 
ATOM     19  C   UNL     1      47.197   3.738  14.602  0.00  0.00    +0.000 A 
ATOM     20  C   UNL     1      47.094   4.756  13.653  0.00  0.00    +0.000 A 
ATOM     21  C   UNL     1      47.581   6.029  13.939  0.00  0.00    +0.000 A 
ATOM     22  N   UNL     1      47.522   7.069  13.055  0.00  0.00    +0.000 N 
ATOM     23  N   UNL     1      48.163   6.303  15.122  0.00  0.00    +0.000 NA
ATOM     24  C   UNL     1      48.263   5.302  16.035  0.00  0.00    +0.000 A 
ATOM     25  H   UNL     1      47.808   7.968  13.430  0.00  0.00    +0.000 HD
BRANCH  18  27
ATOM     26  N   UNL     1      46.847   2.761  17.667  0.00  0.00    +0.000 N 
ATOM     27  C   UNL     1      47.944   3.002  16.888  0.00  0.00    +0.000 C 
ATOM     28  O   UNL     1      48.989   2.387  17.056  0.00  0.00    +0.000 OA
ATOM     29  H   UNL     1      46.929   2.005  18.336  0.00  0.00    +0.000 HD
ATOM     30  H   UNL     1      45.917   3.052  17.403  0.00  0.00    +0.000 HD
ENDBRANCH  18  27
ENDBRANCH  17  22
ENDBRANCH   1  17
TORSDOF 5
ENDMDL
MODEL 7
REMARK VINA RESULT:    -8.243      3.407      6.928
REMARK INTER + INTRA:         -11.539
REMARK INTER:                 -10.569
REMARK INTRA:                  -0.970
REMARK UNBOUND:                -0.888
REMARK  Name = 
REMARK  5 active torsions:
REMARK  status: ('A' for Active; 'I' for Inactive)
REMARK    1  A    between atoms: C_2  and  C_4
REMARK    2  A    between atoms: N_8  and  C_9
REMARK    3  A    between atoms: C_9  and  C_10
REMARK    4  A    between atoms: C_10  and  C_13
REMARK    5  A    between atoms: C_15  and  C_16
REMARK                            x       y       z     vdW  Elec       q    Type
REMARK                         _______ _______ _______ _____ _____    ______ ____
ROOT
ATOM      1  C   UNL     1      44.054   6.445  11.406  0.00  0.00    +0.000 C 
ATOM      2  F   UNL     1      42.784   6.945  11.369  0.00  0.00    +0.000 F 
ATOM      3  F   UNL     1      44.768   7.235  10.546  0.00  0.00    +0.000 F 
ENDROOT
BRANCH   1   4
ATOM      4  C   UNL     1      44.092   4.986  11.005  0.00  0.00    +0.000 A 
ATOM      5  C   UNL     1      44.867   4.543   9.917  0.00  0.00    +0.000 A 
ATOM      6  C   UNL     1      44.922   3.179   9.555  0.00  0.00    +0.000 A 
ATOM      7  C   UNL     1      44.186   2.266  10.330  0.00  0.00    +0.000 A 
ATOM      8  C   UNL     1      43.412   2.693  11.408  0.00  0.00    +0.000 A 
ATOM      9  C   UNL     1      43.364   4.043  11.725  0.00  0.00    +0.000 A 
ATOM     10  F   UNL     1      42.618   4.422  12.773  0.00  0.00    +0.000 F 
BRANCH   6  11
ATOM     11  C   UNL     1      45.748   2.730   8.416  0.00  0.00    +0.000 A 
ATOM     12  C   UNL     1      46.069   3.562   7.342  0.00  0.00    +0.000 A 
ATOM     13  C   UNL     1      46.811   3.051   6.279  0.00  0.00    +0.000 A 
ATOM     14  C   UNL     1      47.223   1.728   6.317  0.00  0.00    +0.000 A 
ATOM     15  C   UNL     1      46.885   0.970   7.423  0.00  0.00    +0.000 A 
ATOM     16  N   UNL     1      46.163   1.439   8.465  0.00  0.00    +0.000 NA
ENDBRANCH   6  11
ENDBRANCH   1   4
BRANCH   1  17
ATOM     17  C   UNL     1      44.628   6.645  12.832  0.00  0.00    +0.000 C 
BRANCH  17  22
ATOM     18  C   UNL     1      49.493   8.197  12.279  0.00  0.00    +0.000 A 
ATOM     19  C   UNL     1      48.289   8.857  12.066  0.00  0.00    +0.000 A 
ATOM     20  C   UNL     1      47.093   8.180  12.310  0.00  0.00    +0.000 A 
ATOM     21  C   UNL     1      47.116   6.856  12.743  0.00  0.00    +0.000 A 
ATOM     22  N   UNL     1      45.984   6.137  13.010  0.00  0.00    +0.000 N 
ATOM     23  N   UNL     1      48.279   6.208  12.942  0.00  0.00    +0.000 NA
ATOM     24  C   UNL     1      49.436   6.879  12.707  0.00  0.00    +0.000 A 
ATOM     25  H   UNL     1      46.139   5.153  13.207  0.00  0.00    +0.000 HD
BRANCH  18  27
ATOM     26  N   UNL     1      51.916   8.124  12.405  0.00  0.00    +0.000 N 
ATOM     27  C   UNL     1      50.804   8.827  12.032  0.00  0.00    +0.000 C 
ATOM     28  O   UNL     1      50.896   9.922  11.494  0.00  0.00    +0.000 OA
ATOM     29  H   UNL     1      52.809   8.528  12.148  0.00  0.00    +0.000 HD
ATOM     30  H   UNL     1      51.893   7.135  12.609  0.00  0.00    +0.000 HD
ENDBRANCH  18  27
ENDBRANCH  17  22
ENDBRANCH   1  17
TORSDOF 5
ENDMDL
MODEL 8
REMARK VINA RESULT:    -7.811      3.662      7.841
REMARK INTER + INTRA:         -10.981
REMARK INTER:                 -10.210
REMARK INTRA:                  -0.771
REMARK UNBOUND:                -0.888
REMARK  Name = 
REMARK  5 active torsions:
REMARK  status: ('A' for Active; 'I' for Inactive)
REMARK    1  A    between atoms: C_2  and  C_4
REMARK    2  A    between atoms: N_8  and  C_9
REMARK    3  A    between atoms: C_9  and  C_10
REMARK    4  A    between atoms: C_10  and  C_13
REMARK    5  A    between atoms: C_15  and  C_16
REMARK                            x       y       z     vdW  Elec       q    Type
REMARK                         _______ _______ _______ _____ _____    ______ ____
ROOT
ATOM      1  C   UNL     1      44.484   6.367  11.839  0.00  0.00    +0.000 C 
ATOM      2  F   UNL     1      44.282   6.380  13.190  0.00  0.00    +0.000 F 
ATOM      3  F   UNL     1      43.547   7.228  11.335  0.00  0.00    +0.000 F 
ENDROOT
BRANCH   1   4
ATOM      4  C   UNL     1      44.343   4.973  11.267  0.00  0.00    +0.000 A 
ATOM      5  C   UNL     1      45.057   4.573  10.122  0.00  0.00    +0.000 A 
ATOM      6  C   UNL     1      44.945   3.266   9.599  0.00  0.00    +0.000 A 
ATOM      7  C   UNL     1      44.105   2.362  10.272  0.00  0.00    +0.000 A 
ATOM      8  C   UNL     1      43.390   2.747  11.405  0.00  0.00    +0.000 A 
ATOM      9  C   UNL     1      43.507   4.045  11.882  0.00  0.00    +0.000 A 
ATOM     10  F   UNL     1      42.815   4.383  12.978  0.00  0.00    +0.000 F 
BRANCH   6  11
ATOM     11  C   UNL     1      45.709   2.859   8.401  0.00  0.00    +0.000 A 
ATOM     12  C   UNL     1      46.190   1.561   8.219  0.00  0.00    +0.000 A 
ATOM     13  C   UNL     1      46.946   1.267   7.086  0.00  0.00    +0.000 A 
ATOM     14  C   UNL     1      47.195   2.268   6.159  0.00  0.00    +0.000 A 
ATOM     15  C   UNL     1      46.668   3.524   6.398  0.00  0.00    +0.000 A 
ATOM     16  N   UNL     1      45.936   3.838   7.491  0.00  0.00    +0.000 NA
ENDBRANCH   6  11
ENDBRANCH   1   4
BRANCH   1  17
ATOM     17  C   UNL     1      45.887   6.952  11.538  0.00  0.00    +0.000 C 
BRANCH  17  22
ATOM     18  C   UNL     1      49.059   8.315  15.341  0.00  0.00    +0.000 A 
ATOM     19  C   UNL     1      48.052   9.017  14.689  0.00  0.00    +0.000 A 
ATOM     20  C   UNL     1      47.330   8.382  13.677  0.00  0.00    +0.000 A 
ATOM     21  C   UNL     1      47.633   7.070  13.320  0.00  0.00    +0.000 A 
ATOM     22  N   UNL     1      46.961   6.386  12.346  0.00  0.00    +0.000 N 
ATOM     23  N   UNL     1      48.614   6.389  13.941  0.00  0.00    +0.000 NA
ATOM     24  C   UNL     1      49.306   7.015  14.928  0.00  0.00    +0.000 A 
ATOM     25  H   UNL     1      47.357   5.481  12.108  0.00  0.00    +0.000 HD
BRANCH  18  27
ATOM     26  N   UNL     1      51.185   9.199  16.107  0.00  0.00    +0.000 N 
ATOM     27  C   UNL     1      49.884   8.909  16.409  0.00  0.00    +0.000 C 
ATOM     28  O   UNL     1      49.419   9.157  17.514  0.00  0.00    +0.000 OA
ATOM     29  H   UNL     1      51.714   9.688  16.820  0.00  0.00    +0.000 HD
ATOM     30  H   UNL     1      51.526   9.249  15.158  0.00  0.00    +0.000 HD
ENDBRANCH  18  27
ENDBRANCH  17  22
ENDBRANCH   1  17
TORSDOF 5
ENDMDL
MODEL 9
REMARK VINA RESULT:    -7.231      3.440      4.969
REMARK INTER + INTRA:         -10.233
REMARK INTER:                  -9.211
REMARK INTRA:                  -1.022
REMARK UNBOUND:                -0.888
REMARK  Name = 
REMARK  5 active torsions:
REMARK  status: ('A' for Active; 'I' for Inactive)
REMARK    1  A    between atoms: C_2  and  C_4
REMARK    2  A    between atoms: N_8  and  C_9
REMARK    3  A    between atoms: C_9  and  C_10
REMARK    4  A    between atoms: C_10  and  C_13
REMARK    5  A    between atoms: C_15  and  C_16
REMARK                            x       y       z     vdW  Elec       q    Type
REMARK                         _______ _______ _______ _____ _____    ______ ____
ROOT
ATOM      1  C   UNL     1      48.207   8.408  12.736  0.00  0.00    +0.000 C 
ATOM      2  F   UNL     1      48.633   7.356  11.976  0.00  0.00    +0.000 F 
ATOM      3  F   UNL     1      48.941   9.477  12.300  0.00  0.00    +0.000 F 
ENDROOT
BRANCH   1   4
ATOM      4  C   UNL     1      48.404   8.145  14.214  0.00  0.00    +0.000 A 
ATOM      5  C   UNL     1      48.470   6.836  14.726  0.00  0.00    +0.000 A 
ATOM      6  C   UNL     1      48.678   6.588  16.100  0.00  0.00    +0.000 A 
ATOM      7  C   UNL     1      48.835   7.698  16.948  0.00  0.00    +0.000 A 
ATOM      8  C   UNL     1      48.769   8.999  16.455  0.00  0.00    +0.000 A 
ATOM      9  C   UNL     1      48.544   9.209  15.101  0.00  0.00    +0.000 A 
ATOM     10  F   UNL     1      48.495  10.471  14.655  0.00  0.00    +0.000 F 
BRANCH   6  11
ATOM     11  C   UNL     1      48.753   5.207  16.619  0.00  0.00    +0.000 A 
ATOM     12  C   UNL     1      47.634   4.380  16.726  0.00  0.00    +0.000 A 
ATOM     13  C   UNL     1      47.776   3.106  17.273  0.00  0.00    +0.000 A 
ATOM     14  C   UNL     1      49.029   2.684  17.690  0.00  0.00    +0.000 A 
ATOM     15  C   UNL     1      50.095   3.552  17.534  0.00  0.00    +0.000 A 
ATOM     16  N   UNL     1      49.984   4.794  17.011  0.00  0.00    +0.000 NA
ENDBRANCH   6  11
ENDBRANCH   1   4
BRANCH   1  17
ATOM     17  C   UNL     1      46.716   8.684  12.416  0.00  0.00    +0.000 C 
BRANCH  17  22
ATOM     18  C   UNL     1      44.414   4.184  11.506  0.00  0.00    +0.000 A 
ATOM     19  C   UNL     1      45.320   4.921  10.752  0.00  0.00    +0.000 A 
ATOM     20  C   UNL     1      45.796   6.130  11.259  0.00  0.00    +0.000 A 
ATOM     21  C   UNL     1      45.351   6.594  12.495  0.00  0.00    +0.000 A 
ATOM     22  N   UNL     1      45.782   7.763  13.056  0.00  0.00    +0.000 N 
ATOM     23  N   UNL     1      44.466   5.889  13.226  0.00  0.00    +0.000 NA
ATOM     24  C   UNL     1      44.014   4.710  12.724  0.00  0.00    +0.000 A 
ATOM     25  H   UNL     1      45.294   8.038  13.903  0.00  0.00    +0.000 HD
BRANCH  18  27
ATOM     26  N   UNL     1      44.395   2.342   9.925  0.00  0.00    +0.000 N 
ATOM     27  C   UNL     1      43.845   2.904  11.043  0.00  0.00    +0.000 C 
ATOM     28  O   UNL     1      42.934   2.353  11.647  0.00  0.00    +0.000 OA
ATOM     29  H   UNL     1      44.055   1.422   9.671  0.00  0.00    +0.000 HD
ATOM     30  H   UNL     1      45.292   2.626   9.558  0.00  0.00    +0.000 HD
ENDBRANCH  18  27
ENDBRANCH  17  22
ENDBRANCH   1  17
TORSDOF 5
ENDMDL
