MODEL 1
REMARK VINA RESULT:    -7.930      0.000      0.000
REMARK INTER + INTRA:         -10.209
REMARK INTER:                  -9.785
REMARK INTRA:                  -0.424
REMARK UNBOUND:                -0.424
REMARK  Name = 
REMARK  5 active torsions:
REMARK  status: ('A' for Active; 'I' for Inactive)
REMARK    1  A    between atoms: C_1  and  N_2
REMARK    2  A    between atoms: C_3  and  C_5
REMARK    3  A    between atoms: C_8  and  N_9
REMARK    4  A    between atoms: N_9  and  C_10
REMARK    5  A    between atoms: C_10  and  C_11
REMARK                            x       y       z     vdW  Elec       q    Type
REMARK                         _______ _______ _______ _____ _____    ______ ____
ROOT
ATOM      1  C   UNL     1      46.387   4.573  13.466  0.00  0.00    +0.000 A 
ATOM      2  C   UNL     1      46.097   5.608  12.586  0.00  0.00    +0.000 A 
ATOM      3  C   UNL     1      45.344   5.324  11.440  0.00  0.00    +0.000 A 
ATOM      4  C   UNL     1      44.918   4.015  11.179  0.00  0.00    +0.000 A 
ATOM      5  C   UNL     1      45.277   3.061  12.130  0.00  0.00    +0.000 A 
ATOM      6  N   UNL     1      45.994   3.290  13.261  0.00  0.00    +0.000 NA
ENDROOT
BRANCH   1   9
ATOM      7  C   UNL     1      47.433   4.308  17.105  0.00  0.00    +0.000 C 
ATOM      8  N   UNL     1      46.763   4.132  15.846  0.00  0.00    +0.000 N 
ATOM      9  C   UNL     1      47.158   4.831  14.725  0.00  0.00    +0.000 C 
ATOM     10  O   UNL     1      48.105   5.630  14.733  0.00  0.00    +0.000 OA
ATOM     11  H   UNL     1      46.137   3.343  15.714  0.00  0.00    +0.000 HD
ENDBRANCH   1   9
BRANCH   4  12
ATOM     12  N   UNL     1      44.117   3.732  10.071  0.00  0.00    +0.000 N 
ATOM     13  H   UNL     1      43.787   2.763  10.053  0.00  0.00    +0.000 HD
BRANCH  12  14
ATOM     14  C   UNL     1      44.521   4.209   8.747  0.00  0.00    +0.000 C 
BRANCH  14  15
ATOM     15  C   UNL     1      45.519   3.233   8.165  0.00  0.00    +0.000 A 
ATOM     16  C   UNL     1      46.506   3.674   7.270  0.00  0.00    +0.000 A 
ATOM     17  C   UNL     1      47.441   2.779   6.746  0.00  0.00    +0.000 A 
ATOM     18  C   UNL     1      47.405   1.437   7.120  0.00  0.00    +0.000 A 
ATOM     19  C   UNL     1      46.430   0.986   8.008  0.00  0.00    +0.000 A 
ATOM     20  C   UNL     1      45.490   1.879   8.527  0.00  0.00    +0.000 A 
ENDBRANCH  14  15
ENDBRANCH  12  14
ENDBRANCH   4  12
TORSDOF 4
ENDMDL
MODEL 2
REMARK VINA RESULT:    -7.888      0.744      1.373
REMARK INTER + INTRA:         -10.157
REMARK INTER:                  -9.691
REMARK INTRA:                  -0.466
REMARK UNBOUND:                -0.424
REMARK  Name = 
REMARK  5 active torsions:
REMARK  status: ('A' for Active; 'I' for Inactive)
REMARK    1  A    between atoms: C_1  and  N_2
REMARK    2  A    between atoms: C_3  and  C_5
REMARK    3  A    between atoms: C_8  and  N_9
REMARK    4  A    between atoms: N_9  and  C_10
REMARK    5  A    between atoms: C_10  and  C_11
REMARK                            x       y       z     vdW  Elec       q    Type
REMARK                         _______ _______ _______ _____ _____    ______ ____
ROOT
ATOM      1  C   UNL     1      46.681   4.786  13.765  0.00  0.00    +0.000 A 
ATOM      2  C   UNL     1      46.931   5.896  12.968  0.00  0.00    +0.000 A 
ATOM      3  C   UNL     1      46.282   5.992  11.731  0.00  0.00    +0.000 A 
ATOM      4  C   UNL     1      45.419   4.975  11.302  0.00  0.00    +0.000 A 
ATOM      5  C   UNL     1      45.254   3.910  12.185  0.00  0.00    +0.000 A 
ATOM      6  N   UNL     1      45.851   3.777  13.398  0.00  0.00    +0.000 NA
ENDROOT
BRANCH   1   9
ATOM      7  C   UNL     1      47.356   3.466  17.260  0.00  0.00    +0.000 C 
ATOM      8  N   UNL     1      46.815   3.676  15.945  0.00  0.00    +0.000 N 
ATOM      9  C   UNL     1      47.323   4.652  15.113  0.00  0.00    +0.000 C 
ATOM     10  O   UNL     1      48.267   5.385  15.439  0.00  0.00    +0.000 OA
ATOM     11  H   UNL     1      46.203   2.978  15.534  0.00  0.00    +0.000 HD
ENDBRANCH   1   9
BRANCH   4  12
ATOM     12  N   UNL     1      44.720   5.092  10.098  0.00  0.00    +0.000 N 
ATOM     13  H   UNL     1      44.073   5.884  10.088  0.00  0.00    +0.000 HD
BRANCH  12  14
ATOM     14  C   UNL     1      44.150   3.895   9.476  0.00  0.00    +0.000 C 
BRANCH  14  15
ATOM     15  C   UNL     1      45.217   3.230   8.638  0.00  0.00    +0.000 A 
ATOM     16  C   UNL     1      45.470   1.855   8.769  0.00  0.00    +0.000 A 
ATOM     17  C   UNL     1      46.442   1.234   7.982  0.00  0.00    +0.000 A 
ATOM     18  C   UNL     1      47.162   1.977   7.050  0.00  0.00    +0.000 A 
ATOM     19  C   UNL     1      46.921   3.343   6.910  0.00  0.00    +0.000 A 
ATOM     20  C   UNL     1      45.955   3.967   7.701  0.00  0.00    +0.000 A 
ENDBRANCH  14  15
ENDBRANCH  12  14
ENDBRANCH   4  12
TORSDOF 4
ENDMDL
MODEL 3
REMARK VINA RESULT:    -6.771      2.978      6.292
REMARK INTER + INTRA:          -8.779
REMARK INTER:                  -8.167
REMARK INTRA:                  -0.612
REMARK UNBOUND:                -0.424
REMARK  Name = 
REMARK  5 active torsions:
REMARK  status: ('A' for Active; 'I' for Inactive)
REMARK    1  A    between atoms: C_1  and  N_2
REMARK    2  A    between atoms: C_3  and  C_5
REMARK    3  A    between atoms: C_8  and  N_9
REMARK    4  A    between atoms: N_9  and  C_10
REMARK    5  A    between atoms: C_10  and  C_11
REMARK                            x       y       z     vdW  Elec       q    Type
REMARK                         _______ _______ _______ _____ _____    ______ ____
ROOT
ATOM      1  C   UNL     1      45.445   2.760   8.736  0.00  0.00    +0.000 A 
ATOM      2  C   UNL     1      45.250   4.125   8.574  0.00  0.00    +0.000 A 
ATOM      3  C   UNL     1      44.398   4.792   9.463  0.00  0.00    +0.000 A 
ATOM      4  C   UNL     1      43.738   4.085  10.476  0.00  0.00    +0.000 A 
ATOM      5  C   UNL     1      44.007   2.719  10.535  0.00  0.00    +0.000 A 
ATOM      6  N   UNL     1      44.833   2.031   9.704  0.00  0.00    +0.000 NA
ENDROOT
BRANCH   1   9
ATOM      7  C   UNL     1      47.916   2.108   5.930  0.00  0.00    +0.000 C 
ATOM      8  N   UNL     1      47.007   2.735   6.850  0.00  0.00    +0.000 N 
ATOM      9  C   UNL     1      46.375   2.006   7.835  0.00  0.00    +0.000 C 
ATOM     10  O   UNL     1      46.560   0.791   7.991  0.00  0.00    +0.000 OA
ATOM     11  H   UNL     1      46.982   3.747   6.922  0.00  0.00    +0.000 HD
ENDBRANCH   1   9
BRANCH   4  12
ATOM     12  N   UNL     1      42.934   4.750  11.404  0.00  0.00    +0.000 N 
ATOM     13  H   UNL     1      42.641   5.678  11.085  0.00  0.00    +0.000 HD
BRANCH  12  14
ATOM     14  C   UNL     1      43.303   4.737  12.821  0.00  0.00    +0.000 C 
BRANCH  14  15
ATOM     15  C   UNL     1      44.655   5.394  12.975  0.00  0.00    +0.000 A 
ATOM     16  C   UNL     1      44.833   6.746  12.640  0.00  0.00    +0.000 A 
ATOM     17  C   UNL     1      46.076   7.360  12.800  0.00  0.00    +0.000 A 
ATOM     18  C   UNL     1      47.152   6.634  13.305  0.00  0.00    +0.000 A 
ATOM     19  C   UNL     1      46.990   5.290  13.641  0.00  0.00    +0.000 A 
ATOM     20  C   UNL     1      45.749   4.673  13.475  0.00  0.00    +0.000 A 
ENDBRANCH  14  15
ENDBRANCH  12  14
ENDBRANCH   4  12
TORSDOF 4
ENDMDL
MODEL 4
REMARK VINA RESULT:    -6.745      1.904      2.106
REMARK INTER + INTRA:          -8.747
REMARK INTER:                  -8.207
REMARK INTRA:                  -0.540
REMARK UNBOUND:                -0.424
REMARK  Name = 
REMARK  5 active torsions:
REMARK  status: ('A' for Active; 'I' for Inactive)
REMARK    1  A    between atoms: C_1  and  N_2
REMARK    2  A    between atoms: C_3  and  C_5
REMARK    3  A    between atoms: C_8  and  N_9
REMARK    4  A    between atoms: N_9  and  C_10
REMARK    5  A    between atoms: C_10  and  C_11
REMARK                            x       y       z     vdW  Elec       q    Type
REMARK                         _______ _______ _______ _____ _____    ______ ____
ROOT
ATOM      1  C   UNL     1      47.314   5.961  13.334  0.00  0.00    +0.000 A 
ATOM      2  C   UNL     1      46.730   6.600  12.247  0.00  0.00    +0.000 A 
ATOM      3  C   UNL     1      45.730   5.929  11.533  0.00  0.00    +0.000 A 
ATOM      4  C   UNL     1      45.349   4.631  11.896  0.00  0.00    +0.000 A 
ATOM      5  C   UNL     1      46.011   4.092  12.998  0.00  0.00    +0.000 A 
ATOM      6  N   UNL     1      46.977   4.707  13.729  0.00  0.00    +0.000 NA
ENDROOT
BRANCH   1   9
ATOM      7  C   UNL     1      49.782   8.631  14.425  0.00  0.00    +0.000 C 
ATOM      8  N   UNL     1      48.778   7.888  13.714  0.00  0.00    +0.000 N 
ATOM      9  C   UNL     1      48.363   6.649  14.154  0.00  0.00    +0.000 C 
ATOM     10  O   UNL     1      48.814   6.117  15.178  0.00  0.00    +0.000 OA
ATOM     11  H   UNL     1      48.214   8.352  13.008  0.00  0.00    +0.000 HD
ENDBRANCH   1   9
BRANCH   4  12
ATOM     12  N   UNL     1      44.311   3.978  11.228  0.00  0.00    +0.000 N 
ATOM     13  H   UNL     1      44.296   2.970  11.403  0.00  0.00    +0.000 HD
BRANCH  12  14
ATOM     14  C   UNL     1      44.034   4.307   9.828  0.00  0.00    +0.000 C 
BRANCH  14  15
ATOM     15  C   UNL     1      44.980   3.520   8.950  0.00  0.00    +0.000 A 
ATOM     16  C   UNL     1      45.768   4.172   7.989  0.00  0.00    +0.000 A 
ATOM     17  C   UNL     1      46.656   3.450   7.190  0.00  0.00    +0.000 A 
ATOM     18  C   UNL     1      46.774   2.071   7.350  0.00  0.00    +0.000 A 
ATOM     19  C   UNL     1      45.996   1.410   8.300  0.00  0.00    +0.000 A 
ATOM     20  C   UNL     1      45.103   2.130   9.095  0.00  0.00    +0.000 A 
ENDBRANCH  14  15
ENDBRANCH  12  14
ENDBRANCH   4  12
TORSDOF 4
ENDMDL
MODEL 5
REMARK VINA RESULT:    -6.110      1.892      3.015
REMARK INTER + INTRA:          -7.963
REMARK INTER:                  -7.522
REMARK INTRA:                  -0.441
REMARK UNBOUND:                -0.424
REMARK  Name = 
REMARK  5 active torsions:
REMARK  status: ('A' for Active; 'I' for Inactive)
REMARK    1  A    between atoms: C_1  and  N_2
REMARK    2  A    between atoms: C_3  and  C_5
REMARK    3  A    between atoms: C_8  and  N_9
REMARK    4  A    between atoms: N_9  and  C_10
REMARK    5  A    between atoms: C_10  and  C_11
REMARK                            x       y       z     vdW  Elec       q    Type
REMARK                         _______ _______ _______ _____ _____    ______ ____
ROOT
ATOM      1  C   UNL     1      47.810   5.376  15.206  0.00  0.00    +0.000 A 
ATOM      2  C   UNL     1      46.835   4.549  14.664  0.00  0.00    +0.000 A 
ATOM      3  C   UNL     1      46.352   4.832  13.381  0.00  0.00    +0.000 A 
ATOM      4  C   UNL     1      46.829   5.944  12.674  0.00  0.00    +0.000 A 
ATOM      5  C   UNL     1      47.800   6.704  13.324  0.00  0.00    +0.000 A 
ATOM      6  N   UNL     1      48.307   6.462  14.561  0.00  0.00    +0.000 NA
ENDROOT
BRANCH   1   9
ATOM      7  C   UNL     1      48.044   5.160  18.988  0.00  0.00    +0.000 C 
ATOM      8  N   UNL     1      47.586   5.388  17.645  0.00  0.00    +0.000 N 
ATOM      9  C   UNL     1      48.386   5.096  16.561  0.00  0.00    +0.000 C 
ATOM     10  O   UNL     1      49.523   4.617  16.677  0.00  0.00    +0.000 OA
ATOM     11  H   UNL     1      46.601   5.563  17.472  0.00  0.00    +0.000 HD
ENDBRANCH   1   9
BRANCH   4  12
ATOM     12  N   UNL     1      46.398   6.200  11.370  0.00  0.00    +0.000 N 
ATOM     13  H   UNL     1      46.638   7.141  11.048  0.00  0.00    +0.000 HD
BRANCH  12  14
ATOM     14  C   UNL     1      45.050   5.797  10.963  0.00  0.00    +0.000 C 
BRANCH  14  15
ATOM     15  C   UNL     1      45.162   4.643   9.994  0.00  0.00    +0.000 A 
ATOM     16  C   UNL     1      44.610   3.391  10.311  0.00  0.00    +0.000 A 
ATOM     17  C   UNL     1      44.695   2.329   9.409  0.00  0.00    +0.000 A 
ATOM     18  C   UNL     1      45.324   2.508   8.179  0.00  0.00    +0.000 A 
ATOM     19  C   UNL     1      45.877   3.745   7.852  0.00  0.00    +0.000 A 
ATOM     20  C   UNL     1      45.799   4.807   8.755  0.00  0.00    +0.000 A 
ENDBRANCH  14  15
ENDBRANCH  12  14
ENDBRANCH   4  12
TORSDOF 4
ENDMDL
MODEL 6
REMARK VINA RESULT:    -5.928      3.009      3.539
REMARK INTER + INTRA:          -7.738
REMARK INTER:                  -7.235
REMARK INTRA:                  -0.503
REMARK UNBOUND:                -0.424
REMARK  Name = 
REMARK  5 active torsions:
REMARK  status: ('A' for Active; 'I' for Inactive)
REMARK    1  A    between atoms: C_1  and  N_2
REMARK    2  A    between atoms: C_3  and  C_5
REMARK    3  A    between atoms: C_8  and  N_9
REMARK    4  A    between atoms: N_9  and  C_10
REMARK    5  A    between atoms: C_10  and  C_11
REMARK                            x       y       z     vdW  Elec       q    Type
REMARK                         _______ _______ _______ _____ _____    ______ ____
ROOT
ATOM      1  C   UNL     1      48.769   7.070  13.133  0.00  0.00    +0.000 A 
ATOM      2  C   UNL     1      48.102   7.440  11.972  0.00  0.00    +0.000 A 
ATOM      3  C   UNL     1      46.936   6.750  11.620  0.00  0.00    +0.000 A 
ATOM      4  C   UNL     1      46.471   5.692  12.412  0.00  0.00    +0.000 A 
ATOM      5  C   UNL     1      47.228   5.409  13.548  0.00  0.00    +0.000 A 
ATOM      6  N   UNL     1      48.357   6.056  13.937  0.00  0.00    +0.000 NA
ENDROOT
BRANCH   1   9
ATOM      7  C   UNL     1      51.611   9.586  13.092  0.00  0.00    +0.000 C 
ATOM      8  N   UNL     1      50.437   8.824  12.762  0.00  0.00    +0.000 N 
ATOM      9  C   UNL     1      50.002   7.800  13.575  0.00  0.00    +0.000 C 
ATOM     10  O   UNL     1      50.578   7.487  14.626  0.00  0.00    +0.000 OA
ATOM     11  H   UNL     1      49.800   9.166  12.049  0.00  0.00    +0.000 HD
ENDBRANCH   1   9
BRANCH   4  12
ATOM     12  N   UNL     1      45.277   5.039  12.102  0.00  0.00    +0.000 N 
ATOM     13  H   UNL     1      45.305   4.037  12.309  0.00  0.00    +0.000 HD
BRANCH  12  14
ATOM     14  C   UNL     1      44.603   5.329  10.834  0.00  0.00    +0.000 C 
BRANCH  14  15
ATOM     15  C   UNL     1      45.061   4.325   9.802  0.00  0.00    +0.000 A 
ATOM     16  C   UNL     1      45.791   4.741   8.678  0.00  0.00    +0.000 A 
ATOM     17  C   UNL     1      46.231   3.813   7.733  0.00  0.00    +0.000 A 
ATOM     18  C   UNL     1      45.956   2.459   7.906  0.00  0.00    +0.000 A 
ATOM     19  C   UNL     1      45.232   2.031   9.018  0.00  0.00    +0.000 A 
ATOM     20  C   UNL     1      44.785   2.959   9.960  0.00  0.00    +0.000 A 
ENDBRANCH  14  15
ENDBRANCH  12  14
ENDBRANCH   4  12
TORSDOF 4
ENDMDL
MODEL 7
REMARK VINA RESULT:    -5.853      2.463      7.345
REMARK INTER + INTRA:          -7.646
REMARK INTER:                  -7.264
REMARK INTRA:                  -0.382
REMARK UNBOUND:                -0.424
REMARK  Name = 
REMARK  5 active torsions:
REMARK  status: ('A' for Active; 'I' for Inactive)
REMARK    1  A    between atoms: C_1  and  N_2
REMARK    2  A    between atoms: C_3  and  C_5
REMARK    3  A    between atoms: C_8  and  N_9
REMARK    4  A    between atoms: N_9  and  C_10
REMARK    5  A    between atoms: C_10  and  C_11
REMARK                            x       y       z     vdW  Elec       q    Type
REMARK                         _______ _______ _______ _____ _____    ______ ____
ROOT
ATOM      1  C   UNL     1      45.563   4.279  12.061  0.00  0.00    +0.000 A 
ATOM      2  C   UNL     1      45.879   5.619  12.242  0.00  0.00    +0.000 A 
ATOM      3  C   UNL     1      46.570   5.996  13.400  0.00  0.00    +0.000 A 
ATOM      4  C   UNL     1      46.910   5.039  14.365  0.00  0.00    +0.000 A 
ATOM      5  C   UNL     1      46.533   3.728  14.076  0.00  0.00    +0.000 A 
ATOM      6  N   UNL     1      45.874   3.313  12.964  0.00  0.00    +0.000 NA
ENDROOT
BRANCH   1   9
ATOM      7  C   UNL     1      44.556   2.022   9.181  0.00  0.00    +0.000 C 
ATOM      8  N   UNL     1      45.175   2.558  10.362  0.00  0.00    +0.000 N 
ATOM      9  C   UNL     1      44.856   3.818  10.822  0.00  0.00    +0.000 C 
ATOM     10  O   UNL     1      44.025   4.546  10.262  0.00  0.00    +0.000 OA
ATOM     11  H   UNL     1      45.686   1.942  10.986  0.00  0.00    +0.000 HD
ENDBRANCH   1   9
BRANCH   4  12
ATOM     12  N   UNL     1      47.651   5.395  15.493  0.00  0.00    +0.000 N 
ATOM     13  H   UNL     1      48.621   5.636  15.274  0.00  0.00    +0.000 HD
BRANCH  12  14
ATOM     14  C   UNL     1      47.538   4.594  16.714  0.00  0.00    +0.000 C 
BRANCH  14  15
ATOM     15  C   UNL     1      48.880   3.963  17.006  0.00  0.00    +0.000 A 
ATOM     16  C   UNL     1      49.953   4.748  17.457  0.00  0.00    +0.000 A 
ATOM     17  C   UNL     1      51.188   4.164  17.745  0.00  0.00    +0.000 A 
ATOM     18  C   UNL     1      51.360   2.790  17.596  0.00  0.00    +0.000 A 
ATOM     19  C   UNL     1      50.304   1.999  17.149  0.00  0.00    +0.000 A 
ATOM     20  C   UNL     1      49.070   2.582  16.853  0.00  0.00    +0.000 A 
ENDBRANCH  14  15
ENDBRANCH  12  14
ENDBRANCH   4  12
TORSDOF 4
ENDMDL
MODEL 8
REMARK VINA RESULT:    -5.475      3.493      6.628
REMARK INTER + INTRA:          -7.179
REMARK INTER:                  -6.814
REMARK INTRA:                  -0.365
REMARK UNBOUND:                -0.424
REMARK  Name = 
REMARK  5 active torsions:
REMARK  status: ('A' for Active; 'I' for Inactive)
REMARK    1  A    between atoms: C_1  and  N_2
REMARK    2  A    between atoms: C_3  and  C_5
REMARK    3  A    between atoms: C_8  and  N_9
REMARK    4  A    between atoms: N_9  and  C_10
REMARK    5  A    between atoms: C_10  and  C_11
REMARK                            x       y       z     vdW  Elec       q    Type
REMARK                         _______ _______ _______ _____ _____    ______ ____
ROOT
ATOM      1  C   UNL     1      45.055   4.207  11.649  0.00  0.00    +0.000 A 
ATOM      2  C   UNL     1      45.326   5.456  11.105  0.00  0.00    +0.000 A 
ATOM      3  C   UNL     1      45.996   6.400  11.894  0.00  0.00    +0.000 A 
ATOM      4  C   UNL     1      46.360   6.093  13.211  0.00  0.00    +0.000 A 
ATOM      5  C   UNL     1      46.028   4.811  13.647  0.00  0.00    +0.000 A 
ATOM      6  N   UNL     1      45.390   3.859  12.918  0.00  0.00    +0.000 NA
ENDROOT
BRANCH   1   9
ATOM      7  C   UNL     1      44.556   1.541   8.993  0.00  0.00    +0.000 C 
ATOM      8  N   UNL     1      45.117   2.564   9.833  0.00  0.00    +0.000 N 
ATOM      9  C   UNL     1      44.372   3.149  10.836  0.00  0.00    +0.000 C 
ATOM     10  O   UNL     1      43.201   2.826  11.075  0.00  0.00    +0.000 OA
ATOM     11  H   UNL     1      46.121   2.715   9.841  0.00  0.00    +0.000 HD
ENDBRANCH   1   9
BRANCH   4  12
ATOM     12  N   UNL     1      47.081   7.005  13.984  0.00  0.00    +0.000 N 
ATOM     13  H   UNL     1      47.034   7.961  13.621  0.00  0.00    +0.000 HD
BRANCH  12  14
ATOM     14  C   UNL     1      48.422   6.651  14.455  0.00  0.00    +0.000 C 
BRANCH  14  15
ATOM     15  C   UNL     1      49.438   7.427  13.648  0.00  0.00    +0.000 A 
ATOM     16  C   UNL     1      49.494   7.289  12.252  0.00  0.00    +0.000 A 
ATOM     17  C   UNL     1      50.418   8.019  11.503  0.00  0.00    +0.000 A 
ATOM     18  C   UNL     1      51.289   8.901  12.139  0.00  0.00    +0.000 A 
ATOM     19  C   UNL     1      51.245   9.047  13.525  0.00  0.00    +0.000 A 
ATOM     20  C   UNL     1      50.326   8.312  14.276  0.00  0.00    +0.000 A 
ENDBRANCH  14  15
ENDBRANCH  12  14
ENDBRANCH   4  12
TORSDOF 4
ENDMDL
MODEL 9
REMARK VINA RESULT:    -5.302      2.389      8.190
REMARK INTER + INTRA:          -6.966
REMARK INTER:                  -6.688
REMARK INTRA:                  -0.278
REMARK UNBOUND:                -0.424
REMARK  Name = 
REMARK  5 active torsions:
REMARK  status: ('A' for Active; 'I' for Inactive)
REMARK    1  A    between atoms: C_1  and  N_2
REMARK    2  A    between atoms: C_3  and  C_5
REMARK    3  A    between atoms: C_8  and  N_9
REMARK    4  A    between atoms: N_9  and  C_10
REMARK    5  A    between atoms: C_10  and  C_11
REMARK                            x       y       z     vdW  Elec       q    Type
REMARK                         _______ _______ _______ _____ _____    ______ ____
ROOT
ATOM      1  C   UNL     1      45.402   4.210  11.936  0.00  0.00    +0.000 A 
ATOM      2  C   UNL     1      45.547   5.571  12.174  0.00  0.00    +0.000 A 
ATOM      3  C   UNL     1      46.269   5.981  13.301  0.00  0.00    +0.000 A 
ATOM      4  C   UNL     1      46.809   5.034  14.181  0.00  0.00    +0.000 A 
ATOM      5  C   UNL     1      46.592   3.700  13.840  0.00  0.00    +0.000 A 
ATOM      6  N   UNL     1      45.910   3.253  12.754  0.00  0.00    +0.000 NA
ENDROOT
BRANCH   1   9
ATOM      7  C   UNL     1      44.482   1.976   9.008  0.00  0.00    +0.000 C 
ATOM      8  N   UNL     1      45.113   2.535  10.172  0.00  0.00    +0.000 N 
ATOM      9  C   UNL     1      44.670   3.718  10.724  0.00  0.00    +0.000 C 
ATOM     10  O   UNL     1      43.711   4.353  10.264  0.00  0.00    +0.000 OA
ATOM     11  H   UNL     1      45.746   1.964  10.724  0.00  0.00    +0.000 HD
ENDBRANCH   1   9
BRANCH   4  12
ATOM     12  N   UNL     1      47.582   5.433  15.273  0.00  0.00    +0.000 N 
ATOM     13  H   UNL     1      48.407   5.974  15.002  0.00  0.00    +0.000 HD
BRANCH  12  14
ATOM     14  C   UNL     1      47.868   4.476  16.344  0.00  0.00    +0.000 C 
BRANCH  14  15
ATOM     15  C   UNL     1      48.128   5.241  17.621  0.00  0.00    +0.000 A 
ATOM     16  C   UNL     1      47.104   5.420  18.565  0.00  0.00    +0.000 A 
ATOM     17  C   UNL     1      47.347   6.109  19.754  0.00  0.00    +0.000 A 
ATOM     18  C   UNL     1      48.617   6.618  20.017  0.00  0.00    +0.000 A 
ATOM     19  C   UNL     1      49.643   6.448  19.088  0.00  0.00    +0.000 A 
ATOM     20  C   UNL     1      49.399   5.765  17.895  0.00  0.00    +0.000 A 
ENDBRANCH  14  15
ENDBRANCH  12  14
ENDBRANCH   4  12
TORSDOF 4
ENDMDL
