MODEL 1
REMARK VINA RESULT:    -7.973      0.000      0.000
REMARK INTER + INTRA:         -11.892
REMARK INTER:                 -10.770
REMARK INTRA:                  -1.122
REMARK UNBOUND:                -1.122
REMARK  Name = 
REMARK  7 active torsions:
REMARK  status: ('A' for Active; 'I' for Inactive)
REMARK    1  A    between atoms: C_1  and  C_2
REMARK    2  A    between atoms: C_2  and  N_3
REMARK    3  A    between atoms: C_2  and  C_21
REMARK    4  A    between atoms: C_4  and  C_6
REMARK    5  A    between atoms: C_9  and  C_10
REMARK    6  A    between atoms: C_10  and  N_11
REMARK    7  A    between atoms: C_12  and  C_14
REMARK                            x       y       z     vdW  Elec       q    Type
REMARK                         _______ _______ _______ _____ _____    ______ ____
ROOT
ATOM      1  N   UNL     1      48.180   6.741  15.713  0.00  0.00    +0.000 N 
ATOM      2  C   UNL     1      48.410   6.898  14.363  0.00  0.00    +0.000 C 
ATOM      3  O   UNL     1      49.365   7.512  13.904  0.00  0.00    +0.000 OA
ATOM      4  H   UNL     1      47.564   5.985  16.005  0.00  0.00    +0.000 HD
ENDROOT
BRANCH   2   5
ATOM      5  C   UNL     1      47.421   6.249  13.451  0.00  0.00    +0.000 A 
ATOM      6  C   UNL     1      46.722   5.093  13.823  0.00  0.00    +0.000 A 
ATOM      7  C   UNL     1      45.794   4.516  12.950  0.00  0.00    +0.000 A 
ATOM      8  C   UNL     1      45.551   5.078  11.688  0.00  0.00    +0.000 A 
ATOM      9  C   UNL     1      46.226   6.255  11.335  0.00  0.00    +0.000 A 
ATOM     10  C   UNL     1      47.152   6.838  12.209  0.00  0.00    +0.000 A 
BRANCH   8  11
ATOM     11  C   UNL     1      44.578   4.434  10.737  0.00  0.00    +0.000 C 
BRANCH  11  12
ATOM     12  N   UNL     1      45.177   3.395   9.947  0.00  0.00    +0.000 N 
ATOM     13  C   UNL     1      45.638   3.643   8.672  0.00  0.00    +0.000 C 
ATOM     14  O   UNL     1      45.560   4.740   8.126  0.00  0.00    +0.000 OA
ATOM     15  H   UNL     1      45.293   2.450  10.306  0.00  0.00    +0.000 HD
BRANCH  13  16
ATOM     16  C   UNL     1      46.228   2.467   8.033  0.00  0.00    +0.000 A 
ATOM     17  C   UNL     1      47.101   2.461   6.962  0.00  0.00    +0.000 A 
ATOM     18  N   UNL     1      47.378   1.145   6.720  0.00  0.00    +0.000 N 
ATOM     19  C   UNL     1      46.684   0.402   7.635  0.00  0.00    +0.000 A 
ATOM     20  N   UNL     1      45.978   1.162   8.438  0.00  0.00    +0.000 NA
ATOM     21  H   UNL     1      47.987   0.779   5.999  0.00  0.00    +0.000 HD
ENDBRANCH  13  16
ENDBRANCH  11  12
ENDBRANCH   8  11
ENDBRANCH   2   5
BRANCH   1  23
ATOM     22  C   UNL     1      48.270   7.795  17.911  0.00  0.00    +0.000 C 
ATOM     23  C   UNL     1      49.076   7.256  16.734  0.00  0.00    +0.000 C 
BRANCH  23  24
ATOM     24  C   UNL     1      50.080   6.201  17.155  0.00  0.00    +0.000 A 
ATOM     25  C   UNL     1      51.404   6.506  17.436  0.00  0.00    +0.000 A 
ATOM     26  S   UNL     1      52.374   5.126  17.703  0.00  0.00    +0.000 S 
ATOM     27  C   UNL     1      51.053   4.080  17.459  0.00  0.00    +0.000 A 
ATOM     28  N   UNL     1      51.213   2.730  17.422  0.00  0.00    +0.000 NA
ATOM     29  C   UNL     1      50.119   2.073  17.217  0.00  0.00    +0.000 A 
ATOM     30  N   UNL     1      48.873   2.639  17.105  0.00  0.00    +0.000 N 
ATOM     31  C   UNL     1      48.655   3.992  17.221  0.00  0.00    +0.000 A 
ATOM     32  O   UNL     1      47.520   4.461  17.278  0.00  0.00    +0.000 OA
ATOM     33  C   UNL     1      49.871   4.780  17.302  0.00  0.00    +0.000 A 
ATOM     34  H   UNL     1      48.053   2.060  17.017  0.00  0.00    +0.000 HD
ENDBRANCH  23  24
ENDBRANCH   1  23
TORSDOF 6
ENDMDL
MODEL 2
REMARK VINA RESULT:    -7.793      0.952      1.402
REMARK INTER + INTRA:         -11.648
REMARK INTER:                 -10.567
REMARK INTRA:                  -1.081
REMARK UNBOUND:                -1.122
REMARK  Name = 
REMARK  7 active torsions:
REMARK  status: ('A' for Active; 'I' for Inactive)
REMARK    1  A    between atoms: C_1  and  C_2
REMARK    2  A    between atoms: C_2  and  N_3
REMARK    3  A    between atoms: C_2  and  C_21
REMARK    4  A    between atoms: C_4  and  C_6
REMARK    5  A    between atoms: C_9  and  C_10
REMARK    6  A    between atoms: C_10  and  N_11
REMARK    7  A    between atoms: C_12  and  C_14
REMARK                            x       y       z     vdW  Elec       q    Type
REMARK                         _______ _______ _______ _____ _____    ______ ____
ROOT
ATOM      1  N   UNL     1      48.178   6.749  16.007  0.00  0.00    +0.000 N 
ATOM      2  C   UNL     1      48.647   6.771  14.711  0.00  0.00    +0.000 C 
ATOM      3  O   UNL     1      49.791   7.086  14.408  0.00  0.00    +0.000 OA
ATOM      4  H   UNL     1      47.344   6.199  16.202  0.00  0.00    +0.000 HD
ENDROOT
BRANCH   2   5
ATOM      5  C   UNL     1      47.672   6.361  13.656  0.00  0.00    +0.000 A 
ATOM      6  C   UNL     1      47.640   6.979  12.400  0.00  0.00    +0.000 A 
ATOM      7  C   UNL     1      46.723   6.563  11.429  0.00  0.00    +0.000 A 
ATOM      8  C   UNL     1      45.817   5.527  11.697  0.00  0.00    +0.000 A 
ATOM      9  C   UNL     1      45.877   4.886  12.943  0.00  0.00    +0.000 A 
ATOM     10  C   UNL     1      46.798   5.298  13.915  0.00  0.00    +0.000 A 
BRANCH   8  11
ATOM     11  C   UNL     1      44.807   5.105  10.663  0.00  0.00    +0.000 C 
BRANCH  11  12
ATOM     12  N   UNL     1      45.413   4.523   9.499  0.00  0.00    +0.000 N 
ATOM     13  C   UNL     1      45.284   3.178   9.223  0.00  0.00    +0.000 C 
ATOM     14  O   UNL     1      44.668   2.397   9.941  0.00  0.00    +0.000 OA
ATOM     15  H   UNL     1      45.943   5.083   8.835  0.00  0.00    +0.000 HD
BRANCH  13  16
ATOM     16  C   UNL     1      45.957   2.776   7.989  0.00  0.00    +0.000 A 
ATOM     17  C   UNL     1      46.587   1.569   7.748  0.00  0.00    +0.000 A 
ATOM     18  N   UNL     1      47.062   1.651   6.470  0.00  0.00    +0.000 N 
ATOM     19  C   UNL     1      46.712   2.877   5.976  0.00  0.00    +0.000 A 
ATOM     20  N   UNL     1      46.050   3.582   6.862  0.00  0.00    +0.000 NA
ATOM     21  H   UNL     1      47.578   0.936   5.971  0.00  0.00    +0.000 HD
ENDBRANCH  13  16
ENDBRANCH  11  12
ENDBRANCH   8  11
ENDBRANCH   2   5
BRANCH   1  23
ATOM     22  C   UNL     1      48.137   7.408  18.355  0.00  0.00    +0.000 C 
ATOM     23  C   UNL     1      49.011   7.060  17.155  0.00  0.00    +0.000 C 
BRANCH  23  24
ATOM     24  C   UNL     1      49.973   5.925  17.450  0.00  0.00    +0.000 A 
ATOM     25  C   UNL     1      51.293   6.146  17.814  0.00  0.00    +0.000 A 
ATOM     26  S   UNL     1      52.217   4.712  17.908  0.00  0.00    +0.000 S 
ATOM     27  C   UNL     1      50.880   3.754  17.471  0.00  0.00    +0.000 A 
ATOM     28  N   UNL     1      51.007   2.419  17.243  0.00  0.00    +0.000 NA
ATOM     29  C   UNL     1      49.904   1.833  16.910  0.00  0.00    +0.000 A 
ATOM     30  N   UNL     1      48.678   2.446  16.842  0.00  0.00    +0.000 N 
ATOM     31  C   UNL     1      48.490   3.774  17.148  0.00  0.00    +0.000 A 
ATOM     32  O   UNL     1      47.366   4.264  17.236  0.00  0.00    +0.000 OA
ATOM     33  C   UNL     1      49.722   4.505  17.381  0.00  0.00    +0.000 A 
ATOM     34  H   UNL     1      47.847   1.911  16.645  0.00  0.00    +0.000 HD
ENDBRANCH  23  24
ENDBRANCH   1  23
TORSDOF 6
ENDMDL
MODEL 3
REMARK VINA RESULT:    -7.034      1.664      2.700
REMARK INTER + INTRA:         -10.623
REMARK INTER:                  -9.983
REMARK INTRA:                  -0.640
REMARK UNBOUND:                -1.122
REMARK  Name = 
REMARK  7 active torsions:
REMARK  status: ('A' for Active; 'I' for Inactive)
REMARK    1  A    between atoms: C_1  and  C_2
REMARK    2  A    between atoms: C_2  and  N_3
REMARK    3  A    between atoms: C_2  and  C_21
REMARK    4  A    between atoms: C_4  and  C_6
REMARK    5  A    between atoms: C_9  and  C_10
REMARK    6  A    between atoms: C_10  and  N_11
REMARK    7  A    between atoms: C_12  and  C_14
REMARK                            x       y       z     vdW  Elec       q    Type
REMARK                         _______ _______ _______ _____ _____    ______ ____
ROOT
ATOM      1  N   UNL     1      47.654   5.549  16.115  0.00  0.00    +0.000 N 
ATOM      2  C   UNL     1      47.428   4.390  15.403  0.00  0.00    +0.000 C 
ATOM      3  O   UNL     1      47.726   3.274  15.809  0.00  0.00    +0.000 OA
ATOM      4  H   UNL     1      47.118   6.375  15.861  0.00  0.00    +0.000 HD
ENDROOT
BRANCH   2   5
ATOM      5  C   UNL     1      46.762   4.558  14.076  0.00  0.00    +0.000 A 
ATOM      6  C   UNL     1      46.022   3.526  13.486  0.00  0.00    +0.000 A 
ATOM      7  C   UNL     1      45.400   3.718  12.248  0.00  0.00    +0.000 A 
ATOM      8  C   UNL     1      45.512   4.943  11.574  0.00  0.00    +0.000 A 
ATOM      9  C   UNL     1      46.222   5.986  12.186  0.00  0.00    +0.000 A 
ATOM     10  C   UNL     1      46.841   5.797  13.428  0.00  0.00    +0.000 A 
BRANCH   8  11
ATOM     11  C   UNL     1      44.871   5.136  10.224  0.00  0.00    +0.000 C 
BRANCH  11  12
ATOM     12  N   UNL     1      45.641   4.564   9.156  0.00  0.00    +0.000 N 
ATOM     13  C   UNL     1      45.352   3.311   8.659  0.00  0.00    +0.000 C 
ATOM     14  O   UNL     1      44.445   2.605   9.090  0.00  0.00    +0.000 OA
ATOM     15  H   UNL     1      46.413   5.067   8.725  0.00  0.00    +0.000 HD
BRANCH  13  16
ATOM     16  C   UNL     1      46.235   2.907   7.566  0.00  0.00    +0.000 A 
ATOM     17  C   UNL     1      46.527   3.636   6.428  0.00  0.00    +0.000 A 
ATOM     18  N   UNL     1      47.390   2.862   5.706  0.00  0.00    +0.000 N 
ATOM     19  C   UNL     1      47.600   1.710   6.411  0.00  0.00    +0.000 A 
ATOM     20  N   UNL     1      46.920   1.700   7.532  0.00  0.00    +0.000 NA
ATOM     21  H   UNL     1      47.804   3.094   4.811  0.00  0.00    +0.000 HD
ENDBRANCH  13  16
ENDBRANCH  11  12
ENDBRANCH   8  11
ENDBRANCH   2   5
BRANCH   1  23
ATOM     22  C   UNL     1      47.446   4.632  18.366  0.00  0.00    +0.000 C 
ATOM     23  C   UNL     1      48.235   5.559  17.446  0.00  0.00    +0.000 C 
BRANCH  23  24
ATOM     24  C   UNL     1      49.709   5.206  17.396  0.00  0.00    +0.000 A 
ATOM     25  C   UNL     1      50.242   4.137  18.101  0.00  0.00    +0.000 A 
ATOM     26  S   UNL     1      51.947   4.063  18.031  0.00  0.00    +0.000 S 
ATOM     27  C   UNL     1      52.023   5.453  17.050  0.00  0.00    +0.000 A 
ATOM     28  N   UNL     1      53.212   6.021  16.716  0.00  0.00    +0.000 NA
ATOM     29  C   UNL     1      53.105   7.076  15.976  0.00  0.00    +0.000 A 
ATOM     30  N   UNL     1      51.922   7.578  15.492  0.00  0.00    +0.000 N 
ATOM     31  C   UNL     1      50.705   6.985  15.734  0.00  0.00    +0.000 A 
ATOM     32  O   UNL     1      49.681   7.354  15.163  0.00  0.00    +0.000 OA
ATOM     33  C   UNL     1      50.763   5.887  16.682  0.00  0.00    +0.000 A 
ATOM     34  H   UNL     1      51.919   8.363  14.861  0.00  0.00    +0.000 HD
ENDBRANCH  23  24
ENDBRANCH   1  23
TORSDOF 6
ENDMDL
MODEL 4
REMARK VINA RESULT:    -7.008      2.093      3.816
REMARK INTER + INTRA:         -10.588
REMARK INTER:                  -9.823
REMARK INTRA:                  -0.765
REMARK UNBOUND:                -1.122
REMARK  Name = 
REMARK  7 active torsions:
REMARK  status: ('A' for Active; 'I' for Inactive)
REMARK    1  A    between atoms: C_1  and  C_2
REMARK    2  A    between atoms: C_2  and  N_3
REMARK    3  A    between atoms: C_2  and  C_21
REMARK    4  A    between atoms: C_4  and  C_6
REMARK    5  A    between atoms: C_9  and  C_10
REMARK    6  A    between atoms: C_10  and  N_11
REMARK    7  A    between atoms: C_12  and  C_14
REMARK                            x       y       z     vdW  Elec       q    Type
REMARK                         _______ _______ _______ _____ _____    ______ ____
ROOT
ATOM      1  N   UNL     1      47.771   5.558  15.671  0.00  0.00    +0.000 N 
ATOM      2  C   UNL     1      47.167   4.390  15.253  0.00  0.00    +0.000 C 
ATOM      3  O   UNL     1      47.135   3.365  15.922  0.00  0.00    +0.000 OA
ATOM      4  H   UNL     1      47.497   6.424  15.214  0.00  0.00    +0.000 HD
ENDROOT
BRANCH   2   5
ATOM      5  C   UNL     1      46.513   4.437  13.911  0.00  0.00    +0.000 A 
ATOM      6  C   UNL     1      45.984   3.289  13.308  0.00  0.00    +0.000 A 
ATOM      7  C   UNL     1      45.366   3.368  12.055  0.00  0.00    +0.000 A 
ATOM      8  C   UNL     1      45.271   4.593  11.380  0.00  0.00    +0.000 A 
ATOM      9  C   UNL     1      45.769   5.746  12.005  0.00  0.00    +0.000 A 
ATOM     10  C   UNL     1      46.383   5.670  13.261  0.00  0.00    +0.000 A 
BRANCH   8  11
ATOM     11  C   UNL     1      44.637   4.669  10.016  0.00  0.00    +0.000 C 
BRANCH  11  12
ATOM     12  N   UNL     1      45.497   4.181   8.975  0.00  0.00    +0.000 N 
ATOM     13  C   UNL     1      45.398   2.885   8.516  0.00  0.00    +0.000 C 
ATOM     14  O   UNL     1      44.595   2.069   8.960  0.00  0.00    +0.000 OA
ATOM     15  H   UNL     1      46.195   4.776   8.536  0.00  0.00    +0.000 HD
BRANCH  13  16
ATOM     16  C   UNL     1      46.346   2.579   7.446  0.00  0.00    +0.000 A 
ATOM     17  C   UNL     1      47.239   1.524   7.411  0.00  0.00    +0.000 A 
ATOM     18  N   UNL     1      47.907   1.646   6.226  0.00  0.00    +0.000 N 
ATOM     19  C   UNL     1      47.410   2.745   5.583  0.00  0.00    +0.000 A 
ATOM     20  N   UNL     1      46.473   3.334   6.287  0.00  0.00    +0.000 NA
ATOM     21  H   UNL     1      48.637   1.036   5.879  0.00  0.00    +0.000 HD
ENDBRANCH  13  16
ENDBRANCH  11  12
ENDBRANCH   8  11
ENDBRANCH   2   5
BRANCH   1  23
ATOM     22  C   UNL     1      49.687   4.887  17.023  0.00  0.00    +0.000 C 
ATOM     23  C   UNL     1      48.399   5.701  16.972  0.00  0.00    +0.000 C 
BRANCH  23  24
ATOM     24  C   UNL     1      48.625   7.163  17.307  0.00  0.00    +0.000 A 
ATOM     25  C   UNL     1      48.339   7.693  18.556  0.00  0.00    +0.000 A 
ATOM     26  S   UNL     1      48.501   9.392  18.625  0.00  0.00    +0.000 S 
ATOM     27  C   UNL     1      48.966   9.470  16.989  0.00  0.00    +0.000 A 
ATOM     28  N   UNL     1      49.142  10.661  16.357  0.00  0.00    +0.000 NA
ATOM     29  C   UNL     1      49.483  10.555  15.115  0.00  0.00    +0.000 A 
ATOM     30  N   UNL     1      49.723   9.369  14.465  0.00  0.00    +0.000 N 
ATOM     31  C   UNL     1      49.641   8.147  15.089  0.00  0.00    +0.000 A 
ATOM     32  O   UNL     1      50.013   7.113  14.537  0.00  0.00    +0.000 OA
ATOM     33  C   UNL     1      49.116   8.209  16.440  0.00  0.00    +0.000 A 
ATOM     34  H   UNL     1      50.056   9.364  13.514  0.00  0.00    +0.000 HD
ENDBRANCH  23  24
ENDBRANCH   1  23
TORSDOF 6
ENDMDL
MODEL 5
REMARK VINA RESULT:    -6.968      1.801      2.219
REMARK INTER + INTRA:         -10.534
REMARK INTER:                 -10.058
REMARK INTRA:                  -0.476
REMARK UNBOUND:                -1.122
REMARK  Name = 
REMARK  7 active torsions:
REMARK  status: ('A' for Active; 'I' for Inactive)
REMARK    1  A    between atoms: C_1  and  C_2
REMARK    2  A    between atoms: C_2  and  N_3
REMARK    3  A    between atoms: C_2  and  C_21
REMARK    4  A    between atoms: C_4  and  C_6
REMARK    5  A    between atoms: C_9  and  C_10
REMARK    6  A    between atoms: C_10  and  N_11
REMARK    7  A    between atoms: C_12  and  C_14
REMARK                            x       y       z     vdW  Elec       q    Type
REMARK                         _______ _______ _______ _____ _____    ______ ____
ROOT
ATOM      1  N   UNL     1      48.597   6.478  14.680  0.00  0.00    +0.000 N 
ATOM      2  C   UNL     1      47.601   7.234  14.098  0.00  0.00    +0.000 C 
ATOM      3  O   UNL     1      47.434   8.426  14.323  0.00  0.00    +0.000 OA
ATOM      4  H   UNL     1      48.858   5.606  14.226  0.00  0.00    +0.000 HD
ENDROOT
BRANCH   2   5
ATOM      5  C   UNL     1      46.717   6.518  13.130  0.00  0.00    +0.000 A 
ATOM      6  C   UNL     1      46.315   5.193  13.340  0.00  0.00    +0.000 A 
ATOM      7  C   UNL     1      45.476   4.554  12.420  0.00  0.00    +0.000 A 
ATOM      8  C   UNL     1      45.030   5.224  11.272  0.00  0.00    +0.000 A 
ATOM      9  C   UNL     1      45.405   6.562  11.086  0.00  0.00    +0.000 A 
ATOM     10  C   UNL     1      46.241   7.206  12.008  0.00  0.00    +0.000 A 
BRANCH   8  11
ATOM     11  C   UNL     1      44.156   4.522  10.266  0.00  0.00    +0.000 C 
BRANCH  11  12
ATOM     12  N   UNL     1      44.842   3.468   9.573  0.00  0.00    +0.000 N 
ATOM     13  C   UNL     1      45.654   3.735   8.492  0.00  0.00    +0.000 C 
ATOM     14  O   UNL     1      45.835   4.863   8.044  0.00  0.00    +0.000 OA
ATOM     15  H   UNL     1      44.764   2.497   9.865  0.00  0.00    +0.000 HD
BRANCH  13  16
ATOM     16  C   UNL     1      46.277   2.537   7.930  0.00  0.00    +0.000 A 
ATOM     17  C   UNL     1      46.006   1.226   8.275  0.00  0.00    +0.000 A 
ATOM     18  N   UNL     1      46.823   0.462   7.491  0.00  0.00    +0.000 N 
ATOM     19  C   UNL     1      47.550   1.310   6.703  0.00  0.00    +0.000 A 
ATOM     20  N   UNL     1      47.252   2.565   6.941  0.00  0.00    +0.000 NA
ATOM     21  H   UNL     1      46.883  -0.549   7.488  0.00  0.00    +0.000 HD
ENDBRANCH  13  16
ENDBRANCH  11  12
ENDBRANCH   8  11
ENDBRANCH   2   5
BRANCH   1  23
ATOM     22  C   UNL     1      50.053   8.391  15.089  0.00  0.00    +0.000 C 
ATOM     23  C   UNL     1      49.578   7.033  15.595  0.00  0.00    +0.000 C 
BRANCH  23  24
ATOM     24  C   UNL     1      49.027   7.101  17.006  0.00  0.00    +0.000 A 
ATOM     25  C   UNL     1      48.644   8.296  17.597  0.00  0.00    +0.000 A 
ATOM     26  S   UNL     1      48.235   8.135  19.247  0.00  0.00    +0.000 S 
ATOM     27  C   UNL     1      48.550   6.462  19.220  0.00  0.00    +0.000 A 
ATOM     28  N   UNL     1      48.516   5.714  20.355  0.00  0.00    +0.000 NA
ATOM     29  C   UNL     1      48.788   4.464  20.173  0.00  0.00    +0.000 A 
ATOM     30  N   UNL     1      49.033   3.883  18.953  0.00  0.00    +0.000 N 
ATOM     31  C   UNL     1      48.993   4.586  17.771  0.00  0.00    +0.000 A 
ATOM     32  O   UNL     1      49.056   4.020  16.681  0.00  0.00    +0.000 OA
ATOM     33  C   UNL     1      48.839   6.018  17.942  0.00  0.00    +0.000 A 
ATOM     34  H   UNL     1      49.168   2.887  18.877  0.00  0.00    +0.000 HD
ENDBRANCH  23  24
ENDBRANCH   1  23
TORSDOF 6
ENDMDL
MODEL 6
REMARK VINA RESULT:    -6.665      2.053      3.674
REMARK INTER + INTRA:         -10.125
REMARK INTER:                  -9.055
REMARK INTRA:                  -1.070
REMARK UNBOUND:                -1.122
REMARK  Name = 
REMARK  7 active torsions:
REMARK  status: ('A' for Active; 'I' for Inactive)
REMARK    1  A    between atoms: C_1  and  C_2
REMARK    2  A    between atoms: C_2  and  N_3
REMARK    3  A    between atoms: C_2  and  C_21
REMARK    4  A    between atoms: C_4  and  C_6
REMARK    5  A    between atoms: C_9  and  C_10
REMARK    6  A    between atoms: C_10  and  N_11
REMARK    7  A    between atoms: C_12  and  C_14
REMARK                            x       y       z     vdW  Elec       q    Type
REMARK                         _______ _______ _______ _____ _____    ______ ____
ROOT
ATOM      1  N   UNL     1      48.552   4.708  16.418  0.00  0.00    +0.000 N 
ATOM      2  C   UNL     1      47.314   4.241  16.030  0.00  0.00    +0.000 C 
ATOM      3  O   UNL     1      46.614   3.512  16.723  0.00  0.00    +0.000 OA
ATOM      4  H   UNL     1      48.921   5.527  15.942  0.00  0.00    +0.000 HD
ENDROOT
BRANCH   2   5
ATOM      5  C   UNL     1      46.835   4.694  14.689  0.00  0.00    +0.000 A 
ATOM      6  C   UNL     1      47.297   5.878  14.102  0.00  0.00    +0.000 A 
ATOM      7  C   UNL     1      46.838   6.269  12.840  0.00  0.00    +0.000 A 
ATOM      8  C   UNL     1      45.904   5.487  12.144  0.00  0.00    +0.000 A 
ATOM      9  C   UNL     1      45.472   4.284  12.720  0.00  0.00    +0.000 A 
ATOM     10  C   UNL     1      45.934   3.888  13.982  0.00  0.00    +0.000 A 
BRANCH   8  11
ATOM     11  C   UNL     1      45.384   5.928  10.801  0.00  0.00    +0.000 C 
BRANCH  11  12
ATOM     12  N   UNL     1      45.953   5.184   9.713  0.00  0.00    +0.000 N 
ATOM     13  C   UNL     1      45.265   4.147   9.120  0.00  0.00    +0.000 C 
ATOM     14  O   UNL     1      44.148   3.784   9.478  0.00  0.00    +0.000 OA
ATOM     15  H   UNL     1      46.872   5.405   9.337  0.00  0.00    +0.000 HD
BRANCH  13  16
ATOM     16  C   UNL     1      46.000   3.521   8.022  0.00  0.00    +0.000 A 
ATOM     17  C   UNL     1      46.676   4.170   7.006  0.00  0.00    +0.000 A 
ATOM     18  N   UNL     1      47.203   3.182   6.224  0.00  0.00    +0.000 N 
ATOM     19  C   UNL     1      46.846   1.983   6.777  0.00  0.00    +0.000 A 
ATOM     20  N   UNL     1      46.119   2.148   7.857  0.00  0.00    +0.000 NA
ATOM     21  H   UNL     1      47.760   3.306   5.388  0.00  0.00    +0.000 HD
ENDBRANCH  13  16
ENDBRANCH  11  12
ENDBRANCH   8  11
ENDBRANCH   2   5
BRANCH   1  23
ATOM     22  C   UNL     1      50.656   4.338  17.595  0.00  0.00    +0.000 C 
ATOM     23  C   UNL     1      49.137   4.413  17.714  0.00  0.00    +0.000 C 
BRANCH  23  24
ATOM     24  C   UNL     1      48.688   5.421  18.754  0.00  0.00    +0.000 A 
ATOM     25  C   UNL     1      48.425   5.065  20.069  0.00  0.00    +0.000 A 
ATOM     26  S   UNL     1      47.756   6.337  20.993  0.00  0.00    +0.000 S 
ATOM     27  C   UNL     1      47.804   7.402  19.665  0.00  0.00    +0.000 A 
ATOM     28  N   UNL     1      47.258   8.646  19.733  0.00  0.00    +0.000 NA
ATOM     29  C   UNL     1      47.364   9.330  18.642  0.00  0.00    +0.000 A 
ATOM     30  N   UNL     1      48.019   8.908  17.511  0.00  0.00    +0.000 N 
ATOM     31  C   UNL     1      48.658   7.693  17.429  0.00  0.00    +0.000 A 
ATOM     32  O   UNL     1      49.370   7.401  16.471  0.00  0.00    +0.000 OA
ATOM     33  C   UNL     1      48.436   6.832  18.576  0.00  0.00    +0.000 A 
ATOM     34  H   UNL     1      48.124   9.523  16.720  0.00  0.00    +0.000 HD
ENDBRANCH  23  24
ENDBRANCH   1  23
TORSDOF 6
ENDMDL
MODEL 7
REMARK VINA RESULT:    -6.415      4.263      9.408
REMARK INTER + INTRA:          -9.787
REMARK INTER:                  -8.775
REMARK INTRA:                  -1.012
REMARK UNBOUND:                -1.122
REMARK  Name = 
REMARK  7 active torsions:
REMARK  status: ('A' for Active; 'I' for Inactive)
REMARK    1  A    between atoms: C_1  and  C_2
REMARK    2  A    between atoms: C_2  and  N_3
REMARK    3  A    between atoms: C_2  and  C_21
REMARK    4  A    between atoms: C_4  and  C_6
REMARK    5  A    between atoms: C_9  and  C_10
REMARK    6  A    between atoms: C_10  and  N_11
REMARK    7  A    between atoms: C_12  and  C_14
REMARK                            x       y       z     vdW  Elec       q    Type
REMARK                         _______ _______ _______ _____ _____    ______ ____
ROOT
ATOM      1  N   UNL     1      49.701   5.396  16.611  0.00  0.00    +0.000 N 
ATOM      2  C   UNL     1      49.583   4.497  17.651  0.00  0.00    +0.000 C 
ATOM      3  O   UNL     1      48.670   4.519  18.468  0.00  0.00    +0.000 OA
ATOM      4  H   UNL     1      50.287   5.135  15.822  0.00  0.00    +0.000 HD
ENDROOT
BRANCH   2   5
ATOM      5  C   UNL     1      50.640   3.445  17.728  0.00  0.00    +0.000 A 
ATOM      6  C   UNL     1      50.404   2.129  17.310  0.00  0.00    +0.000 A 
ATOM      7  C   UNL     1      51.420   1.170  17.385  0.00  0.00    +0.000 A 
ATOM      8  C   UNL     1      52.687   1.505  17.885  0.00  0.00    +0.000 A 
ATOM      9  C   UNL     1      52.929   2.833  18.267  0.00  0.00    +0.000 A 
ATOM     10  C   UNL     1      51.915   3.796  18.189  0.00  0.00    +0.000 A 
BRANCH   8  11
ATOM     11  C   UNL     1      53.767   0.462  17.997  0.00  0.00    +0.000 C 
BRANCH  11  12
ATOM     12  N   UNL     1      53.338  -0.708  18.709  0.00  0.00    +0.000 N 
ATOM     13  C   UNL     1      54.119  -1.843  18.756  0.00  0.00    +0.000 C 
ATOM     14  O   UNL     1      55.207  -1.938  18.194  0.00  0.00    +0.000 OA
ATOM     15  H   UNL     1      52.454  -0.734  19.212  0.00  0.00    +0.000 HD
BRANCH  13  16
ATOM     16  C   UNL     1      53.521  -2.923  19.540  0.00  0.00    +0.000 A 
ATOM     17  C   UNL     1      53.575  -4.275  19.257  0.00  0.00    +0.000 A 
ATOM     18  N   UNL     1      52.882  -4.889  20.262  0.00  0.00    +0.000 N 
ATOM     19  C   UNL     1      52.439  -3.915  21.113  0.00  0.00    +0.000 A 
ATOM     20  N   UNL     1      52.801  -2.720  20.709  0.00  0.00    +0.000 NA
ATOM     21  H   UNL     1      52.724  -5.884  20.365  0.00  0.00    +0.000 HD
ENDBRANCH  13  16
ENDBRANCH  11  12
ENDBRANCH   8  11
ENDBRANCH   2   5
BRANCH   1  23
ATOM     22  C   UNL     1      49.226   7.768  16.919  0.00  0.00    +0.000 C 
ATOM     23  C   UNL     1      48.726   6.442  16.356  0.00  0.00    +0.000 C 
BRANCH  23  24
ATOM     24  C   UNL     1      48.398   6.527  14.878  0.00  0.00    +0.000 A 
ATOM     25  C   UNL     1      48.945   7.497  14.050  0.00  0.00    +0.000 A 
ATOM     26  S   UNL     1      48.278   7.499  12.478  0.00  0.00    +0.000 S 
ATOM     27  C   UNL     1      47.243   6.200  12.854  0.00  0.00    +0.000 A 
ATOM     28  N   UNL     1      46.297   5.769  11.978  0.00  0.00    +0.000 NA
ATOM     29  C   UNL     1      45.584   4.783  12.413  0.00  0.00    +0.000 A 
ATOM     30  N   UNL     1      45.769   4.151  13.617  0.00  0.00    +0.000 N 
ATOM     31  C   UNL     1      46.768   4.500  14.496  0.00  0.00    +0.000 A 
ATOM     32  O   UNL     1      47.017   3.823  15.492  0.00  0.00    +0.000 OA
ATOM     33  C   UNL     1      47.495   5.696  14.117  0.00  0.00    +0.000 A 
ATOM     34  H   UNL     1      45.221   3.342  13.862  0.00  0.00    +0.000 HD
ENDBRANCH  23  24
ENDBRANCH   1  23
TORSDOF 6
ENDMDL
MODEL 8
REMARK VINA RESULT:    -6.330      2.085      2.580
REMARK INTER + INTRA:          -9.672
REMARK INTER:                  -8.765
REMARK INTRA:                  -0.907
REMARK UNBOUND:                -1.122
REMARK  Name = 
REMARK  7 active torsions:
REMARK  status: ('A' for Active; 'I' for Inactive)
REMARK    1  A    between atoms: C_1  and  C_2
REMARK    2  A    between atoms: C_2  and  N_3
REMARK    3  A    between atoms: C_2  and  C_21
REMARK    4  A    between atoms: C_4  and  C_6
REMARK    5  A    between atoms: C_9  and  C_10
REMARK    6  A    between atoms: C_10  and  N_11
REMARK    7  A    between atoms: C_12  and  C_14
REMARK                            x       y       z     vdW  Elec       q    Type
REMARK                         _______ _______ _______ _____ _____    ______ ____
ROOT
ATOM      1  N   UNL     1      48.352   7.708  16.277  0.00  0.00    +0.000 N 
ATOM      2  C   UNL     1      48.610   8.066  14.971  0.00  0.00    +0.000 C 
ATOM      3  O   UNL     1      49.597   8.701  14.623  0.00  0.00    +0.000 OA
ATOM      4  H   UNL     1      47.701   6.944  16.440  0.00  0.00    +0.000 HD
ENDROOT
BRANCH   2   5
ATOM      5  C   UNL     1      47.608   7.613  13.959  0.00  0.00    +0.000 A 
ATOM      6  C   UNL     1      46.711   8.504  13.358  0.00  0.00    +0.000 A 
ATOM      7  C   UNL     1      45.793   8.050  12.404  0.00  0.00    +0.000 A 
ATOM      8  C   UNL     1      45.751   6.697  12.039  0.00  0.00    +0.000 A 
ATOM      9  C   UNL     1      46.677   5.815  12.616  0.00  0.00    +0.000 A 
ATOM     10  C   UNL     1      47.599   6.268  13.567  0.00  0.00    +0.000 A 
BRANCH   8  11
ATOM     11  C   UNL     1      44.739   6.204  11.039  0.00  0.00    +0.000 C 
BRANCH  11  12
ATOM     12  N   UNL     1      45.316   5.354  10.036  0.00  0.00    +0.000 N 
ATOM     13  C   UNL     1      44.668   4.215   9.606  0.00  0.00    +0.000 C 
ATOM     14  O   UNL     1      43.583   3.847  10.047  0.00  0.00    +0.000 OA
ATOM     15  H   UNL     1      46.211   5.569   9.603  0.00  0.00    +0.000 HD
BRANCH  13  16
ATOM     16  C   UNL     1      45.405   3.489   8.572  0.00  0.00    +0.000 A 
ATOM     17  C   UNL     1      45.708   2.141   8.568  0.00  0.00    +0.000 A 
ATOM     18  N   UNL     1      46.398   1.922   7.410  0.00  0.00    +0.000 N 
ATOM     19  C   UNL     1      46.490   3.117   6.752  0.00  0.00    +0.000 A 
ATOM     20  N   UNL     1      45.907   4.083   7.422  0.00  0.00    +0.000 NA
ATOM     21  H   UNL     1      46.775   1.038   7.090  0.00  0.00    +0.000 HD
ENDBRANCH  13  16
ENDBRANCH  11  12
ENDBRANCH   8  11
ENDBRANCH   2   5
BRANCH   1  23
ATOM     22  C   UNL     1      48.643   9.094  18.263  0.00  0.00    +0.000 C 
ATOM     23  C   UNL     1      49.253   8.015  17.374  0.00  0.00    +0.000 C 
BRANCH  23  24
ATOM     24  C   UNL     1      49.611   6.762  18.148  0.00  0.00    +0.000 A 
ATOM     25  C   UNL     1      48.817   6.269  19.174  0.00  0.00    +0.000 A 
ATOM     26  S   UNL     1      49.528   4.961  20.010  0.00  0.00    +0.000 S 
ATOM     27  C   UNL     1      50.914   5.008  19.023  0.00  0.00    +0.000 A 
ATOM     28  N   UNL     1      51.994   4.223  19.277  0.00  0.00    +0.000 NA
ATOM     29  C   UNL     1      52.971   4.382  18.446  0.00  0.00    +0.000 A 
ATOM     30  N   UNL     1      52.943   5.209  17.350  0.00  0.00    +0.000 N 
ATOM     31  C   UNL     1      51.841   5.957  17.009  0.00  0.00    +0.000 A 
ATOM     32  O   UNL     1      51.778   6.566  15.943  0.00  0.00    +0.000 OA
ATOM     33  C   UNL     1      50.778   5.924  17.996  0.00  0.00    +0.000 A 
ATOM     34  H   UNL     1      53.716   5.230  16.704  0.00  0.00    +0.000 HD
ENDBRANCH  23  24
ENDBRANCH   1  23
TORSDOF 6
ENDMDL
MODEL 9
REMARK VINA RESULT:    -6.156      5.614      7.883
REMARK INTER + INTRA:          -9.437
REMARK INTER:                  -8.542
REMARK INTRA:                  -0.895
REMARK UNBOUND:                -1.122
REMARK  Name = 
REMARK  7 active torsions:
REMARK  status: ('A' for Active; 'I' for Inactive)
REMARK    1  A    between atoms: C_1  and  C_2
REMARK    2  A    between atoms: C_2  and  N_3
REMARK    3  A    between atoms: C_2  and  C_21
REMARK    4  A    between atoms: C_4  and  C_6
REMARK    5  A    between atoms: C_9  and  C_10
REMARK    6  A    between atoms: C_10  and  N_11
REMARK    7  A    between atoms: C_12  and  C_14
REMARK                            x       y       z     vdW  Elec       q    Type
REMARK                         _______ _______ _______ _____ _____    ______ ____
ROOT
ATOM      1  N   UNL     1      52.352   8.852  10.516  0.00  0.00    +0.000 N 
ATOM      2  C   UNL     1      51.263   9.473  11.090  0.00  0.00    +0.000 C 
ATOM      3  O   UNL     1      50.979  10.651  10.910  0.00  0.00    +0.000 OA
ATOM      4  H   UNL     1      52.347   7.836  10.464  0.00  0.00    +0.000 HD
ENDROOT
BRANCH   2   5
ATOM      5  C   UNL     1      50.400   8.612  11.954  0.00  0.00    +0.000 A 
ATOM      6  C   UNL     1      49.300   7.916  11.438  0.00  0.00    +0.000 A 
ATOM      7  C   UNL     1      48.519   7.108  12.272  0.00  0.00    +0.000 A 
ATOM      8  C   UNL     1      48.818   6.988  13.637  0.00  0.00    +0.000 A 
ATOM      9  C   UNL     1      49.942   7.658  14.141  0.00  0.00    +0.000 A 
ATOM     10  C   UNL     1      50.728   8.463  13.307  0.00  0.00    +0.000 A 
BRANCH   8  11
ATOM     11  C   UNL     1      47.954   6.147  14.540  0.00  0.00    +0.000 C 
BRANCH  11  12
ATOM     12  N   UNL     1      46.703   5.787  13.934  0.00  0.00    +0.000 N 
ATOM     13  C   UNL     1      46.358   4.466  13.738  0.00  0.00    +0.000 C 
ATOM     14  O   UNL     1      47.084   3.525  14.047  0.00  0.00    +0.000 OA
ATOM     15  H   UNL     1      46.027   6.490  13.644  0.00  0.00    +0.000 HD
BRANCH  13  16
ATOM     16  C   UNL     1      45.042   4.299  13.123  0.00  0.00    +0.000 A 
ATOM     17  C   UNL     1      44.065   5.268  12.990  0.00  0.00    +0.000 A 
ATOM     18  N   UNL     1      43.022   4.654  12.358  0.00  0.00    +0.000 N 
ATOM     19  C   UNL     1      43.386   3.357  12.123  0.00  0.00    +0.000 A 
ATOM     20  N   UNL     1      44.593   3.107  12.572  0.00  0.00    +0.000 NA
ATOM     21  H   UNL     1      42.137   5.076  12.104  0.00  0.00    +0.000 HD
ENDBRANCH  13  16
ENDBRANCH  11  12
ENDBRANCH   8  11
ENDBRANCH   2   5
BRANCH   1  23
ATOM     22  C   UNL     1      54.607   9.750  10.275  0.00  0.00    +0.000 C 
ATOM     23  C   UNL     1      53.257   9.527   9.603  0.00  0.00    +0.000 C 
BRANCH  23  24
ATOM     24  C   UNL     1      53.379   8.763   8.299  0.00  0.00    +0.000 A 
ATOM     25  C   UNL     1      53.261   9.380   7.062  0.00  0.00    +0.000 A 
ATOM     26  S   UNL     1      53.250   8.280   5.755  0.00  0.00    +0.000 S 
ATOM     27  C   UNL     1      53.410   6.947   6.802  0.00  0.00    +0.000 A 
ATOM     28  N   UNL     1      53.343   5.669   6.341  0.00  0.00    +0.000 NA
ATOM     29  C   UNL     1      53.471   4.769   7.259  0.00  0.00    +0.000 A 
ATOM     30  N   UNL     1      53.719   5.027   8.584  0.00  0.00    +0.000 N 
ATOM     31  C   UNL     1      53.879   6.301   9.078  0.00  0.00    +0.000 A 
ATOM     32  O   UNL     1      54.258   6.505  10.229  0.00  0.00    +0.000 OA
ATOM     33  C   UNL     1      53.596   7.347   8.113  0.00  0.00    +0.000 A 
ATOM     34  H   UNL     1      53.879   4.273   9.233  0.00  0.00    +0.000 HD
ENDBRANCH  23  24
ENDBRANCH   1  23
TORSDOF 6
ENDMDL
