MODEL 1
REMARK VINA RESULT:    -7.543      0.000      0.000
REMARK INTER + INTRA:         -12.415
REMARK INTER:                 -11.291
REMARK INTRA:                  -1.124
REMARK UNBOUND:                -1.124
REMARK  Name = 
REMARK  9 active torsions:
REMARK  status: ('A' for Active; 'I' for Inactive)
REMARK    1  A    between atoms: N_1  and  C_2
REMARK    2  A    between atoms: C_2  and  C_3
REMARK    3  A    between atoms: C_3  and  N_4
REMARK    4  A    between atoms: N_4  and  C_5
REMARK    5  A    between atoms: C_5  and  C_6
REMARK    6  A    between atoms: C_5  and  C_20
REMARK    7  A    between atoms: C_6  and  C_7
REMARK    8  A    between atoms: C_10  and  C_11
REMARK    9  A    between atoms: C_11  and  C_12
REMARK                            x       y       z     vdW  Elec       q    Type
REMARK                         _______ _______ _______ _____ _____    ______ ____
ROOT
ATOM      1  C   UNL     1      47.869   6.107  14.019  0.00  0.00    +0.000 C 
ENDROOT
BRANCH   1   2
ATOM      2  C   UNL     1      48.421   7.506  14.367  0.00  0.00    +0.000 A 
ATOM      3  C   UNL     1      48.655   7.950  15.666  0.00  0.00    +0.000 A 
ATOM      4  S   UNL     1      49.246   9.541  15.773  0.00  0.00    +0.000 S 
ATOM      5  C   UNL     1      49.222   9.718  14.086  0.00  0.00    +0.000 A 
ATOM      6  N   UNL     1      49.589  10.894  13.512  0.00  0.00    +0.000 NA
ATOM      7  C   UNL     1      49.527  10.897  12.225  0.00  0.00    +0.000 A 
ATOM      8  N   UNL     1      49.161   9.823  11.457  0.00  0.00    +0.000 N 
ATOM      9  C   UNL     1      48.858   8.586  11.992  0.00  0.00    +0.000 A 
ATOM     10  O   UNL     1      48.693   7.604  11.274  0.00  0.00    +0.000 OA
ATOM     11  C   UNL     1      48.819   8.555  13.445  0.00  0.00    +0.000 A 
ATOM     12  H   UNL     1      49.182   9.878  10.452  0.00  0.00    +0.000 HD
ENDBRANCH   1   2
BRANCH   1  13
ATOM     13  N   UNL     1      48.220   5.217  15.147  0.00  0.00    +0.000 NA
ATOM     14  H   UNL     1      49.019   4.647  14.867  0.00  0.00    +0.000 HD
BRANCH  13  15
ATOM     15  C   UNL     1      47.195   4.344  15.710  0.00  0.00    +0.000 C 
BRANCH  15  16
ATOM     16  C   UNL     1      47.155   4.261  17.248  0.00  0.00    +0.000 C 
BRANCH  16  17
ATOM     17  N   UNL     1      46.727   2.928  17.677  0.00  0.00    +0.000 NA
ATOM     18  H   UNL     1      46.014   2.569  17.042  0.00  0.00    +0.000 HD
ATOM     19  H   UNL     1      46.291   2.988  18.597  0.00  0.00    +0.000 HD
ENDBRANCH  16  17
ENDBRANCH  15  16
ENDBRANCH  13  15
ENDBRANCH   1  13
BRANCH   1  20
ATOM     20  C   UNL     1      46.380   6.074  13.560  0.00  0.00    +0.000 C 
BRANCH  20  21
ATOM     21  C   UNL     1      45.843   5.218  12.428  0.00  0.00    +0.000 A 
ATOM     22  C   UNL     1      45.403   3.900  12.546  0.00  0.00    +0.000 A 
ATOM     23  C   UNL     1      44.904   3.203  11.429  0.00  0.00    +0.000 A 
ATOM     24  C   UNL     1      44.839   3.810  10.164  0.00  0.00    +0.000 A 
ATOM     25  C   UNL     1      45.264   5.137  10.050  0.00  0.00    +0.000 A 
ATOM     26  C   UNL     1      45.771   5.820  11.158  0.00  0.00    +0.000 A 
BRANCH  24  27
ATOM     27  C   UNL     1      44.438   3.046   8.923  0.00  0.00    +0.000 C 
BRANCH  27  28
ATOM     28  C   UNL     1      45.522   2.659   7.942  0.00  0.00    +0.000 A 
ATOM     29  C   UNL     1      46.250   1.484   8.130  0.00  0.00    +0.000 A 
ATOM     30  C   UNL     1      47.372   1.249   7.339  0.00  0.00    +0.000 A 
ATOM     31  C   UNL     1      47.730   2.173   6.366  0.00  0.00    +0.000 A 
ATOM     32  C   UNL     1      46.932   3.296   6.216  0.00  0.00    +0.000 A 
ATOM     33  N   UNL     1      45.849   3.560   6.980  0.00  0.00    +0.000 NA
ENDBRANCH  27  28
ENDBRANCH  24  27
ENDBRANCH  20  21
ENDBRANCH   1  20
TORSDOF 9
ENDMDL
MODEL 2
REMARK VINA RESULT:    -7.415      3.191      5.152
REMARK INTER + INTRA:         -12.224
REMARK INTER:                 -11.059
REMARK INTRA:                  -1.165
REMARK UNBOUND:                -1.124
REMARK  Name = 
REMARK  9 active torsions:
REMARK  status: ('A' for Active; 'I' for Inactive)
REMARK    1  A    between atoms: N_1  and  C_2
REMARK    2  A    between atoms: C_2  and  C_3
REMARK    3  A    between atoms: C_3  and  N_4
REMARK    4  A    between atoms: N_4  and  C_5
REMARK    5  A    between atoms: C_5  and  C_6
REMARK    6  A    between atoms: C_5  and  C_20
REMARK    7  A    between atoms: C_6  and  C_7
REMARK    8  A    between atoms: C_10  and  C_11
REMARK    9  A    between atoms: C_11  and  C_12
REMARK                            x       y       z     vdW  Elec       q    Type
REMARK                         _______ _______ _______ _____ _____    ______ ____
ROOT
ATOM      1  C   UNL     1      48.621   5.513  16.494  0.00  0.00    +0.000 C 
ENDROOT
BRANCH   1   2
ATOM      2  C   UNL     1      50.003   5.122  17.060  0.00  0.00    +0.000 A 
ATOM      3  C   UNL     1      50.972   6.041  17.453  0.00  0.00    +0.000 A 
ATOM      4  S   UNL     1      52.416   5.345  18.022  0.00  0.00    +0.000 S 
ATOM      5  C   UNL     1      51.818   3.777  17.773  0.00  0.00    +0.000 A 
ATOM      6  N   UNL     1      52.596   2.694  18.039  0.00  0.00    +0.000 NA
ATOM      7  C   UNL     1      52.024   1.562  17.808  0.00  0.00    +0.000 A 
ATOM      8  N   UNL     1      50.735   1.413  17.365  0.00  0.00    +0.000 N 
ATOM      9  C   UNL     1      49.883   2.481  17.160  0.00  0.00    +0.000 A 
ATOM     10  O   UNL     1      48.692   2.309  16.922  0.00  0.00    +0.000 OA
ATOM     11  C   UNL     1      50.509   3.784  17.313  0.00  0.00    +0.000 A 
ATOM     12  H   UNL     1      50.333   0.497  17.253  0.00  0.00    +0.000 HD
ENDBRANCH   1   2
BRANCH   1  13
ATOM     13  N   UNL     1      47.850   6.094  17.615  0.00  0.00    +0.000 NA
ATOM     14  H   UNL     1      48.422   6.815  18.057  0.00  0.00    +0.000 HD
BRANCH  13  15
ATOM     15  C   UNL     1      47.328   5.209  18.652  0.00  0.00    +0.000 C 
BRANCH  15  16
ATOM     16  C   UNL     1      48.076   5.238  19.998  0.00  0.00    +0.000 C 
BRANCH  16  17
ATOM     17  N   UNL     1      48.348   3.877  20.462  0.00  0.00    +0.000 NA
ATOM     18  H   UNL     1      49.229   3.545  20.073  0.00  0.00    +0.000 HD
ATOM     19  H   UNL     1      47.623   3.246  20.117  0.00  0.00    +0.000 HD
ENDBRANCH  16  17
ENDBRANCH  15  16
ENDBRANCH  13  15
ENDBRANCH   1  13
BRANCH   1  20
ATOM     20  C   UNL     1      48.652   6.349  15.179  0.00  0.00    +0.000 C 
BRANCH  20  21
ATOM     21  C   UNL     1      47.716   6.145  14.003  0.00  0.00    +0.000 A 
ATOM     22  C   UNL     1      47.706   6.904  12.833  0.00  0.00    +0.000 A 
ATOM     23  C   UNL     1      46.803   6.613  11.792  0.00  0.00    +0.000 A 
ATOM     24  C   UNL     1      45.884   5.558  11.901  0.00  0.00    +0.000 A 
ATOM     25  C   UNL     1      45.906   4.787  13.067  0.00  0.00    +0.000 A 
ATOM     26  C   UNL     1      46.794   5.086  14.103  0.00  0.00    +0.000 A 
BRANCH  24  27
ATOM     27  C   UNL     1      44.814   5.308  10.863  0.00  0.00    +0.000 C 
BRANCH  27  28
ATOM     28  C   UNL     1      45.113   4.327   9.752  0.00  0.00    +0.000 A 
ATOM     29  C   UNL     1      44.858   2.967   9.930  0.00  0.00    +0.000 A 
ATOM     30  C   UNL     1      45.325   2.061   8.982  0.00  0.00    +0.000 A 
ATOM     31  C   UNL     1      46.014   2.527   7.870  0.00  0.00    +0.000 A 
ATOM     32  C   UNL     1      46.193   3.895   7.746  0.00  0.00    +0.000 A 
ATOM     33  N   UNL     1      45.767   4.798   8.659  0.00  0.00    +0.000 NA
ENDBRANCH  27  28
ENDBRANCH  24  27
ENDBRANCH  20  21
ENDBRANCH   1  20
TORSDOF 9
ENDMDL
MODEL 3
REMARK VINA RESULT:    -7.307      3.405      8.130
REMARK INTER + INTRA:         -12.062
REMARK INTER:                 -11.203
REMARK INTRA:                  -0.859
REMARK UNBOUND:                -1.124
REMARK  Name = 
REMARK  9 active torsions:
REMARK  status: ('A' for Active; 'I' for Inactive)
REMARK    1  A    between atoms: N_1  and  C_2
REMARK    2  A    between atoms: C_2  and  C_3
REMARK    3  A    between atoms: C_3  and  N_4
REMARK    4  A    between atoms: N_4  and  C_5
REMARK    5  A    between atoms: C_5  and  C_6
REMARK    6  A    between atoms: C_5  and  C_20
REMARK    7  A    between atoms: C_6  and  C_7
REMARK    8  A    between atoms: C_10  and  C_11
REMARK    9  A    between atoms: C_11  and  C_12
REMARK                            x       y       z     vdW  Elec       q    Type
REMARK                         _______ _______ _______ _____ _____    ______ ____
ROOT
ATOM      1  C   UNL     1      45.747   6.625  11.660  0.00  0.00    +0.000 C 
ENDROOT
BRANCH   1   2
ATOM      2  C   UNL     1      44.960   5.306  11.503  0.00  0.00    +0.000 A 
ATOM      3  C   UNL     1      44.087   4.800  12.463  0.00  0.00    +0.000 A 
ATOM      4  S   UNL     1      43.365   3.317  12.049  0.00  0.00    +0.000 S 
ATOM      5  C   UNL     1      44.182   3.275  10.563  0.00  0.00    +0.000 A 
ATOM      6  N   UNL     1      44.024   2.220   9.720  0.00  0.00    +0.000 NA
ATOM      7  C   UNL     1      44.699   2.311   8.626  0.00  0.00    +0.000 A 
ATOM      8  N   UNL     1      45.494   3.374   8.283  0.00  0.00    +0.000 N 
ATOM      9  C   UNL     1      45.620   4.502   9.071  0.00  0.00    +0.000 A 
ATOM     10  O   UNL     1      46.206   5.500   8.663  0.00  0.00    +0.000 OA
ATOM     11  C   UNL     1      44.956   4.409  10.360  0.00  0.00    +0.000 A 
ATOM     12  H   UNL     1      45.954   3.403   7.389  0.00  0.00    +0.000 HD
ENDBRANCH   1   2
BRANCH   1  13
ATOM     13  N   UNL     1      44.865   7.562  12.389  0.00  0.00    +0.000 NA
ATOM     14  H   UNL     1      43.906   7.221  12.317  0.00  0.00    +0.000 HD
BRANCH  13  15
ATOM     15  C   UNL     1      44.886   8.979  12.037  0.00  0.00    +0.000 C 
BRANCH  15  16
ATOM     16  C   UNL     1      43.912   9.408  10.923  0.00  0.00    +0.000 C 
BRANCH  16  17
ATOM     17  N   UNL     1      42.751   8.517  10.889  0.00  0.00    +0.000 NA
ATOM     18  H   UNL     1      41.971   8.942  11.389  0.00  0.00    +0.000 HD
ATOM     19  H   UNL     1      42.970   7.649  11.378  0.00  0.00    +0.000 HD
ENDBRANCH  16  17
ENDBRANCH  15  16
ENDBRANCH  13  15
ENDBRANCH   1  13
BRANCH   1  20
ATOM     20  C   UNL     1      47.195   6.476  12.216  0.00  0.00    +0.000 C 
BRANCH  20  21
ATOM     21  C   UNL     1      47.539   6.060  13.633  0.00  0.00    +0.000 A 
ATOM     22  C   UNL     1      48.373   6.759  14.505  0.00  0.00    +0.000 A 
ATOM     23  C   UNL     1      48.608   6.290  15.811  0.00  0.00    +0.000 A 
ATOM     24  C   UNL     1      48.017   5.103  16.274  0.00  0.00    +0.000 A 
ATOM     25  C   UNL     1      47.168   4.411  15.406  0.00  0.00    +0.000 A 
ATOM     26  C   UNL     1      46.947   4.873  14.106  0.00  0.00    +0.000 A 
BRANCH  24  27
ATOM     27  C   UNL     1      48.358   4.503  17.619  0.00  0.00    +0.000 C 
BRANCH  27  28
ATOM     28  C   UNL     1      49.636   3.705  17.741  0.00  0.00    +0.000 A 
ATOM     29  C   UNL     1      50.769   4.279  18.317  0.00  0.00    +0.000 A 
ATOM     30  C   UNL     1      51.985   3.605  18.237  0.00  0.00    +0.000 A 
ATOM     31  C   UNL     1      52.043   2.369  17.607  0.00  0.00    +0.000 A 
ATOM     32  C   UNL     1      50.866   1.849  17.094  0.00  0.00    +0.000 A 
ATOM     33  N   UNL     1      49.675   2.487  17.141  0.00  0.00    +0.000 NA
ENDBRANCH  27  28
ENDBRANCH  24  27
ENDBRANCH  20  21
ENDBRANCH   1  20
TORSDOF 9
ENDMDL
MODEL 4
REMARK VINA RESULT:    -7.268      2.325      4.247
REMARK INTER + INTRA:         -12.004
REMARK INTER:                 -10.745
REMARK INTRA:                  -1.258
REMARK UNBOUND:                -1.124
REMARK  Name = 
REMARK  9 active torsions:
REMARK  status: ('A' for Active; 'I' for Inactive)
REMARK    1  A    between atoms: N_1  and  C_2
REMARK    2  A    between atoms: C_2  and  C_3
REMARK    3  A    between atoms: C_3  and  N_4
REMARK    4  A    between atoms: N_4  and  C_5
REMARK    5  A    between atoms: C_5  and  C_6
REMARK    6  A    between atoms: C_5  and  C_20
REMARK    7  A    between atoms: C_6  and  C_7
REMARK    8  A    between atoms: C_10  and  C_11
REMARK    9  A    between atoms: C_11  and  C_12
REMARK                            x       y       z     vdW  Elec       q    Type
REMARK                         _______ _______ _______ _____ _____    ______ ____
ROOT
ATOM      1  C   UNL     1      47.657   6.533  13.969  0.00  0.00    +0.000 C 
ENDROOT
BRANCH   1   2
ATOM      2  C   UNL     1      47.905   5.596  15.171  0.00  0.00    +0.000 A 
ATOM      3  C   UNL     1      47.159   4.450  15.433  0.00  0.00    +0.000 A 
ATOM      4  S   UNL     1      47.625   3.608  16.835  0.00  0.00    +0.000 S 
ATOM      5  C   UNL     1      48.851   4.733  17.164  0.00  0.00    +0.000 A 
ATOM      6  N   UNL     1      49.624   4.604  18.276  0.00  0.00    +0.000 NA
ATOM      7  C   UNL     1      50.518   5.522  18.409  0.00  0.00    +0.000 A 
ATOM      8  N   UNL     1      50.732   6.541  17.517  0.00  0.00    +0.000 N 
ATOM      9  C   UNL     1      50.026   6.666  16.336  0.00  0.00    +0.000 A 
ATOM     10  O   UNL     1      50.348   7.489  15.486  0.00  0.00    +0.000 OA
ATOM     11  C   UNL     1      48.940   5.711  16.184  0.00  0.00    +0.000 A 
ATOM     12  H   UNL     1      51.482   7.198  17.657  0.00  0.00    +0.000 HD
ENDBRANCH   1   2
BRANCH   1  13
ATOM     13  N   UNL     1      48.753   6.289  13.007  0.00  0.00    +0.000 NA
ATOM     14  H   UNL     1      49.598   6.066  13.534  0.00  0.00    +0.000 HD
BRANCH  13  15
ATOM     15  C   UNL     1      49.074   7.315  12.019  0.00  0.00    +0.000 C 
BRANCH  15  16
ATOM     16  C   UNL     1      50.532   7.810  12.015  0.00  0.00    +0.000 C 
BRANCH  16  17
ATOM     17  N   UNL     1      51.331   7.039  11.061  0.00  0.00    +0.000 NA
ATOM     18  H   UNL     1      51.873   6.329  11.553  0.00  0.00    +0.000 HD
ATOM     19  H   UNL     1      52.006   7.653  10.604  0.00  0.00    +0.000 HD
ENDBRANCH  16  17
ENDBRANCH  15  16
ENDBRANCH  13  15
ENDBRANCH   1  13
BRANCH   1  20
ATOM     20  C   UNL     1      46.213   6.499  13.385  0.00  0.00    +0.000 C 
BRANCH  20  21
ATOM     21  C   UNL     1      45.744   5.558  12.291  0.00  0.00    +0.000 A 
ATOM     22  C   UNL     1      45.333   4.238  12.477  0.00  0.00    +0.000 A 
ATOM     23  C   UNL     1      44.898   3.458  11.389  0.00  0.00    +0.000 A 
ATOM     24  C   UNL     1      44.870   3.980  10.086  0.00  0.00    +0.000 A 
ATOM     25  C   UNL     1      45.266   5.308   9.903  0.00  0.00    +0.000 A 
ATOM     26  C   UNL     1      45.710   6.075  10.983  0.00  0.00    +0.000 A 
BRANCH  24  27
ATOM     27  C   UNL     1      44.540   3.127   8.882  0.00  0.00    +0.000 C 
BRANCH  27  28
ATOM     28  C   UNL     1      45.684   2.599   8.047  0.00  0.00    +0.000 A 
ATOM     29  C   UNL     1      46.137   3.320   6.942  0.00  0.00    +0.000 A 
ATOM     30  C   UNL     1      47.047   2.725   6.073  0.00  0.00    +0.000 A 
ATOM     31  C   UNL     1      47.503   1.439   6.332  0.00  0.00    +0.000 A 
ATOM     32  C   UNL     1      47.034   0.804   7.471  0.00  0.00    +0.000 A 
ATOM     33  N   UNL     1      46.137   1.349   8.324  0.00  0.00    +0.000 NA
ENDBRANCH  27  28
ENDBRANCH  24  27
ENDBRANCH  20  21
ENDBRANCH   1  20
TORSDOF 9
ENDMDL
MODEL 5
REMARK VINA RESULT:    -7.216      2.081      2.489
REMARK INTER + INTRA:         -11.926
REMARK INTER:                 -10.567
REMARK INTRA:                  -1.359
REMARK UNBOUND:                -1.124
REMARK  Name = 
REMARK  9 active torsions:
REMARK  status: ('A' for Active; 'I' for Inactive)
REMARK    1  A    between atoms: N_1  and  C_2
REMARK    2  A    between atoms: C_2  and  C_3
REMARK    3  A    between atoms: C_3  and  N_4
REMARK    4  A    between atoms: N_4  and  C_5
REMARK    5  A    between atoms: C_5  and  C_6
REMARK    6  A    between atoms: C_5  and  C_20
REMARK    7  A    between atoms: C_6  and  C_7
REMARK    8  A    between atoms: C_10  and  C_11
REMARK    9  A    between atoms: C_11  and  C_12
REMARK                            x       y       z     vdW  Elec       q    Type
REMARK                         _______ _______ _______ _____ _____    ______ ____
ROOT
ATOM      1  C   UNL     1      47.263   7.380  13.209  0.00  0.00    +0.000 C 
ENDROOT
BRANCH   1   2
ATOM      2  C   UNL     1      47.310   8.769  12.537  0.00  0.00    +0.000 A 
ATOM      3  C   UNL     1      46.208   9.610  12.405  0.00  0.00    +0.000 A 
ATOM      4  S   UNL     1      46.529  11.076  11.605  0.00  0.00    +0.000 S 
ATOM      5  C   UNL     1      48.161  10.663  11.394  0.00  0.00    +0.000 A 
ATOM      6  N   UNL     1      49.003  11.500  10.732  0.00  0.00    +0.000 NA
ATOM      7  C   UNL     1      50.215  11.070  10.642  0.00  0.00    +0.000 A 
ATOM      8  N   UNL     1      50.669   9.893  11.178  0.00  0.00    +0.000 N 
ATOM      9  C   UNL     1      49.869   9.051  11.927  0.00  0.00    +0.000 A 
ATOM     10  O   UNL     1      50.343   8.092  12.529  0.00  0.00    +0.000 OA
ATOM     11  C   UNL     1      48.471   9.442  11.978  0.00  0.00    +0.000 A 
ATOM     12  H   UNL     1      51.641   9.640  11.114  0.00  0.00    +0.000 HD
ENDBRANCH   1   2
BRANCH   1  13
ATOM     13  N   UNL     1      47.869   7.535  14.550  0.00  0.00    +0.000 NA
ATOM     14  H   UNL     1      48.537   8.305  14.511  0.00  0.00    +0.000 HD
BRANCH  13  15
ATOM     15  C   UNL     1      48.514   6.385  15.175  0.00  0.00    +0.000 C 
BRANCH  15  16
ATOM     16  C   UNL     1      49.767   6.694  16.016  0.00  0.00    +0.000 C 
BRANCH  16  17
ATOM     17  N   UNL     1      50.899   7.016  15.147  0.00  0.00    +0.000 NA
ATOM     18  H   UNL     1      51.738   7.164  15.706  0.00  0.00    +0.000 HD
ATOM     19  H   UNL     1      50.718   7.895  14.659  0.00  0.00    +0.000 HD
ENDBRANCH  16  17
ENDBRANCH  15  16
ENDBRANCH  13  15
ENDBRANCH   1  13
BRANCH   1  20
ATOM     20  C   UNL     1      45.879   6.665  13.162  0.00  0.00    +0.000 C 
BRANCH  20  21
ATOM     21  C   UNL     1      45.497   5.586  12.166  0.00  0.00    +0.000 A 
ATOM     22  C   UNL     1      45.012   4.319  12.488  0.00  0.00    +0.000 A 
ATOM     23  C   UNL     1      44.670   3.399  11.478  0.00  0.00    +0.000 A 
ATOM     24  C   UNL     1      44.811   3.726  10.120  0.00  0.00    +0.000 A 
ATOM     25  C   UNL     1      45.281   5.002   9.798  0.00  0.00    +0.000 A 
ATOM     26  C   UNL     1      45.632   5.907  10.802  0.00  0.00    +0.000 A 
BRANCH  24  27
ATOM     27  C   UNL     1      44.582   2.715   9.019  0.00  0.00    +0.000 C 
BRANCH  27  28
ATOM     28  C   UNL     1      45.717   2.437   8.060  0.00  0.00    +0.000 A 
ATOM     29  C   UNL     1      45.929   3.272   6.963  0.00  0.00    +0.000 A 
ATOM     30  C   UNL     1      46.844   2.888   5.986  0.00  0.00    +0.000 A 
ATOM     31  C   UNL     1      47.541   1.696   6.131  0.00  0.00    +0.000 A 
ATOM     32  C   UNL     1      47.302   0.941   7.268  0.00  0.00    +0.000 A 
ATOM     33  N   UNL     1      46.408   1.280   8.225  0.00  0.00    +0.000 NA
ENDBRANCH  27  28
ENDBRANCH  24  27
ENDBRANCH  20  21
ENDBRANCH   1  20
TORSDOF 9
ENDMDL
MODEL 6
REMARK VINA RESULT:    -6.920      1.697      2.172
REMARK INTER + INTRA:         -11.483
REMARK INTER:                 -10.518
REMARK INTRA:                  -0.965
REMARK UNBOUND:                -1.124
REMARK  Name = 
REMARK  9 active torsions:
REMARK  status: ('A' for Active; 'I' for Inactive)
REMARK    1  A    between atoms: N_1  and  C_2
REMARK    2  A    between atoms: C_2  and  C_3
REMARK    3  A    between atoms: C_3  and  N_4
REMARK    4  A    between atoms: N_4  and  C_5
REMARK    5  A    between atoms: C_5  and  C_6
REMARK    6  A    between atoms: C_5  and  C_20
REMARK    7  A    between atoms: C_6  and  C_7
REMARK    8  A    between atoms: C_10  and  C_11
REMARK    9  A    between atoms: C_11  and  C_12
REMARK                            x       y       z     vdW  Elec       q    Type
REMARK                         _______ _______ _______ _____ _____    ______ ____
ROOT
ATOM      1  C   UNL     1      47.647   5.921  14.498  0.00  0.00    +0.000 C 
ENDROOT
BRANCH   1   2
ATOM      2  C   UNL     1      48.206   7.332  14.212  0.00  0.00    +0.000 A 
ATOM      3  C   UNL     1      47.475   8.353  13.610  0.00  0.00    +0.000 A 
ATOM      4  S   UNL     1      48.334   9.804  13.392  0.00  0.00    +0.000 S 
ATOM      5  C   UNL     1      49.730   9.143  14.094  0.00  0.00    +0.000 A 
ATOM      6  N   UNL     1      50.870   9.878  14.184  0.00  0.00    +0.000 NA
ATOM      7  C   UNL     1      51.856   9.261  14.738  0.00  0.00    +0.000 A 
ATOM      8  N   UNL     1      51.799   7.985  15.237  0.00  0.00    +0.000 N 
ATOM      9  C   UNL     1      50.642   7.231  15.240  0.00  0.00    +0.000 A 
ATOM     10  O   UNL     1      50.580   6.161  15.839  0.00  0.00    +0.000 OA
ATOM     11  C   UNL     1      49.525   7.845  14.541  0.00  0.00    +0.000 A 
ATOM     12  H   UNL     1      52.594   7.580  15.703  0.00  0.00    +0.000 HD
ENDBRANCH   1   2
BRANCH   1  13
ATOM     13  N   UNL     1      47.879   5.654  15.934  0.00  0.00    +0.000 NA
ATOM     14  H   UNL     1      48.873   5.785  16.127  0.00  0.00    +0.000 HD
BRANCH  13  15
ATOM     15  C   UNL     1      47.457   4.375  16.496  0.00  0.00    +0.000 C 
BRANCH  15  16
ATOM     16  C   UNL     1      48.590   3.410  16.893  0.00  0.00    +0.000 C 
BRANCH  16  17
ATOM     17  N   UNL     1      48.713   2.333  15.908  0.00  0.00    +0.000 NA
ATOM     18  H   UNL     1      48.105   1.556  16.162  0.00  0.00    +0.000 HD
ATOM     19  H   UNL     1      49.666   1.970  15.915  0.00  0.00    +0.000 HD
ENDBRANCH  16  17
ENDBRANCH  15  16
ENDBRANCH  13  15
ENDBRANCH   1  13
BRANCH   1  20
ATOM     20  C   UNL     1      46.202   5.659  13.977  0.00  0.00    +0.000 C 
BRANCH  20  21
ATOM     21  C   UNL     1      45.857   5.232  12.563  0.00  0.00    +0.000 A 
ATOM     22  C   UNL     1      46.034   6.005  11.415  0.00  0.00    +0.000 A 
ATOM     23  C   UNL     1      45.696   5.500  10.146  0.00  0.00    +0.000 A 
ATOM     24  C   UNL     1      45.165   4.209   9.995  0.00  0.00    +0.000 A 
ATOM     25  C   UNL     1      45.003   3.428  11.144  0.00  0.00    +0.000 A 
ATOM     26  C   UNL     1      45.328   3.938  12.404  0.00  0.00    +0.000 A 
BRANCH  24  27
ATOM     27  C   UNL     1      44.666   3.692   8.666  0.00  0.00    +0.000 C 
BRANCH  27  28
ATOM     28  C   UNL     1      45.643   2.962   7.772  0.00  0.00    +0.000 A 
ATOM     29  C   UNL     1      46.107   1.696   8.126  0.00  0.00    +0.000 A 
ATOM     30  C   UNL     1      47.153   1.130   7.402  0.00  0.00    +0.000 A 
ATOM     31  C   UNL     1      47.697   1.825   6.330  0.00  0.00    +0.000 A 
ATOM     32  C   UNL     1      47.155   3.061   6.016  0.00  0.00    +0.000 A 
ATOM     33  N   UNL     1      46.152   3.643   6.712  0.00  0.00    +0.000 NA
ENDBRANCH  27  28
ENDBRANCH  24  27
ENDBRANCH  20  21
ENDBRANCH   1  20
TORSDOF 9
ENDMDL
MODEL 7
REMARK VINA RESULT:    -6.681      3.373      8.767
REMARK INTER + INTRA:         -11.126
REMARK INTER:                 -10.100
REMARK INTRA:                  -1.026
REMARK UNBOUND:                -1.124
REMARK  Name = 
REMARK  9 active torsions:
REMARK  status: ('A' for Active; 'I' for Inactive)
REMARK    1  A    between atoms: N_1  and  C_2
REMARK    2  A    between atoms: C_2  and  C_3
REMARK    3  A    between atoms: C_3  and  N_4
REMARK    4  A    between atoms: N_4  and  C_5
REMARK    5  A    between atoms: C_5  and  C_6
REMARK    6  A    between atoms: C_5  and  C_20
REMARK    7  A    between atoms: C_6  and  C_7
REMARK    8  A    between atoms: C_10  and  C_11
REMARK    9  A    between atoms: C_11  and  C_12
REMARK                            x       y       z     vdW  Elec       q    Type
REMARK                         _______ _______ _______ _____ _____    ______ ____
ROOT
ATOM      1  C   UNL     1      45.742   6.871  11.665  0.00  0.00    +0.000 C 
ENDROOT
BRANCH   1   2
ATOM      2  C   UNL     1      44.931   5.561  11.564  0.00  0.00    +0.000 A 
ATOM      3  C   UNL     1      44.046   5.115  12.541  0.00  0.00    +0.000 A 
ATOM      4  S   UNL     1      43.297   3.629  12.191  0.00  0.00    +0.000 S 
ATOM      5  C   UNL     1      44.117   3.505  10.712  0.00  0.00    +0.000 A 
ATOM      6  N   UNL     1      43.942   2.417   9.916  0.00  0.00    +0.000 NA
ATOM      7  C   UNL     1      44.621   2.447   8.821  0.00  0.00    +0.000 A 
ATOM      8  N   UNL     1      45.437   3.478   8.434  0.00  0.00    +0.000 N 
ATOM      9  C   UNL     1      45.583   4.637   9.172  0.00  0.00    +0.000 A 
ATOM     10  O   UNL     1      46.188   5.606   8.723  0.00  0.00    +0.000 OA
ATOM     11  C   UNL     1      44.913   4.615  10.461  0.00  0.00    +0.000 A 
ATOM     12  H   UNL     1      45.901   3.460   7.541  0.00  0.00    +0.000 HD
ENDBRANCH   1   2
BRANCH   1  13
ATOM     13  N   UNL     1      44.880   7.853  12.360  0.00  0.00    +0.000 NA
ATOM     14  H   UNL     1      43.912   7.675  12.090  0.00  0.00    +0.000 HD
BRANCH  13  15
ATOM     15  C   UNL     1      45.157   9.277  12.204  0.00  0.00    +0.000 C 
BRANCH  15  16
ATOM     16  C   UNL     1      44.191  10.052  11.287  0.00  0.00    +0.000 C 
BRANCH  16  17
ATOM     17  N   UNL     1      43.104  10.641  12.071  0.00  0.00    +0.000 NA
ATOM     18  H   UNL     1      43.486  11.237  12.805  0.00  0.00    +0.000 HD
ATOM     19  H   UNL     1      42.581   9.902  12.542  0.00  0.00    +0.000 HD
ENDBRANCH  16  17
ENDBRANCH  15  16
ENDBRANCH  13  15
ENDBRANCH   1  13
BRANCH   1  20
ATOM     20  C   UNL     1      47.190   6.718  12.220  0.00  0.00    +0.000 C 
BRANCH  20  21
ATOM     21  C   UNL     1      47.534   6.232  13.615  0.00  0.00    +0.000 A 
ATOM     22  C   UNL     1      47.031   5.081  14.221  0.00  0.00    +0.000 A 
ATOM     23  C   UNL     1      47.435   4.713  15.518  0.00  0.00    +0.000 A 
ATOM     24  C   UNL     1      48.349   5.494  16.244  0.00  0.00    +0.000 A 
ATOM     25  C   UNL     1      48.865   6.639  15.630  0.00  0.00    +0.000 A 
ATOM     26  C   UNL     1      48.452   7.008  14.347  0.00  0.00    +0.000 A 
BRANCH  24  27
ATOM     27  C   UNL     1      48.695   5.201  17.685  0.00  0.00    +0.000 C 
BRANCH  27  28
ATOM     28  C   UNL     1      48.698   6.352  18.667  0.00  0.00    +0.000 A 
ATOM     29  C   UNL     1      47.501   6.972  19.023  0.00  0.00    +0.000 A 
ATOM     30  C   UNL     1      47.544   8.151  19.764  0.00  0.00    +0.000 A 
ATOM     31  C   UNL     1      48.771   8.672  20.151  0.00  0.00    +0.000 A 
ATOM     32  C   UNL     1      49.913   7.975  19.791  0.00  0.00    +0.000 A 
ATOM     33  N   UNL     1      49.904   6.839  19.057  0.00  0.00    +0.000 NA
ENDBRANCH  27  28
ENDBRANCH  24  27
ENDBRANCH  20  21
ENDBRANCH   1  20
TORSDOF 9
ENDMDL
MODEL 8
REMARK VINA RESULT:    -6.363      2.040      3.932
REMARK INTER + INTRA:         -10.649
REMARK INTER:                  -9.573
REMARK INTRA:                  -1.077
REMARK UNBOUND:                -1.124
REMARK  Name = 
REMARK  9 active torsions:
REMARK  status: ('A' for Active; 'I' for Inactive)
REMARK    1  A    between atoms: N_1  and  C_2
REMARK    2  A    between atoms: C_2  and  C_3
REMARK    3  A    between atoms: C_3  and  N_4
REMARK    4  A    between atoms: N_4  and  C_5
REMARK    5  A    between atoms: C_5  and  C_6
REMARK    6  A    between atoms: C_5  and  C_20
REMARK    7  A    between atoms: C_6  and  C_7
REMARK    8  A    between atoms: C_10  and  C_11
REMARK    9  A    between atoms: C_11  and  C_12
REMARK                            x       y       z     vdW  Elec       q    Type
REMARK                         _______ _______ _______ _____ _____    ______ ____
ROOT
ATOM      1  C   UNL     1      48.192   8.371  13.543  0.00  0.00    +0.000 C 
ENDROOT
BRANCH   1   2
ATOM      2  C   UNL     1      48.813   8.698  14.918  0.00  0.00    +0.000 A 
ATOM      3  C   UNL     1      49.088   9.989  15.361  0.00  0.00    +0.000 A 
ATOM      4  S   UNL     1      49.792  10.070  16.907  0.00  0.00    +0.000 S 
ATOM      5  C   UNL     1      49.765   8.382  17.065  0.00  0.00    +0.000 A 
ATOM      6  N   UNL     1      50.269   7.786  18.177  0.00  0.00    +0.000 NA
ATOM      7  C   UNL     1      50.187   6.499  18.173  0.00  0.00    +0.000 A 
ATOM      8  N   UNL     1      49.619   5.755  17.172  0.00  0.00    +0.000 N 
ATOM      9  C   UNL     1      49.022   6.322  16.062  0.00  0.00    +0.000 A 
ATOM     10  O   UNL     1      48.381   5.641  15.267  0.00  0.00    +0.000 OA
ATOM     11  C   UNL     1      49.172   7.764  15.972  0.00  0.00    +0.000 A 
ATOM     12  H   UNL     1      49.542   4.755  17.254  0.00  0.00    +0.000 HD
ENDBRANCH   1   2
BRANCH   1  13
ATOM     13  N   UNL     1      49.076   7.372  12.903  0.00  0.00    +0.000 NA
ATOM     14  H   UNL     1      49.846   7.171  13.542  0.00  0.00    +0.000 HD
BRANCH  13  15
ATOM     15  C   UNL     1      49.625   7.652  11.580  0.00  0.00    +0.000 C 
BRANCH  15  16
ATOM     16  C   UNL     1      51.115   8.041  11.541  0.00  0.00    +0.000 C 
BRANCH  16  17
ATOM     17  N   UNL     1      51.847   7.166  10.622  0.00  0.00    +0.000 NA
ATOM     18  H   UNL     1      52.837   7.157  10.864  0.00  0.00    +0.000 HD
ATOM     19  H   UNL     1      51.783   7.536   9.673  0.00  0.00    +0.000 HD
ENDBRANCH  16  17
ENDBRANCH  15  16
ENDBRANCH  13  15
ENDBRANCH   1  13
BRANCH   1  20
ATOM     20  C   UNL     1      46.672   8.027  13.563  0.00  0.00    +0.000 C 
BRANCH  20  21
ATOM     21  C   UNL     1      46.024   6.926  12.746  0.00  0.00    +0.000 A 
ATOM     22  C   UNL     1      46.248   5.558  12.903  0.00  0.00    +0.000 A 
ATOM     23  C   UNL     1      45.574   4.619  12.099  0.00  0.00    +0.000 A 
ATOM     24  C   UNL     1      44.664   5.029  11.111  0.00  0.00    +0.000 A 
ATOM     25  C   UNL     1      44.427   6.399  10.965  0.00  0.00    +0.000 A 
ATOM     26  C   UNL     1      45.107   7.328  11.756  0.00  0.00    +0.000 A 
BRANCH  24  27
ATOM     27  C   UNL     1      44.032   4.056  10.143  0.00  0.00    +0.000 C 
BRANCH  27  28
ATOM     28  C   UNL     1      44.907   3.444   9.072  0.00  0.00    +0.000 A 
ATOM     29  C   UNL     1      45.163   2.073   9.074  0.00  0.00    +0.000 A 
ATOM     30  C   UNL     1      46.128   1.563   8.209  0.00  0.00    +0.000 A 
ATOM     31  C   UNL     1      46.798   2.421   7.348  0.00  0.00    +0.000 A 
ATOM     32  C   UNL     1      46.459   3.764   7.379  0.00  0.00    +0.000 A 
ATOM     33  N   UNL     1      45.540   4.292   8.220  0.00  0.00    +0.000 NA
ENDBRANCH  27  28
ENDBRANCH  24  27
ENDBRANCH  20  21
ENDBRANCH   1  20
TORSDOF 9
ENDMDL
MODEL 9
REMARK VINA RESULT:    -6.275      4.174      7.189
REMARK INTER + INTRA:         -10.517
REMARK INTER:                  -9.230
REMARK INTRA:                  -1.287
REMARK UNBOUND:                -1.124
REMARK  Name = 
REMARK  9 active torsions:
REMARK  status: ('A' for Active; 'I' for Inactive)
REMARK    1  A    between atoms: N_1  and  C_2
REMARK    2  A    between atoms: C_2  and  C_3
REMARK    3  A    between atoms: C_3  and  N_4
REMARK    4  A    between atoms: N_4  and  C_5
REMARK    5  A    between atoms: C_5  and  C_6
REMARK    6  A    between atoms: C_5  and  C_20
REMARK    7  A    between atoms: C_6  and  C_7
REMARK    8  A    between atoms: C_10  and  C_11
REMARK    9  A    between atoms: C_11  and  C_12
REMARK                            x       y       z     vdW  Elec       q    Type
REMARK                         _______ _______ _______ _____ _____    ______ ____
ROOT
ATOM      1  C   UNL     1      46.203   8.009  12.231  0.00  0.00    +0.000 C 
ENDROOT
BRANCH   1   2
ATOM      2  C   UNL     1      46.152   6.550  12.731  0.00  0.00    +0.000 A 
ATOM      3  C   UNL     1      47.035   6.015  13.665  0.00  0.00    +0.000 A 
ATOM      4  S   UNL     1      46.772   4.374  14.028  0.00  0.00    +0.000 S 
ATOM      5  C   UNL     1      45.461   4.294  12.955  0.00  0.00    +0.000 A 
ATOM      6  N   UNL     1      44.796   3.124  12.767  0.00  0.00    +0.000 NA
ATOM      7  C   UNL     1      43.820   3.198  11.928  0.00  0.00    +0.000 A 
ATOM      8  N   UNL     1      43.429   4.342  11.282  0.00  0.00    +0.000 N 
ATOM      9  C   UNL     1      44.024   5.570  11.502  0.00  0.00    +0.000 A 
ATOM     10  O   UNL     1      43.550   6.600  11.035  0.00  0.00    +0.000 OA
ATOM     11  C   UNL     1      45.191   5.523  12.367  0.00  0.00    +0.000 A 
ATOM     12  H   UNL     1      42.626   4.341  10.675  0.00  0.00    +0.000 HD
ENDBRANCH   1   2
BRANCH   1  13
ATOM     13  N   UNL     1      44.899   8.621  12.569  0.00  0.00    +0.000 NA
ATOM     14  H   UNL     1      44.160   7.986  12.266  0.00  0.00    +0.000 HD
BRANCH  13  15
ATOM     15  C   UNL     1      44.595   9.962  12.078  0.00  0.00    +0.000 C 
BRANCH  15  16
ATOM     16  C   UNL     1      43.946  10.035  10.683  0.00  0.00    +0.000 C 
BRANCH  16  17
ATOM     17  N   UNL     1      42.693   9.278  10.662  0.00  0.00    +0.000 NA
ATOM     18  H   UNL     1      41.936   9.847  11.039  0.00  0.00    +0.000 HD
ATOM     19  H   UNL     1      42.774   8.463  11.270  0.00  0.00    +0.000 HD
ENDBRANCH  16  17
ENDBRANCH  15  16
ENDBRANCH  13  15
ENDBRANCH   1  13
BRANCH   1  20
ATOM     20  C   UNL     1      47.468   8.815  12.655  0.00  0.00    +0.000 C 
BRANCH  20  21
ATOM     21  C   UNL     1      48.831   8.692  12.001  0.00  0.00    +0.000 A 
ATOM     22  C   UNL     1      49.476   7.496  11.687  0.00  0.00    +0.000 A 
ATOM     23  C   UNL     1      50.737   7.499  11.061  0.00  0.00    +0.000 A 
ATOM     24  C   UNL     1      51.385   8.702  10.738  0.00  0.00    +0.000 A 
ATOM     25  C   UNL     1      50.730   9.901  11.037  0.00  0.00    +0.000 A 
ATOM     26  C   UNL     1      49.485   9.894  11.671  0.00  0.00    +0.000 A 
BRANCH  24  27
ATOM     27  C   UNL     1      52.794   8.738  10.192  0.00  0.00    +0.000 C 
BRANCH  27  28
ATOM     28  C   UNL     1      53.268   7.565   9.364  0.00  0.00    +0.000 A 
ATOM     29  C   UNL     1      52.797   7.388   8.064  0.00  0.00    +0.000 A 
ATOM     30  C   UNL     1      53.085   6.202   7.394  0.00  0.00    +0.000 A 
ATOM     31  C   UNL     1      53.851   5.229   8.023  0.00  0.00    +0.000 A 
ATOM     32  C   UNL     1      54.314   5.497   9.301  0.00  0.00    +0.000 A 
ATOM     33  N   UNL     1      54.037   6.631   9.983  0.00  0.00    +0.000 NA
ENDBRANCH  27  28
ENDBRANCH  24  27
ENDBRANCH  20  21
ENDBRANCH   1  20
TORSDOF 9
ENDMDL
