MODEL 1
REMARK VINA RESULT:    -9.276      0.000      0.000
REMARK INTER + INTRA:         -13.499
REMARK INTER:                 -12.530
REMARK INTRA:                  -0.969
REMARK UNBOUND:                -0.969
REMARK  Name = 
REMARK  6 active torsions:
REMARK  status: ('A' for Active; 'I' for Inactive)
REMARK    1  A    between atoms: C_2  and  C_4
REMARK    2  A    between atoms: N_8  and  C_9
REMARK    3  A    between atoms: C_9  and  C_10
REMARK    4  A    between atoms: C_10  and  C_13
REMARK    5  A    between atoms: C_18  and  O_19
REMARK    6  A    between atoms: O_19  and  C_20
REMARK                            x       y       z     vdW  Elec       q    Type
REMARK                         _______ _______ _______ _____ _____    ______ ____
ROOT
ATOM      1  C   UNL     1      43.617   4.666  12.601  0.00  0.00    +0.000 C 
ATOM      2  F   UNL     1      42.708   5.541  13.123  0.00  0.00    +0.000 F 
ATOM      3  F   UNL     1      43.388   3.481  13.244  0.00  0.00    +0.000 F 
ENDROOT
BRANCH   1   4
ATOM      4  C   UNL     1      45.043   5.146  12.801  0.00  0.00    +0.000 A 
ATOM      5  C   UNL     1      45.627   6.038  11.891  0.00  0.00    +0.000 A 
ATOM      6  C   UNL     1      46.938   6.462  12.079  0.00  0.00    +0.000 A 
ATOM      7  F   UNL     1      47.487   7.309  11.200  0.00  0.00    +0.000 F 
ATOM      8  C   UNL     1      47.684   6.023  13.165  0.00  0.00    +0.000 A 
ATOM      9  C   UNL     1      47.112   5.147  14.084  0.00  0.00    +0.000 A 
ATOM     10  C   UNL     1      45.803   4.694  13.897  0.00  0.00    +0.000 A 
BRANCH   9  11
ATOM     11  O   UNL     1      47.921   4.771  15.128  0.00  0.00    +0.000 OA
BRANCH  11  12
ATOM     12  C   UNL     1      47.347   3.986  16.198  0.00  0.00    +0.000 C 
ATOM     13  C   UNL     1      47.484   4.506  17.636  0.00  0.00    +0.000 C 
ATOM     14  O   UNL     1      48.124   3.285  18.072  0.00  0.00    +0.000 OA
ATOM     15  C   UNL     1      48.213   2.824  16.704  0.00  0.00    +0.000 C 
ENDBRANCH  11  12
ENDBRANCH   9  11
ENDBRANCH   1   4
BRANCH   1  16
ATOM     16  C   UNL     1      43.317   4.474  11.094  0.00  0.00    +0.000 C 
BRANCH  16  21
ATOM     17  C   UNL     1      46.509   2.676   7.490  0.00  0.00    +0.000 A 
ATOM     18  C   UNL     1      46.052   3.963   7.752  0.00  0.00    +0.000 A 
ATOM     19  C   UNL     1      45.130   4.161   8.778  0.00  0.00    +0.000 A 
ATOM     20  C   UNL     1      44.685   3.078   9.534  0.00  0.00    +0.000 A 
ATOM     21  N   UNL     1      43.783   3.200  10.556  0.00  0.00    +0.000 N 
ATOM     22  N   UNL     1      45.109   1.828   9.277  0.00  0.00    +0.000 NA
ATOM     23  C   UNL     1      45.995   1.645   8.259  0.00  0.00    +0.000 A 
ATOM     24  H   UNL     1      43.609   2.338  11.064  0.00  0.00    +0.000 HD
BRANCH  17  26
ATOM     25  N   UNL     1      47.520   3.220   5.355  0.00  0.00    +0.000 N 
ATOM     26  C   UNL     1      47.495   2.381   6.435  0.00  0.00    +0.000 C 
ATOM     27  O   UNL     1      48.282   1.450   6.534  0.00  0.00    +0.000 OA
ATOM     28  H   UNL     1      48.267   3.074   4.689  0.00  0.00    +0.000 HD
ATOM     29  H   UNL     1      47.069   4.125   5.357  0.00  0.00    +0.000 HD
ENDBRANCH  17  26
ENDBRANCH  16  21
ENDBRANCH   1  16
TORSDOF 6
ENDMDL
MODEL 2
REMARK VINA RESULT:    -8.542      1.444      1.665
REMARK INTER + INTRA:         -12.507
REMARK INTER:                 -11.680
REMARK INTRA:                  -0.826
REMARK UNBOUND:                -0.969
REMARK  Name = 
REMARK  6 active torsions:
REMARK  status: ('A' for Active; 'I' for Inactive)
REMARK    1  A    between atoms: C_2  and  C_4
REMARK    2  A    between atoms: N_8  and  C_9
REMARK    3  A    between atoms: C_9  and  C_10
REMARK    4  A    between atoms: C_10  and  C_13
REMARK    5  A    between atoms: C_18  and  O_19
REMARK    6  A    between atoms: O_19  and  C_20
REMARK                            x       y       z     vdW  Elec       q    Type
REMARK                         _______ _______ _______ _____ _____    ______ ____
ROOT
ATOM      1  C   UNL     1      43.736   4.767  12.581  0.00  0.00    +0.000 C 
ATOM      2  F   UNL     1      42.645   5.264  13.233  0.00  0.00    +0.000 F 
ATOM      3  F   UNL     1      43.954   3.533  13.130  0.00  0.00    +0.000 F 
ENDROOT
BRANCH   1   4
ATOM      4  C   UNL     1      44.946   5.670  12.735  0.00  0.00    +0.000 A 
ATOM      5  C   UNL     1      44.961   6.945  12.152  0.00  0.00    +0.000 A 
ATOM      6  C   UNL     1      46.080   7.759  12.292  0.00  0.00    +0.000 A 
ATOM      7  F   UNL     1      46.084   8.972  11.725  0.00  0.00    +0.000 F 
ATOM      8  C   UNL     1      47.190   7.335  13.010  0.00  0.00    +0.000 A 
ATOM      9  C   UNL     1      47.184   6.076  13.605  0.00  0.00    +0.000 A 
ATOM     10  C   UNL     1      46.076   5.237  13.455  0.00  0.00    +0.000 A 
BRANCH   9  11
ATOM     11  O   UNL     1      48.321   5.743  14.299  0.00  0.00    +0.000 OA
BRANCH  11  12
ATOM     12  C   UNL     1      48.720   6.579  15.410  0.00  0.00    +0.000 C 
ATOM     13  C   UNL     1      50.128   7.190  15.390  0.00  0.00    +0.000 C 
ATOM     14  O   UNL     1      50.460   6.600  16.668  0.00  0.00    +0.000 OA
ATOM     15  C   UNL     1      49.235   5.831  16.648  0.00  0.00    +0.000 C 
ENDBRANCH  11  12
ENDBRANCH   9  11
ENDBRANCH   1   4
BRANCH   1  16
ATOM     16  C   UNL     1      43.384   4.584  11.084  0.00  0.00    +0.000 C 
BRANCH  16  21
ATOM     17  C   UNL     1      46.523   2.650   7.504  0.00  0.00    +0.000 A 
ATOM     18  C   UNL     1      46.137   3.958   7.776  0.00  0.00    +0.000 A 
ATOM     19  C   UNL     1      45.212   4.196   8.791  0.00  0.00    +0.000 A 
ATOM     20  C   UNL     1      44.693   3.131   9.526  0.00  0.00    +0.000 A 
ATOM     21  N   UNL     1      43.784   3.293  10.536  0.00  0.00    +0.000 N 
ATOM     22  N   UNL     1      45.048   1.862   9.258  0.00  0.00    +0.000 NA
ATOM     23  C   UNL     1      45.937   1.641   8.251  0.00  0.00    +0.000 A 
ATOM     24  H   UNL     1      43.552   2.436  11.030  0.00  0.00    +0.000 HD
BRANCH  17  26
ATOM     25  N   UNL     1      47.476   3.057   5.313  0.00  0.00    +0.000 N 
ATOM     26  C   UNL     1      47.506   2.311   6.460  0.00  0.00    +0.000 C 
ATOM     27  O   UNL     1      48.337   1.429   6.622  0.00  0.00    +0.000 OA
ATOM     28  H   UNL     1      48.220   2.888   4.648  0.00  0.00    +0.000 HD
ATOM     29  H   UNL     1      46.984   3.937   5.247  0.00  0.00    +0.000 HD
ENDBRANCH  17  26
ENDBRANCH  16  21
ENDBRANCH   1  16
TORSDOF 6
ENDMDL
MODEL 3
REMARK VINA RESULT:    -8.315      2.286      3.060
REMARK INTER + INTRA:         -12.201
REMARK INTER:                 -11.150
REMARK INTRA:                  -1.051
REMARK UNBOUND:                -0.969
REMARK  Name = 
REMARK  6 active torsions:
REMARK  status: ('A' for Active; 'I' for Inactive)
REMARK    1  A    between atoms: C_2  and  C_4
REMARK    2  A    between atoms: N_8  and  C_9
REMARK    3  A    between atoms: C_9  and  C_10
REMARK    4  A    between atoms: C_10  and  C_13
REMARK    5  A    between atoms: C_18  and  O_19
REMARK    6  A    between atoms: O_19  and  C_20
REMARK                            x       y       z     vdW  Elec       q    Type
REMARK                         _______ _______ _______ _____ _____    ______ ____
ROOT
ATOM      1  C   UNL     1      44.169   4.077  12.559  0.00  0.00    +0.000 C 
ATOM      2  F   UNL     1      43.278   4.219  13.583  0.00  0.00    +0.000 F 
ATOM      3  F   UNL     1      44.937   2.997  12.897  0.00  0.00    +0.000 F 
ENDROOT
BRANCH   1   4
ATOM      4  C   UNL     1      45.011   5.325  12.367  0.00  0.00    +0.000 A 
ATOM      5  C   UNL     1      44.445   6.488  11.825  0.00  0.00    +0.000 A 
ATOM      6  C   UNL     1      45.229   7.622  11.644  0.00  0.00    +0.000 A 
ATOM      7  F   UNL     1      44.678   8.725  11.121  0.00  0.00    +0.000 F 
ATOM      8  C   UNL     1      46.571   7.630  11.999  0.00  0.00    +0.000 A 
ATOM      9  C   UNL     1      47.144   6.485  12.549  0.00  0.00    +0.000 A 
ATOM     10  C   UNL     1      46.375   5.331  12.717  0.00  0.00    +0.000 A 
BRANCH   9  11
ATOM     11  O   UNL     1      48.474   6.586  12.875  0.00  0.00    +0.000 OA
BRANCH  11  12
ATOM     12  C   UNL     1      49.175   7.806  12.541  0.00  0.00    +0.000 C 
ATOM     13  C   UNL     1      50.235   7.755  11.432  0.00  0.00    +0.000 C 
ATOM     14  O   UNL     1      51.258   8.275  12.312  0.00  0.00    +0.000 OA
ATOM     15  C   UNL     1      50.367   8.152  13.445  0.00  0.00    +0.000 C 
ENDBRANCH  11  12
ENDBRANCH   9  11
ENDBRANCH   1   4
BRANCH   1  16
ATOM     16  C   UNL     1      43.393   3.743  11.262  0.00  0.00    +0.000 C 
BRANCH  16  21
ATOM     17  C   UNL     1      46.515   2.486   7.379  0.00  0.00    +0.000 A 
ATOM     18  C   UNL     1      46.024   3.716   7.800  0.00  0.00    +0.000 A 
ATOM     19  C   UNL     1      45.132   3.762   8.870  0.00  0.00    +0.000 A 
ATOM     20  C   UNL     1      44.751   2.585   9.512  0.00  0.00    +0.000 A 
ATOM     21  N   UNL     1      43.883   2.556  10.568  0.00  0.00    +0.000 N 
ATOM     22  N   UNL     1      45.209   1.389   9.101  0.00  0.00    +0.000 NA
ATOM     23  C   UNL     1      46.064   1.356   8.041  0.00  0.00    +0.000 A 
ATOM     24  H   UNL     1      43.757   1.637  10.981  0.00  0.00    +0.000 HD
BRANCH  17  26
ATOM     25  N   UNL     1      47.415   3.292   5.278  0.00  0.00    +0.000 N 
ATOM     26  C   UNL     1      47.473   2.348   6.267  0.00  0.00    +0.000 C 
ATOM     27  O   UNL     1      48.308   1.455   6.244  0.00  0.00    +0.000 OA
ATOM     28  H   UNL     1      48.143   3.252   4.576  0.00  0.00    +0.000 HD
ATOM     29  H   UNL     1      46.922   4.167   5.387  0.00  0.00    +0.000 HD
ENDBRANCH  17  26
ENDBRANCH  16  21
ENDBRANCH   1  16
TORSDOF 6
ENDMDL
MODEL 4
REMARK VINA RESULT:    -7.688      2.762      7.565
REMARK INTER + INTRA:         -11.353
REMARK INTER:                 -10.514
REMARK INTRA:                  -0.839
REMARK UNBOUND:                -0.969
REMARK  Name = 
REMARK  6 active torsions:
REMARK  status: ('A' for Active; 'I' for Inactive)
REMARK    1  A    between atoms: C_2  and  C_4
REMARK    2  A    between atoms: N_8  and  C_9
REMARK    3  A    between atoms: C_9  and  C_10
REMARK    4  A    between atoms: C_10  and  C_13
REMARK    5  A    between atoms: C_18  and  O_19
REMARK    6  A    between atoms: O_19  and  C_20
REMARK                            x       y       z     vdW  Elec       q    Type
REMARK                         _______ _______ _______ _____ _____    ______ ____
ROOT
ATOM      1  C   UNL     1      45.392   6.604  11.575  0.00  0.00    +0.000 C 
ATOM      2  F   UNL     1      44.795   6.785  12.789  0.00  0.00    +0.000 F 
ATOM      3  F   UNL     1      45.028   7.691  10.828  0.00  0.00    +0.000 F 
ENDROOT
BRANCH   1   4
ATOM      4  C   UNL     1      44.960   5.304  10.921  0.00  0.00    +0.000 A 
ATOM      5  C   UNL     1      44.181   4.378  11.629  0.00  0.00    +0.000 A 
ATOM      6  C   UNL     1      43.801   3.185  11.022  0.00  0.00    +0.000 A 
ATOM      7  F   UNL     1      43.061   2.306  11.710  0.00  0.00    +0.000 F 
ATOM      8  C   UNL     1      44.173   2.894   9.717  0.00  0.00    +0.000 A 
ATOM      9  C   UNL     1      44.937   3.811   8.999  0.00  0.00    +0.000 A 
ATOM     10  C   UNL     1      45.346   5.004   9.601  0.00  0.00    +0.000 A 
BRANCH   9  11
ATOM     11  O   UNL     1      45.253   3.442   7.715  0.00  0.00    +0.000 OA
BRANCH  11  12
ATOM     12  C   UNL     1      46.596   2.980   7.441  0.00  0.00    +0.000 C 
ATOM     13  C   UNL     1      46.968   2.648   5.989  0.00  0.00    +0.000 C 
ATOM     14  O   UNL     1      47.367   1.304   6.343  0.00  0.00    +0.000 OA
ATOM     15  C   UNL     1      46.842   1.483   7.679  0.00  0.00    +0.000 C 
ENDBRANCH  11  12
ENDBRANCH   9  11
ENDBRANCH   1   4
BRANCH   1  16
ATOM     16  C   UNL     1      46.929   6.630  11.765  0.00  0.00    +0.000 C 
BRANCH  16  21
ATOM     17  C   UNL     1      47.809   3.913  16.037  0.00  0.00    +0.000 A 
ATOM     18  C   UNL     1      47.230   3.554  14.824  0.00  0.00    +0.000 A 
ATOM     19  C   UNL     1      47.063   4.525  13.838  0.00  0.00    +0.000 A 
ATOM     20  C   UNL     1      47.482   5.834  14.070  0.00  0.00    +0.000 A 
ATOM     21  N   UNL     1      47.350   6.835  13.147  0.00  0.00    +0.000 N 
ATOM     22  N   UNL     1      48.027   6.193  15.246  0.00  0.00    +0.000 NA
ATOM     23  C   UNL     1      48.167   5.239  16.208  0.00  0.00    +0.000 A 
ATOM     24  H   UNL     1      47.767   7.718  13.426  0.00  0.00    +0.000 HD
BRANCH  17  26
ATOM     25  N   UNL     1      46.956   2.610  17.895  0.00  0.00    +0.000 N 
ATOM     26  C   UNL     1      48.037   2.947  17.126  0.00  0.00    +0.000 C 
ATOM     27  O   UNL     1      49.133   2.438  17.315  0.00  0.00    +0.000 OA
ATOM     28  H   UNL     1      47.097   1.869  18.570  0.00  0.00    +0.000 HD
ATOM     29  H   UNL     1      46.005   2.811  17.617  0.00  0.00    +0.000 HD
ENDBRANCH  17  26
ENDBRANCH  16  21
ENDBRANCH   1  16
TORSDOF 6
ENDMDL
MODEL 5
REMARK VINA RESULT:    -7.438      2.427      3.412
REMARK INTER + INTRA:         -11.016
REMARK INTER:                 -10.964
REMARK INTRA:                  -0.052
REMARK UNBOUND:                -0.969
REMARK  Name = 
REMARK  6 active torsions:
REMARK  status: ('A' for Active; 'I' for Inactive)
REMARK    1  A    between atoms: C_2  and  C_4
REMARK    2  A    between atoms: N_8  and  C_9
REMARK    3  A    between atoms: C_9  and  C_10
REMARK    4  A    between atoms: C_10  and  C_13
REMARK    5  A    between atoms: C_18  and  O_19
REMARK    6  A    between atoms: O_19  and  C_20
REMARK                            x       y       z     vdW  Elec       q    Type
REMARK                         _______ _______ _______ _____ _____    ______ ____
ROOT
ATOM      1  C   UNL     1      43.521   4.267  12.145  0.00  0.00    +0.000 C 
ATOM      2  F   UNL     1      42.473   4.489  12.991  0.00  0.00    +0.000 F 
ATOM      3  F   UNL     1      43.578   2.910  11.989  0.00  0.00    +0.000 F 
ENDROOT
BRANCH   1   4
ATOM      4  C   UNL     1      44.821   4.824  12.698  0.00  0.00    +0.000 A 
ATOM      5  C   UNL     1      45.799   3.962  13.215  0.00  0.00    +0.000 A 
ATOM      6  C   UNL     1      46.981   4.485  13.730  0.00  0.00    +0.000 A 
ATOM      7  F   UNL     1      47.905   3.653  14.226  0.00  0.00    +0.000 F 
ATOM      8  C   UNL     1      47.218   5.853  13.734  0.00  0.00    +0.000 A 
ATOM      9  C   UNL     1      46.260   6.719  13.212  0.00  0.00    +0.000 A 
ATOM     10  C   UNL     1      45.058   6.211  12.712  0.00  0.00    +0.000 A 
BRANCH   9  11
ATOM     11  O   UNL     1      46.582   8.053  13.253  0.00  0.00    +0.000 OA
BRANCH  11  12
ATOM     12  C   UNL     1      47.507   8.570  12.270  0.00  0.00    +0.000 C 
ATOM     13  C   UNL     1      48.391   7.572  11.508  0.00  0.00    +0.000 C 
ATOM     14  O   UNL     1      49.601   8.246  11.924  0.00  0.00    +0.000 OA
ATOM     15  C   UNL     1      48.842   9.086  12.824  0.00  0.00    +0.000 C 
ENDBRANCH  11  12
ENDBRANCH   9  11
ENDBRANCH   1   4
BRANCH   1  16
ATOM     16  C   UNL     1      43.200   4.907  10.772  0.00  0.00    +0.000 C 
BRANCH  16  21
ATOM     17  C   UNL     1      46.556   2.615   7.627  0.00  0.00    +0.000 A 
ATOM     18  C   UNL     1      45.564   2.091   8.450  0.00  0.00    +0.000 A 
ATOM     19  C   UNL     1      44.823   2.956   9.253  0.00  0.00    +0.000 A 
ATOM     20  C   UNL     1      45.071   4.326   9.219  0.00  0.00    +0.000 A 
ATOM     21  N   UNL     1      44.381   5.231   9.979  0.00  0.00    +0.000 N 
ATOM     22  N   UNL     1      46.040   4.839   8.439  0.00  0.00    +0.000 NA
ATOM     23  C   UNL     1      46.770   3.982   7.673  0.00  0.00    +0.000 A 
ATOM     24  H   UNL     1      44.620   6.201   9.794  0.00  0.00    +0.000 HD
BRANCH  17  26
ATOM     25  N   UNL     1      48.528   2.329   6.247  0.00  0.00    +0.000 N 
ATOM     26  C   UNL     1      47.375   1.775   6.735  0.00  0.00    +0.000 C 
ATOM     27  O   UNL     1      47.063   0.623   6.471  0.00  0.00    +0.000 OA
ATOM     28  H   UNL     1      49.136   1.712   5.724  0.00  0.00    +0.000 HD
ATOM     29  H   UNL     1      48.938   3.166   6.636  0.00  0.00    +0.000 HD
ENDBRANCH  17  26
ENDBRANCH  16  21
ENDBRANCH   1  16
TORSDOF 6
ENDMDL
MODEL 6
REMARK VINA RESULT:    -6.850      3.290      4.924
REMARK INTER + INTRA:         -10.221
REMARK INTER:                  -9.179
REMARK INTRA:                  -1.042
REMARK UNBOUND:                -0.969
REMARK  Name = 
REMARK  6 active torsions:
REMARK  status: ('A' for Active; 'I' for Inactive)
REMARK    1  A    between atoms: C_2  and  C_4
REMARK    2  A    between atoms: N_8  and  C_9
REMARK    3  A    between atoms: C_9  and  C_10
REMARK    4  A    between atoms: C_10  and  C_13
REMARK    5  A    between atoms: C_18  and  O_19
REMARK    6  A    between atoms: O_19  and  C_20
REMARK                            x       y       z     vdW  Elec       q    Type
REMARK                         _______ _______ _______ _____ _____    ______ ____
ROOT
ATOM      1  C   UNL     1      48.110   8.485  12.686  0.00  0.00    +0.000 C 
ATOM      2  F   UNL     1      48.519   7.479  11.858  0.00  0.00    +0.000 F 
ATOM      3  F   UNL     1      48.807   9.590  12.284  0.00  0.00    +0.000 F 
ENDROOT
BRANCH   1   4
ATOM      4  C   UNL     1      48.374   8.156  14.145  0.00  0.00    +0.000 A 
ATOM      5  C   UNL     1      48.222   9.139  15.134  0.00  0.00    +0.000 A 
ATOM      6  C   UNL     1      48.477   8.829  16.465  0.00  0.00    +0.000 A 
ATOM      7  F   UNL     1      48.334   9.777  17.399  0.00  0.00    +0.000 F 
ATOM      8  C   UNL     1      48.875   7.552  16.840  0.00  0.00    +0.000 A 
ATOM      9  C   UNL     1      49.018   6.563  15.870  0.00  0.00    +0.000 A 
ATOM     10  C   UNL     1      48.786   6.865  14.525  0.00  0.00    +0.000 A 
BRANCH   9  11
ATOM     11  O   UNL     1      49.409   5.331  16.332  0.00  0.00    +0.000 OA
BRANCH  11  12
ATOM     12  C   UNL     1      48.513   4.606  17.206  0.00  0.00    +0.000 C 
ATOM     13  C   UNL     1      48.688   3.086  17.326  0.00  0.00    +0.000 C 
ATOM     14  O   UNL     1      47.318   2.844  16.931  0.00  0.00    +0.000 OA
ATOM     15  C   UNL     1      47.150   4.242  16.599  0.00  0.00    +0.000 C 
ENDBRANCH  11  12
ENDBRANCH   9  11
ENDBRANCH   1   4
BRANCH   1  16
ATOM     16  C   UNL     1      46.601   8.742  12.454  0.00  0.00    +0.000 C 
BRANCH  16  21
ATOM     17  C   UNL     1      44.407   4.195  11.496  0.00  0.00    +0.000 A 
ATOM     18  C   UNL     1      45.091   5.077  10.666  0.00  0.00    +0.000 A 
ATOM     19  C   UNL     1      45.541   6.289  11.187  0.00  0.00    +0.000 A 
ATOM     20  C   UNL     1      45.313   6.601  12.526  0.00  0.00    +0.000 A 
ATOM     21  N   UNL     1      45.728   7.770  13.103  0.00  0.00    +0.000 N 
ATOM     22  N   UNL     1      44.638   5.761  13.331  0.00  0.00    +0.000 NA
ATOM     23  C   UNL     1      44.186   4.589  12.806  0.00  0.00    +0.000 A 
ATOM     24  H   UNL     1      45.557   7.826  14.102  0.00  0.00    +0.000 HD
BRANCH  17  26
ATOM     25  N   UNL     1      44.574   2.308   9.985  0.00  0.00    +0.000 N 
ATOM     26  C   UNL     1      43.910   2.888  11.032  0.00  0.00    +0.000 C 
ATOM     27  O   UNL     1      42.973   2.325  11.579  0.00  0.00    +0.000 OA
ATOM     28  H   UNL     1      44.295   1.365   9.742  0.00  0.00    +0.000 HD
ATOM     29  H   UNL     1      45.486   2.615   9.679  0.00  0.00    +0.000 HD
ENDBRANCH  17  26
ENDBRANCH  16  21
ENDBRANCH   1  16
TORSDOF 6
ENDMDL
MODEL 7
REMARK VINA RESULT:    -6.775      3.920      8.077
REMARK INTER + INTRA:         -10.120
REMARK INTER:                  -9.379
REMARK INTRA:                  -0.740
REMARK UNBOUND:                -0.969
REMARK  Name = 
REMARK  6 active torsions:
REMARK  status: ('A' for Active; 'I' for Inactive)
REMARK    1  A    between atoms: C_2  and  C_4
REMARK    2  A    between atoms: N_8  and  C_9
REMARK    3  A    between atoms: C_9  and  C_10
REMARK    4  A    between atoms: C_10  and  C_13
REMARK    5  A    between atoms: C_18  and  O_19
REMARK    6  A    between atoms: O_19  and  C_20
REMARK                            x       y       z     vdW  Elec       q    Type
REMARK                         _______ _______ _______ _____ _____    ______ ____
ROOT
ATOM      1  C   UNL     1      45.794   6.254  11.234  0.00  0.00    +0.000 C 
ATOM      2  F   UNL     1      44.872   7.260  11.179  0.00  0.00    +0.000 F 
ATOM      3  F   UNL     1      46.915   6.758  10.634  0.00  0.00    +0.000 F 
ENDROOT
BRANCH   1   4
ATOM      4  C   UNL     1      45.301   4.999  10.537  0.00  0.00    +0.000 A 
ATOM      5  C   UNL     1      44.473   4.090  11.211  0.00  0.00    +0.000 A 
ATOM      6  C   UNL     1      44.037   2.938  10.564  0.00  0.00    +0.000 A 
ATOM      7  F   UNL     1      43.251   2.075  11.220  0.00  0.00    +0.000 F 
ATOM      8  C   UNL     1      44.400   2.672   9.252  0.00  0.00    +0.000 A 
ATOM      9  C   UNL     1      45.213   3.572   8.566  0.00  0.00    +0.000 A 
ATOM     10  C   UNL     1      45.677   4.723   9.209  0.00  0.00    +0.000 A 
BRANCH   9  11
ATOM     11  O   UNL     1      45.516   3.230   7.272  0.00  0.00    +0.000 OA
BRANCH  11  12
ATOM     12  C   UNL     1      46.908   3.096   6.902  0.00  0.00    +0.000 C 
ATOM     13  C   UNL     1      47.243   2.733   5.449  0.00  0.00    +0.000 C 
ATOM     14  O   UNL     1      48.000   1.571   5.858  0.00  0.00    +0.000 OA
ATOM     15  C   UNL     1      47.550   1.738   7.222  0.00  0.00    +0.000 C 
ENDBRANCH  11  12
ENDBRANCH   9  11
ENDBRANCH   1   4
BRANCH   1  16
ATOM     16  C   UNL     1      46.122   5.956  12.717  0.00  0.00    +0.000 C 
BRANCH  16  21
ATOM     17  C   UNL     1      50.055   8.938  14.147  0.00  0.00    +0.000 A 
ATOM     18  C   UNL     1      50.025   7.707  13.500  0.00  0.00    +0.000 A 
ATOM     19  C   UNL     1      48.796   7.086  13.282  0.00  0.00    +0.000 A 
ATOM     20  C   UNL     1      47.618   7.701  13.701  0.00  0.00    +0.000 A 
ATOM     21  N   UNL     1      46.380   7.149  13.517  0.00  0.00    +0.000 N 
ATOM     22  N   UNL     1      47.641   8.883  14.342  0.00  0.00    +0.000 NA
ATOM     23  C   UNL     1      48.848   9.471  14.567  0.00  0.00    +0.000 A 
ATOM     24  H   UNL     1      45.610   7.745  13.807  0.00  0.00    +0.000 HD
BRANCH  17  26
ATOM     25  N   UNL     1      51.356  10.440  15.535  0.00  0.00    +0.000 N 
ATOM     26  C   UNL     1      51.308   9.671  14.404  0.00  0.00    +0.000 C 
ATOM     27  O   UNL     1      52.275   9.570  13.663  0.00  0.00    +0.000 OA
ATOM     28  H   UNL     1      52.252  10.854  15.760  0.00  0.00    +0.000 HD
ATOM     29  H   UNL     1      50.685  10.350  16.285  0.00  0.00    +0.000 HD
ENDBRANCH  17  26
ENDBRANCH  16  21
ENDBRANCH   1  16
TORSDOF 6
ENDMDL
