MODEL 1
REMARK VINA RESULT:    -8.594      0.000      0.000
REMARK INTER + INTRA:         -12.001
REMARK INTER:                 -11.106
REMARK INTRA:                  -0.894
REMARK UNBOUND:                -0.894
REMARK  Name = 
REMARK  5 active torsions:
REMARK  status: ('A' for Active; 'I' for Inactive)
REMARK    1  A    between atoms: C_2  and  C_3
REMARK    2  A    between atoms: C_6  and  C_7
REMARK    3  A    between atoms: C_11  and  C_12
REMARK    4  A    between atoms: C_12  and  N_13
REMARK    5  A    between atoms: C_17  and  C_18
REMARK                            x       y       z     vdW  Elec       q    Type
REMARK                         _______ _______ _______ _____ _____    ______ ____
ROOT
ATOM      1  C   UNL     1      43.887   5.014  11.310  0.00  0.00    +0.000 C 
ATOM      2  C   UNL     1      43.083   6.276  11.056  0.00  0.00    +0.000 C 
ATOM      3  C   UNL     1      42.550   5.265  12.013  0.00  0.00    +0.000 C 
ENDROOT
BRANCH   1   4
ATOM      4  N   UNL     1      43.870   3.828  10.433  0.00  0.00    +0.000 N 
ATOM      5  C   UNL     1      44.854   3.509   9.497  0.00  0.00    +0.000 A 
ATOM      6  C   UNL     1      45.454   4.447   8.668  0.00  0.00    +0.000 A 
ATOM      7  C   UNL     1      46.320   4.014   7.658  0.00  0.00    +0.000 A 
ATOM      8  C   UNL     1      46.571   2.653   7.502  0.00  0.00    +0.000 A 
ATOM      9  C   UNL     1      45.971   1.790   8.400  0.00  0.00    +0.000 A 
ATOM     10  N   UNL     1      45.115   2.188   9.376  0.00  0.00    +0.000 NA
ATOM     11  H   UNL     1      43.648   2.956  10.914  0.00  0.00    +0.000 HD
BRANCH   8  12
ATOM     12  C   UNL     1      47.464   2.186   6.421  0.00  0.00    +0.000 C 
ATOM     13  N   UNL     1      47.747   3.053   5.402  0.00  0.00    +0.000 N 
ATOM     14  O   UNL     1      47.967   1.070   6.453  0.00  0.00    +0.000 OA
ATOM     15  H   UNL     1      47.526   4.039   5.416  0.00  0.00    +0.000 HD
ATOM     16  H   UNL     1      48.438   2.743   4.728  0.00  0.00    +0.000 HD
ENDBRANCH   8  12
ENDBRANCH   1   4
BRANCH   1  21
ATOM     17  C   UNL     1      47.119   6.329  12.653  0.00  0.00    +0.000 A 
ATOM     18  C   UNL     1      47.503   5.381  13.599  0.00  0.00    +0.000 A 
ATOM     19  C   UNL     1      46.671   4.297  13.842  0.00  0.00    +0.000 A 
ATOM     20  C   UNL     1      45.486   4.181  13.124  0.00  0.00    +0.000 A 
ATOM     21  C   UNL     1      45.152   5.145  12.175  0.00  0.00    +0.000 A 
ATOM     22  N   UNL     1      45.957   6.224  11.969  0.00  0.00    +0.000 NA
BRANCH  17  26
ATOM     23  C   UNL     1      49.573   9.626  11.628  0.00  0.00    +0.000 A 
ATOM     24  C   UNL     1      48.220   9.860  11.820  0.00  0.00    +0.000 A 
ATOM     25  C   UNL     1      47.405   8.785  12.172  0.00  0.00    +0.000 A 
ATOM     26  C   UNL     1      47.944   7.498  12.321  0.00  0.00    +0.000 A 
ATOM     27  C   UNL     1      49.325   7.387  12.137  0.00  0.00    +0.000 A 
ATOM     28  N   UNL     1      50.146   8.411  11.784  0.00  0.00    +0.000 NA
BRANCH  23  30
ATOM     29  N   UNL     1      51.178  11.516  10.852  0.00  0.00    +0.000 NA
ATOM     30  C   UNL     1      50.448  10.688  11.223  0.00  0.00    +0.000 C 
ENDBRANCH  23  30
ENDBRANCH  17  26
ENDBRANCH   1  21
TORSDOF 5
ENDMDL
MODEL 2
REMARK VINA RESULT:    -8.268      2.555      4.245
REMARK INTER + INTRA:         -11.579
REMARK INTER:                 -11.557
REMARK INTRA:                  -0.022
REMARK UNBOUND:                -0.894
REMARK  Name = 
REMARK  5 active torsions:
REMARK  status: ('A' for Active; 'I' for Inactive)
REMARK    1  A    between atoms: C_2  and  C_3
REMARK    2  A    between atoms: C_6  and  C_7
REMARK    3  A    between atoms: C_11  and  C_12
REMARK    4  A    between atoms: C_12  and  N_13
REMARK    5  A    between atoms: C_17  and  C_18
REMARK                            x       y       z     vdW  Elec       q    Type
REMARK                         _______ _______ _______ _____ _____    ______ ____
ROOT
ATOM      1  C   UNL     1      43.924   4.935  11.402  0.00  0.00    +0.000 C 
ATOM      2  C   UNL     1      42.764   5.915  11.424  0.00  0.00    +0.000 C 
ATOM      3  C   UNL     1      42.860   4.890  12.503  0.00  0.00    +0.000 C 
ENDROOT
BRANCH   1   4
ATOM      4  N   UNL     1      43.961   3.711  10.578  0.00  0.00    +0.000 N 
ATOM      5  C   UNL     1      44.882   3.457   9.562  0.00  0.00    +0.000 A 
ATOM      6  C   UNL     1      45.288   4.413   8.641  0.00  0.00    +0.000 A 
ATOM      7  C   UNL     1      46.098   4.029   7.567  0.00  0.00    +0.000 A 
ATOM      8  C   UNL     1      46.490   2.698   7.441  0.00  0.00    +0.000 A 
ATOM      9  C   UNL     1      46.082   1.820   8.428  0.00  0.00    +0.000 A 
ATOM     10  N   UNL     1      45.282   2.170   9.468  0.00  0.00    +0.000 NA
ATOM     11  H   UNL     1      43.889   2.846  11.114  0.00  0.00    +0.000 HD
BRANCH   8  12
ATOM     12  C   UNL     1      47.324   2.280   6.295  0.00  0.00    +0.000 C 
ATOM     13  N   UNL     1      47.201   2.974   5.123  0.00  0.00    +0.000 N 
ATOM     14  O   UNL     1      48.129   1.363   6.400  0.00  0.00    +0.000 OA
ATOM     15  H   UNL     1      46.707   3.850   5.030  0.00  0.00    +0.000 HD
ATOM     16  H   UNL     1      47.854   2.731   4.387  0.00  0.00    +0.000 HD
ENDBRANCH   8  12
ENDBRANCH   1   4
BRANCH   1  21
ATOM     17  C   UNL     1      46.978   5.629  13.444  0.00  0.00    +0.000 A 
ATOM     18  C   UNL     1      47.726   6.495  12.649  0.00  0.00    +0.000 A 
ATOM     19  C   UNL     1      47.248   6.838  11.392  0.00  0.00    +0.000 A 
ATOM     20  C   UNL     1      46.029   6.320  10.969  0.00  0.00    +0.000 A 
ATOM     21  C   UNL     1      45.307   5.471  11.806  0.00  0.00    +0.000 A 
ATOM     22  N   UNL     1      45.801   5.111  13.023  0.00  0.00    +0.000 NA
BRANCH  17  26
ATOM     23  C   UNL     1      48.194   4.586  17.366  0.00  0.00    +0.000 A 
ATOM     24  C   UNL     1      47.377   3.697  16.681  0.00  0.00    +0.000 A 
ATOM     25  C   UNL     1      46.982   4.024  15.385  0.00  0.00    +0.000 A 
ATOM     26  C   UNL     1      47.399   5.226  14.792  0.00  0.00    +0.000 A 
ATOM     27  C   UNL     1      48.247   6.026  15.561  0.00  0.00    +0.000 A 
ATOM     28  N   UNL     1      48.643   5.744  16.830  0.00  0.00    +0.000 NA
BRANCH  23  30
ATOM     29  N   UNL     1      48.919   4.159  19.823  0.00  0.00    +0.000 NA
ATOM     30  C   UNL     1      48.593   4.319  18.717  0.00  0.00    +0.000 C 
ENDBRANCH  23  30
ENDBRANCH  17  26
ENDBRANCH   1  21
TORSDOF 5
ENDMDL
MODEL 3
REMARK VINA RESULT:    -6.608      5.116      8.751
REMARK INTER + INTRA:          -9.434
REMARK INTER:                  -8.503
REMARK INTRA:                  -0.931
REMARK UNBOUND:                -0.894
REMARK  Name = 
REMARK  5 active torsions:
REMARK  status: ('A' for Active; 'I' for Inactive)
REMARK    1  A    between atoms: C_2  and  C_3
REMARK    2  A    between atoms: C_6  and  C_7
REMARK    3  A    between atoms: C_11  and  C_12
REMARK    4  A    between atoms: C_12  and  N_13
REMARK    5  A    between atoms: C_17  and  C_18
REMARK                            x       y       z     vdW  Elec       q    Type
REMARK                         _______ _______ _______ _____ _____    ______ ____
ROOT
ATOM      1  C   UNL     1      49.279   7.140  17.278  0.00  0.00    +0.000 C 
ATOM      2  C   UNL     1      47.961   7.229  18.026  0.00  0.00    +0.000 C 
ATOM      3  C   UNL     1      48.850   8.425  17.991  0.00  0.00    +0.000 C 
ENDROOT
BRANCH   1   4
ATOM      4  N   UNL     1      50.511   6.549  17.836  0.00  0.00    +0.000 N 
ATOM      5  C   UNL     1      50.900   5.218  17.687  0.00  0.00    +0.000 A 
ATOM      6  C   UNL     1      50.020   4.148  17.788  0.00  0.00    +0.000 A 
ATOM      7  C   UNL     1      50.524   2.843  17.775  0.00  0.00    +0.000 A 
ATOM      8  C   UNL     1      51.896   2.636  17.656  0.00  0.00    +0.000 A 
ATOM      9  C   UNL     1      52.697   3.754  17.512  0.00  0.00    +0.000 A 
ATOM     10  N   UNL     1      52.229   5.028  17.539  0.00  0.00    +0.000 NA
ATOM     11  H   UNL     1      51.350   7.105  17.674  0.00  0.00    +0.000 HD
BRANCH   8  12
ATOM     12  C   UNL     1      52.439   1.262  17.668  0.00  0.00    +0.000 C 
ATOM     13  N   UNL     1      51.625   0.253  18.105  0.00  0.00    +0.000 N 
ATOM     14  O   UNL     1      53.570   1.024  17.264  0.00  0.00    +0.000 OA
ATOM     15  H   UNL     1      50.632   0.352  18.263  0.00  0.00    +0.000 HD
ATOM     16  H   UNL     1      51.986  -0.689  18.009  0.00  0.00    +0.000 HD
ENDBRANCH   8  12
ENDBRANCH   1   4
BRANCH   1  21
ATOM     17  C   UNL     1      48.181   6.389  13.784  0.00  0.00    +0.000 A 
ATOM     18  C   UNL     1      49.127   7.031  12.987  0.00  0.00    +0.000 A 
ATOM     19  C   UNL     1      50.135   7.765  13.598  0.00  0.00    +0.000 A 
ATOM     20  C   UNL     1      50.179   7.827  14.986  0.00  0.00    +0.000 A 
ATOM     21  C   UNL     1      49.221   7.154  15.742  0.00  0.00    +0.000 A 
ATOM     22  N   UNL     1      48.215   6.467  15.135  0.00  0.00    +0.000 NA
BRANCH  17  26
ATOM     23  C   UNL     1      45.013   4.008  12.287  0.00  0.00    +0.000 A 
ATOM     24  C   UNL     1      45.269   5.218  11.658  0.00  0.00    +0.000 A 
ATOM     25  C   UNL     1      46.318   6.003  12.134  0.00  0.00    +0.000 A 
ATOM     26  C   UNL     1      47.091   5.579  13.225  0.00  0.00    +0.000 A 
ATOM     27  C   UNL     1      46.765   4.329  13.757  0.00  0.00    +0.000 A 
ATOM     28  N   UNL     1      45.745   3.543  13.325  0.00  0.00    +0.000 NA
BRANCH  23  30
ATOM     29  N   UNL     1      43.066   2.488  11.486  0.00  0.00    +0.000 NA
ATOM     30  C   UNL     1      43.919   3.183  11.865  0.00  0.00    +0.000 C 
ENDBRANCH  23  30
ENDBRANCH  17  26
ENDBRANCH   1  21
TORSDOF 5
ENDMDL
MODEL 4
REMARK VINA RESULT:    -6.372      4.252      6.614
REMARK INTER + INTRA:          -9.129
REMARK INTER:                  -8.882
REMARK INTRA:                  -0.246
REMARK UNBOUND:                -0.894
REMARK  Name = 
REMARK  5 active torsions:
REMARK  status: ('A' for Active; 'I' for Inactive)
REMARK    1  A    between atoms: C_2  and  C_3
REMARK    2  A    between atoms: C_6  and  C_7
REMARK    3  A    between atoms: C_11  and  C_12
REMARK    4  A    between atoms: C_12  and  N_13
REMARK    5  A    between atoms: C_17  and  C_18
REMARK                            x       y       z     vdW  Elec       q    Type
REMARK                         _______ _______ _______ _____ _____    ______ ____
ROOT
ATOM      1  C   UNL     1      47.724   8.524  13.663  0.00  0.00    +0.000 C 
ATOM      2  C   UNL     1      48.796   8.533  12.588  0.00  0.00    +0.000 C 
ATOM      3  C   UNL     1      48.159   9.823  12.980  0.00  0.00    +0.000 C 
ENDROOT
BRANCH   1   4
ATOM      4  N   UNL     1      46.308   8.184  13.420  0.00  0.00    +0.000 N 
ATOM      5  C   UNL     1      45.863   7.128  12.625  0.00  0.00    +0.000 A 
ATOM      6  C   UNL     1      46.431   6.799  11.401  0.00  0.00    +0.000 A 
ATOM      7  C   UNL     1      45.824   5.824  10.604  0.00  0.00    +0.000 A 
ATOM      8  C   UNL     1      44.665   5.193  11.050  0.00  0.00    +0.000 A 
ATOM      9  C   UNL     1      44.191   5.545  12.301  0.00  0.00    +0.000 A 
ATOM     10  N   UNL     1      44.756   6.501  13.082  0.00  0.00    +0.000 NA
ATOM     11  H   UNL     1      45.734   8.161  14.263  0.00  0.00    +0.000 HD
BRANCH   8  12
ATOM     12  C   UNL     1      44.002   4.180  10.203  0.00  0.00    +0.000 C 
ATOM     13  N   UNL     1      44.125   4.298   8.846  0.00  0.00    +0.000 N 
ATOM     14  O   UNL     1      43.393   3.240  10.698  0.00  0.00    +0.000 OA
ATOM     15  H   UNL     1      44.767   4.928   8.385  0.00  0.00    +0.000 HD
ATOM     16  H   UNL     1      43.747   3.537   8.293  0.00  0.00    +0.000 HD
ENDBRANCH   8  12
ENDBRANCH   1   4
BRANCH   1  21
ATOM     17  C   UNL     1      49.123   6.904  16.728  0.00  0.00    +0.000 A 
ATOM     18  C   UNL     1      48.920   7.849  17.733  0.00  0.00    +0.000 A 
ATOM     19  C   UNL     1      48.346   9.069  17.403  0.00  0.00    +0.000 A 
ATOM     20  C   UNL     1      47.976   9.307  16.084  0.00  0.00    +0.000 A 
ATOM     21  C   UNL     1      48.184   8.325  15.117  0.00  0.00    +0.000 A 
ATOM     22  N   UNL     1      48.781   7.146  15.442  0.00  0.00    +0.000 NA
BRANCH  17  26
ATOM     23  C   UNL     1      50.740   3.045  17.390  0.00  0.00    +0.000 A 
ATOM     24  C   UNL     1      51.568   4.140  17.594  0.00  0.00    +0.000 A 
ATOM     25  C   UNL     1      51.043   5.415  17.393  0.00  0.00    +0.000 A 
ATOM     26  C   UNL     1      49.709   5.583  16.989  0.00  0.00    +0.000 A 
ATOM     27  C   UNL     1      48.960   4.413  16.848  0.00  0.00    +0.000 A 
ATOM     28  N   UNL     1      49.442   3.155  17.026  0.00  0.00    +0.000 NA
BRANCH  23  30
ATOM     29  N   UNL     1      51.682   0.646  17.708  0.00  0.00    +0.000 NA
ATOM     30  C   UNL     1      51.243   1.711  17.541  0.00  0.00    +0.000 C 
ENDBRANCH  23  30
ENDBRANCH  17  26
ENDBRANCH   1  21
TORSDOF 5
ENDMDL
MODEL 5
REMARK VINA RESULT:    -6.308      2.835      7.083
REMARK INTER + INTRA:          -9.047
REMARK INTER:                  -9.346
REMARK INTRA:                   0.299
REMARK UNBOUND:                -0.894
REMARK  Name = 
REMARK  5 active torsions:
REMARK  status: ('A' for Active; 'I' for Inactive)
REMARK    1  A    between atoms: C_2  and  C_3
REMARK    2  A    between atoms: C_6  and  C_7
REMARK    3  A    between atoms: C_11  and  C_12
REMARK    4  A    between atoms: C_12  and  N_13
REMARK    5  A    between atoms: C_17  and  C_18
REMARK                            x       y       z     vdW  Elec       q    Type
REMARK                         _______ _______ _______ _____ _____    ______ ____
ROOT
ATOM      1  C   UNL     1      45.487   7.623  12.602  0.00  0.00    +0.000 C 
ATOM      2  C   UNL     1      44.682   8.903  12.739  0.00  0.00    +0.000 C 
ATOM      3  C   UNL     1      45.648   8.779  11.611  0.00  0.00    +0.000 C 
ENDROOT
BRANCH   1   4
ATOM      4  N   UNL     1      46.718   7.332  13.362  0.00  0.00    +0.000 N 
ATOM      5  C   UNL     1      48.002   7.730  12.989  0.00  0.00    +0.000 A 
ATOM      6  C   UNL     1      48.473   7.672  11.684  0.00  0.00    +0.000 A 
ATOM      7  C   UNL     1      49.820   7.947  11.428  0.00  0.00    +0.000 A 
ATOM      8  C   UNL     1      50.667   8.281  12.483  0.00  0.00    +0.000 A 
ATOM      9  C   UNL     1      50.108   8.363  13.745  0.00  0.00    +0.000 A 
ATOM     10  N   UNL     1      48.807   8.083  14.015  0.00  0.00    +0.000 NA
ATOM     11  H   UNL     1      46.646   7.522  14.361  0.00  0.00    +0.000 HD
BRANCH   8  12
ATOM     12  C   UNL     1      52.097   8.548  12.225  0.00  0.00    +0.000 C 
ATOM     13  N   UNL     1      53.019   7.703  12.780  0.00  0.00    +0.000 N 
ATOM     14  O   UNL     1      52.449   9.474  11.505  0.00  0.00    +0.000 OA
ATOM     15  H   UNL     1      52.792   6.820  13.214  0.00  0.00    +0.000 HD
ATOM     16  H   UNL     1      53.984   7.849  12.506  0.00  0.00    +0.000 HD
ENDBRANCH   8  12
ENDBRANCH   1   4
BRANCH   1  21
ATOM     17  C   UNL     1      44.666   4.605  10.553  0.00  0.00    +0.000 A 
ATOM     18  C   UNL     1      43.420   4.201  11.031  0.00  0.00    +0.000 A 
ATOM     19  C   UNL     1      42.841   4.904  12.079  0.00  0.00    +0.000 A 
ATOM     20  C   UNL     1      43.512   5.999  12.610  0.00  0.00    +0.000 A 
ATOM     21  C   UNL     1      44.748   6.376  12.088  0.00  0.00    +0.000 A 
ATOM     22  N   UNL     1      45.326   5.660  11.085  0.00  0.00    +0.000 NA
BRANCH  17  26
ATOM     23  C   UNL     1      46.711   2.752   7.339  0.00  0.00    +0.000 A 
ATOM     24  C   UNL     1      46.058   1.935   8.251  0.00  0.00    +0.000 A 
ATOM     25  C   UNL     1      45.370   2.535   9.304  0.00  0.00    +0.000 A 
ATOM     26  C   UNL     1      45.345   3.931   9.439  0.00  0.00    +0.000 A 
ATOM     27  C   UNL     1      46.007   4.654   8.445  0.00  0.00    +0.000 A 
ATOM     28  N   UNL     1      46.695   4.103   7.411  0.00  0.00    +0.000 NA
BRANCH  23  30
ATOM     29  N   UNL     1      48.131   1.755   5.407  0.00  0.00    +0.000 NA
ATOM     30  C   UNL     1      47.469   2.186   6.262  0.00  0.00    +0.000 C 
ENDBRANCH  23  30
ENDBRANCH  17  26
ENDBRANCH   1  21
TORSDOF 5
ENDMDL
MODEL 6
REMARK VINA RESULT:    -6.253      4.163      8.326
REMARK INTER + INTRA:          -8.975
REMARK INTER:                  -9.612
REMARK INTRA:                   0.637
REMARK UNBOUND:                -0.894
REMARK  Name = 
REMARK  5 active torsions:
REMARK  status: ('A' for Active; 'I' for Inactive)
REMARK    1  A    between atoms: C_2  and  C_3
REMARK    2  A    between atoms: C_6  and  C_7
REMARK    3  A    between atoms: C_11  and  C_12
REMARK    4  A    between atoms: C_12  and  N_13
REMARK    5  A    between atoms: C_17  and  C_18
REMARK                            x       y       z     vdW  Elec       q    Type
REMARK                         _______ _______ _______ _____ _____    ______ ____
ROOT
ATOM      1  C   UNL     1      46.319   5.212  13.702  0.00  0.00    +0.000 C 
ATOM      2  C   UNL     1      46.494   6.701  13.941  0.00  0.00    +0.000 C 
ATOM      3  C   UNL     1      47.551   5.965  13.191  0.00  0.00    +0.000 C 
ENDROOT
BRANCH   1   4
ATOM      4  N   UNL     1      46.645   4.169  14.693  0.00  0.00    +0.000 N 
ATOM      5  C   UNL     1      47.247   4.399  15.930  0.00  0.00    +0.000 A 
ATOM      6  C   UNL     1      48.302   5.283  16.115  0.00  0.00    +0.000 A 
ATOM      7  C   UNL     1      48.942   5.337  17.357  0.00  0.00    +0.000 A 
ATOM      8  C   UNL     1      48.508   4.510  18.391  0.00  0.00    +0.000 A 
ATOM      9  C   UNL     1      47.420   3.694  18.139  0.00  0.00    +0.000 A 
ATOM     10  N   UNL     1      46.798   3.615  16.935  0.00  0.00    +0.000 NA
ATOM     11  H   UNL     1      45.886   3.510  14.870  0.00  0.00    +0.000 HD
BRANCH   8  12
ATOM     12  C   UNL     1      49.195   4.542  19.700  0.00  0.00    +0.000 C 
ATOM     13  N   UNL     1      48.537   4.029  20.784  0.00  0.00    +0.000 N 
ATOM     14  O   UNL     1      50.333   4.979  19.807  0.00  0.00    +0.000 OA
ATOM     15  H   UNL     1      47.688   3.483  20.728  0.00  0.00    +0.000 HD
ATOM     16  H   UNL     1      49.067   3.972  21.645  0.00  0.00    +0.000 HD
ENDBRANCH   8  12
ENDBRANCH   1   4
BRANCH   1  21
ATOM     17  C   UNL     1      44.879   3.970  10.483  0.00  0.00    +0.000 A 
ATOM     18  C   UNL     1      43.503   4.112  10.651  0.00  0.00    +0.000 A 
ATOM     19  C   UNL     1      43.018   4.588  11.862  0.00  0.00    +0.000 A 
ATOM     20  C   UNL     1      43.920   4.925  12.865  0.00  0.00    +0.000 A 
ATOM     21  C   UNL     1      45.289   4.783  12.644  0.00  0.00    +0.000 A 
ATOM     22  N   UNL     1      45.754   4.281  11.467  0.00  0.00    +0.000 NA
BRANCH  17  26
ATOM     23  C   UNL     1      46.686   2.684   6.874  0.00  0.00    +0.000 A 
ATOM     24  C   UNL     1      46.250   1.713   7.764  0.00  0.00    +0.000 A 
ATOM     25  C   UNL     1      45.642   2.125   8.948  0.00  0.00    +0.000 A 
ATOM     26  C   UNL     1      45.480   3.489   9.232  0.00  0.00    +0.000 A 
ATOM     27  C   UNL     1      45.924   4.376   8.248  0.00  0.00    +0.000 A 
ATOM     28  N   UNL     1      46.530   4.010   7.089  0.00  0.00    +0.000 NA
BRANCH  23  30
ATOM     29  N   UNL     1      47.878   2.062   4.652  0.00  0.00    +0.000 NA
ATOM     30  C   UNL     1      47.357   2.316   5.661  0.00  0.00    +0.000 C 
ENDBRANCH  23  30
ENDBRANCH  17  26
ENDBRANCH   1  21
TORSDOF 5
ENDMDL
MODEL 7
REMARK VINA RESULT:    -6.194      4.247      8.725
REMARK INTER + INTRA:          -8.899
REMARK INTER:                  -8.086
REMARK INTRA:                  -0.814
REMARK UNBOUND:                -0.894
REMARK  Name = 
REMARK  5 active torsions:
REMARK  status: ('A' for Active; 'I' for Inactive)
REMARK    1  A    between atoms: C_2  and  C_3
REMARK    2  A    between atoms: C_6  and  C_7
REMARK    3  A    between atoms: C_11  and  C_12
REMARK    4  A    between atoms: C_12  and  N_13
REMARK    5  A    between atoms: C_17  and  C_18
REMARK                            x       y       z     vdW  Elec       q    Type
REMARK                         _______ _______ _______ _____ _____    ______ ____
ROOT
ATOM      1  C   UNL     1      50.142   8.432  13.263  0.00  0.00    +0.000 C 
ATOM      2  C   UNL     1      51.118   9.571  13.024  0.00  0.00    +0.000 C 
ATOM      3  C   UNL     1      51.185   8.369  12.144  0.00  0.00    +0.000 C 
ENDROOT
BRANCH   1   4
ATOM      4  N   UNL     1      50.324   7.386  14.288  0.00  0.00    +0.000 N 
ATOM      5  C   UNL     1      49.581   7.279  15.464  0.00  0.00    +0.000 A 
ATOM      6  C   UNL     1      49.235   8.368  16.252  0.00  0.00    +0.000 A 
ATOM      7  C   UNL     1      48.622   8.151  17.490  0.00  0.00    +0.000 A 
ATOM      8  C   UNL     1      48.362   6.849  17.911  0.00  0.00    +0.000 A 
ATOM      9  C   UNL     1      48.694   5.823  17.045  0.00  0.00    +0.000 A 
ATOM     10  N   UNL     1      49.305   6.013  15.847  0.00  0.00    +0.000 NA
ATOM     11  H   UNL     1      50.388   6.440  13.911  0.00  0.00    +0.000 HD
BRANCH   8  12
ATOM     12  C   UNL     1      47.738   6.610  19.229  0.00  0.00    +0.000 C 
ATOM     13  N   UNL     1      47.073   5.429  19.420  0.00  0.00    +0.000 N 
ATOM     14  O   UNL     1      47.843   7.425  20.136  0.00  0.00    +0.000 OA
ATOM     15  H   UNL     1      47.117   4.643  18.788  0.00  0.00    +0.000 HD
ATOM     16  H   UNL     1      46.742   5.248  20.361  0.00  0.00    +0.000 HD
ENDBRANCH   8  12
ENDBRANCH   1   4
BRANCH   1  21
ATOM     17  C   UNL     1      46.632   7.702  12.203  0.00  0.00    +0.000 A 
ATOM     18  C   UNL     1      46.093   8.958  11.932  0.00  0.00    +0.000 A 
ATOM     19  C   UNL     1      46.876  10.085  12.135  0.00  0.00    +0.000 A 
ATOM     20  C   UNL     1      48.181   9.928  12.589  0.00  0.00    +0.000 A 
ATOM     21  C   UNL     1      48.683   8.650  12.830  0.00  0.00    +0.000 A 
ATOM     22  N   UNL     1      47.896   7.552  12.663  0.00  0.00    +0.000 NA
BRANCH  17  26
ATOM     23  C   UNL     1      44.398   4.134  11.724  0.00  0.00    +0.000 A 
ATOM     24  C   UNL     1      44.879   4.757  10.582  0.00  0.00    +0.000 A 
ATOM     25  C   UNL     1      45.627   5.924  10.729  0.00  0.00    +0.000 A 
ATOM     26  C   UNL     1      45.881   6.455  12.002  0.00  0.00    +0.000 A 
ATOM     27  C   UNL     1      45.378   5.725  13.082  0.00  0.00    +0.000 A 
ATOM     28  N   UNL     1      44.637   4.592  12.975  0.00  0.00    +0.000 NA
BRANCH  23  30
ATOM     29  N   UNL     1      42.976   1.969  11.545  0.00  0.00    +0.000 NA
ATOM     30  C   UNL     1      43.587   2.956  11.628  0.00  0.00    +0.000 C 
ENDBRANCH  23  30
ENDBRANCH  17  26
ENDBRANCH   1  21
TORSDOF 5
ENDMDL
MODEL 8
REMARK VINA RESULT:    -6.019      5.116      7.201
REMARK INTER + INTRA:          -8.673
REMARK INTER:                  -9.135
REMARK INTRA:                   0.462
REMARK UNBOUND:                -0.894
REMARK  Name = 
REMARK  5 active torsions:
REMARK  status: ('A' for Active; 'I' for Inactive)
REMARK    1  A    between atoms: C_2  and  C_3
REMARK    2  A    between atoms: C_6  and  C_7
REMARK    3  A    between atoms: C_11  and  C_12
REMARK    4  A    between atoms: C_12  and  N_13
REMARK    5  A    between atoms: C_17  and  C_18
REMARK                            x       y       z     vdW  Elec       q    Type
REMARK                         _______ _______ _______ _____ _____    ______ ____
ROOT
ATOM      1  C   UNL     1      48.202   6.572  14.738  0.00  0.00    +0.000 C 
ATOM      2  C   UNL     1      49.047   7.044  13.567  0.00  0.00    +0.000 C 
ATOM      3  C   UNL     1      48.087   7.998  14.192  0.00  0.00    +0.000 C 
ENDROOT
BRANCH   1   4
ATOM      4  N   UNL     1      46.956   5.794  14.602  0.00  0.00    +0.000 N 
ATOM      5  C   UNL     1      46.460   5.279  13.404  0.00  0.00    +0.000 A 
ATOM      6  C   UNL     1      46.469   5.982  12.206  0.00  0.00    +0.000 A 
ATOM      7  C   UNL     1      45.815   5.447  11.092  0.00  0.00    +0.000 A 
ATOM      8  C   UNL     1      45.170   4.216  11.198  0.00  0.00    +0.000 A 
ATOM      9  C   UNL     1      45.250   3.559  12.412  0.00  0.00    +0.000 A 
ATOM     10  N   UNL     1      45.865   4.070  13.509  0.00  0.00    +0.000 NA
ATOM     11  H   UNL     1      46.852   5.049  15.291  0.00  0.00    +0.000 HD
BRANCH   8  12
ATOM     12  C   UNL     1      44.454   3.656  10.033  0.00  0.00    +0.000 C 
ATOM     13  N   UNL     1      43.898   4.529   9.139  0.00  0.00    +0.000 N 
ATOM     14  O   UNL     1      44.392   2.447   9.850  0.00  0.00    +0.000 OA
ATOM     15  H   UNL     1      44.080   5.523   9.127  0.00  0.00    +0.000 HD
ATOM     16  H   UNL     1      43.501   4.121   8.300  0.00  0.00    +0.000 HD
ENDBRANCH   8  12
ENDBRANCH   1   4
BRANCH   1  21
ATOM     17  C   UNL     1      50.271   5.107  17.486  0.00  0.00    +0.000 A 
ATOM     18  C   UNL     1      50.098   5.992  18.548  0.00  0.00    +0.000 A 
ATOM     19  C   UNL     1      49.317   7.124  18.361  0.00  0.00    +0.000 A 
ATOM     20  C   UNL     1      48.718   7.334  17.124  0.00  0.00    +0.000 A 
ATOM     21  C   UNL     1      48.906   6.412  16.096  0.00  0.00    +0.000 A 
ATOM     22  N   UNL     1      49.703   5.323  16.277  0.00  0.00    +0.000 NA
BRANCH  17  26
ATOM     23  C   UNL     1      52.623   1.610  17.913  0.00  0.00    +0.000 A 
ATOM     24  C   UNL     1      51.344   1.473  17.394  0.00  0.00    +0.000 A 
ATOM     25  C   UNL     1      50.567   2.618  17.236  0.00  0.00    +0.000 A 
ATOM     26  C   UNL     1      51.067   3.878  17.599  0.00  0.00    +0.000 A 
ATOM     27  C   UNL     1      52.379   3.900  18.077  0.00  0.00    +0.000 A 
ATOM     28  N   UNL     1      53.161   2.803  18.254  0.00  0.00    +0.000 NA
BRANCH  23  30
ATOM     29  N   UNL     1      54.163  -0.440  18.328  0.00  0.00    +0.000 NA
ATOM     30  C   UNL     1      53.449   0.459  18.136  0.00  0.00    +0.000 C 
ENDBRANCH  23  30
ENDBRANCH  17  26
ENDBRANCH   1  21
TORSDOF 5
ENDMDL
