MODEL 1
REMARK VINA RESULT:    -8.496      0.000      0.000
REMARK INTER + INTRA:         -12.457
REMARK INTER:                 -11.476
REMARK INTRA:                  -0.981
REMARK UNBOUND:                -0.981
REMARK  Name = 
REMARK  7 active torsions:
REMARK  status: ('A' for Active; 'I' for Inactive)
REMARK    1  A    between atoms: C_1  and  O_2
REMARK    2  A    between atoms: O_2  and  C_3
REMARK    3  A    between atoms: N_7  and  C_8
REMARK    4  A    between atoms: C_8  and  C_9
REMARK    5  A    between atoms: C_12  and  O_13
REMARK    6  A    between atoms: O_13  and  C_14
REMARK    7  A    between atoms: C_23  and  C_24
REMARK                            x       y       z     vdW  Elec       q    Type
REMARK                         _______ _______ _______ _____ _____    ______ ____
ROOT
ATOM      1  C   UNL     1      48.170   6.283  14.374  0.00  0.00    +0.000 A 
ATOM      2  C   UNL     1      47.903   7.183  13.368  0.00  0.00    +0.000 A 
ATOM      3  N   UNL     1      46.839   7.117  12.545  0.00  0.00    +0.000 NA
ATOM      4  C   UNL     1      46.001   6.083  12.694  0.00  0.00    +0.000 A 
ATOM      5  N   UNL     1      44.865   6.145  11.895  0.00  0.00    +0.000 N 
ATOM      6  N   UNL     1      46.191   5.104  13.587  0.00  0.00    +0.000 NA
ATOM      7  C   UNL     1      47.273   5.229  14.413  0.00  0.00    +0.000 A 
ATOM      8  H   UNL     1      45.035   6.890  11.227  0.00  0.00    +0.000 HD
ENDROOT
BRANCH   7   9
ATOM      9  C   UNL     1      47.397   4.122  15.432  0.00  0.00    +0.000 C 
ATOM     10  N   UNL     1      47.126   4.495  16.726  0.00  0.00    +0.000 N 
ATOM     11  O   UNL     1      47.715   2.966  15.182  0.00  0.00    +0.000 OA
ATOM     12  H   UNL     1      46.892   5.459  16.930  0.00  0.00    +0.000 HD
ATOM     13  H   UNL     1      47.216   3.816  17.465  0.00  0.00    +0.000 HD
ENDBRANCH   7   9
BRANCH   5  14
ATOM     14  C   UNL     1      44.175   4.950  11.398  0.00  0.00    +0.000 C 
ATOM     15  C   UNL     1      42.656   4.984  11.513  0.00  0.00    +0.000 C 
ATOM     16  C   UNL     1      43.437   3.995  12.313  0.00  0.00    +0.000 C 
BRANCH  14  17
ATOM     17  C   UNL     1      44.788   4.360  10.134  0.00  0.00    +0.000 A 
ATOM     18  C   UNL     1      44.539   3.028   9.762  0.00  0.00    +0.000 A 
ATOM     19  C   UNL     1      45.000   2.505   8.549  0.00  0.00    +0.000 A 
ATOM     20  C   UNL     1      45.699   3.317   7.662  0.00  0.00    +0.000 A 
ATOM     21  C   UNL     1      46.048   4.609   8.057  0.00  0.00    +0.000 A 
ATOM     22  C   UNL     1      45.602   5.120   9.280  0.00  0.00    +0.000 A 
BRANCH  20  23
ATOM     23  O   UNL     1      46.138   2.950   6.428  0.00  0.00    +0.000 OA
BRANCH  23  24
ATOM     24  C   UNL     1      47.296   2.128   6.329  0.00  0.00    +0.000 C 
ATOM     25  F   UNL     1      48.222   2.344   7.287  0.00  0.00    +0.000 F 
ATOM     26  F   UNL     1      46.912   0.832   6.415  0.00  0.00    +0.000 F 
ATOM     27  F   UNL     1      47.869   2.316   5.121  0.00  0.00    +0.000 F 
ENDBRANCH  23  24
ENDBRANCH  20  23
ENDBRANCH  14  17
ENDBRANCH   5  14
BRANCH   1  29
ATOM     28  C   UNL     1      50.096   7.476  15.027  0.00  0.00    +0.000 C 
ATOM     29  O   UNL     1      49.215   6.375  15.234  0.00  0.00    +0.000 OA
ENDBRANCH   1  29
TORSDOF 6
ENDMDL
MODEL 2
REMARK VINA RESULT:    -7.570      1.329      2.277
REMARK INTER + INTRA:         -11.206
REMARK INTER:                 -10.856
REMARK INTRA:                  -0.350
REMARK UNBOUND:                -0.981
REMARK  Name = 
REMARK  7 active torsions:
REMARK  status: ('A' for Active; 'I' for Inactive)
REMARK    1  A    between atoms: C_1  and  O_2
REMARK    2  A    between atoms: O_2  and  C_3
REMARK    3  A    between atoms: N_7  and  C_8
REMARK    4  A    between atoms: C_8  and  C_9
REMARK    5  A    between atoms: C_12  and  O_13
REMARK    6  A    between atoms: O_13  and  C_14
REMARK    7  A    between atoms: C_23  and  C_24
REMARK                            x       y       z     vdW  Elec       q    Type
REMARK                         _______ _______ _______ _____ _____    ______ ____
ROOT
ATOM      1  C   UNL     1      48.301   5.995  14.760  0.00  0.00    +0.000 A 
ATOM      2  C   UNL     1      47.531   5.055  15.406  0.00  0.00    +0.000 A 
ATOM      3  N   UNL     1      46.542   4.346  14.826  0.00  0.00    +0.000 NA
ATOM      4  C   UNL     1      46.268   4.600  13.541  0.00  0.00    +0.000 A 
ATOM      5  N   UNL     1      45.324   3.749  12.977  0.00  0.00    +0.000 N 
ATOM      6  N   UNL     1      46.896   5.539  12.824  0.00  0.00    +0.000 NA
ATOM      7  C   UNL     1      47.906   6.216  13.452  0.00  0.00    +0.000 A 
ATOM      8  H   UNL     1      44.912   3.238  13.752  0.00  0.00    +0.000 HD
ENDROOT
BRANCH   7   9
ATOM      9  C   UNL     1      48.609   7.221  12.572  0.00  0.00    +0.000 C 
ATOM     10  N   UNL     1      49.966   7.041  12.461  0.00  0.00    +0.000 N 
ATOM     11  O   UNL     1      48.063   8.146  11.984  0.00  0.00    +0.000 OA
ATOM     12  H   UNL     1      50.415   6.292  12.972  0.00  0.00    +0.000 HD
ATOM     13  H   UNL     1      50.507   7.691  11.913  0.00  0.00    +0.000 HD
ENDBRANCH   7   9
BRANCH   5  14
ATOM     14  C   UNL     1      44.420   4.164  11.900  0.00  0.00    +0.000 C 
ATOM     15  C   UNL     1      43.694   5.484  12.134  0.00  0.00    +0.000 C 
ATOM     16  C   UNL     1      42.915   4.213  12.072  0.00  0.00    +0.000 C 
BRANCH  14  17
ATOM     17  C   UNL     1      44.945   3.870  10.501  0.00  0.00    +0.000 A 
ATOM     18  C   UNL     1      44.888   2.573   9.964  0.00  0.00    +0.000 A 
ATOM     19  C   UNL     1      45.261   2.307   8.641  0.00  0.00    +0.000 A 
ATOM     20  C   UNL     1      45.671   3.346   7.812  0.00  0.00    +0.000 A 
ATOM     21  C   UNL     1      45.834   4.620   8.354  0.00  0.00    +0.000 A 
ATOM     22  C   UNL     1      45.480   4.877   9.682  0.00  0.00    +0.000 A 
BRANCH  20  23
ATOM     23  O   UNL     1      45.990   3.230   6.495  0.00  0.00    +0.000 OA
BRANCH  23  24
ATOM     24  C   UNL     1      47.175   2.527   6.137  0.00  0.00    +0.000 C 
ATOM     25  F   UNL     1      48.240   2.783   6.925  0.00  0.00    +0.000 F 
ATOM     26  F   UNL     1      46.925   1.199   6.204  0.00  0.00    +0.000 F 
ATOM     27  F   UNL     1      47.497   2.829   4.860  0.00  0.00    +0.000 F 
ENDBRANCH  23  24
ENDBRANCH  20  23
ENDBRANCH  14  17
ENDBRANCH   5  14
BRANCH   1  29
ATOM     28  C   UNL     1      49.713   6.242  16.632  0.00  0.00    +0.000 C 
ATOM     29  O   UNL     1      49.327   6.675  15.330  0.00  0.00    +0.000 OA
ENDBRANCH   1  29
TORSDOF 6
ENDMDL
MODEL 3
REMARK VINA RESULT:    -6.182      3.901      5.592
REMARK INTER + INTRA:          -9.332
REMARK INTER:                  -8.147
REMARK INTRA:                  -1.184
REMARK UNBOUND:                -0.981
REMARK  Name = 
REMARK  7 active torsions:
REMARK  status: ('A' for Active; 'I' for Inactive)
REMARK    1  A    between atoms: C_1  and  O_2
REMARK    2  A    between atoms: O_2  and  C_3
REMARK    3  A    between atoms: N_7  and  C_8
REMARK    4  A    between atoms: C_8  and  C_9
REMARK    5  A    between atoms: C_12  and  O_13
REMARK    6  A    between atoms: O_13  and  C_14
REMARK    7  A    between atoms: C_23  and  C_24
REMARK                            x       y       z     vdW  Elec       q    Type
REMARK                         _______ _______ _______ _____ _____    ______ ____
ROOT
ATOM      1  C   UNL     1      49.579   7.228  17.967  0.00  0.00    +0.000 A 
ATOM      2  C   UNL     1      50.271   6.305  17.219  0.00  0.00    +0.000 A 
ATOM      3  N   UNL     1      50.234   6.226  15.874  0.00  0.00    +0.000 NA
ATOM      4  C   UNL     1      49.440   7.085  15.224  0.00  0.00    +0.000 A 
ATOM      5  N   UNL     1      49.545   7.028  13.839  0.00  0.00    +0.000 N 
ATOM      6  N   UNL     1      48.662   7.982  15.842  0.00  0.00    +0.000 NA
ATOM      7  C   UNL     1      48.752   8.036  17.206  0.00  0.00    +0.000 A 
ATOM      8  H   UNL     1      50.079   6.189  13.635  0.00  0.00    +0.000 HD
ENDROOT
BRANCH   7   9
ATOM      9  C   UNL     1      47.893   9.105  17.834  0.00  0.00    +0.000 C 
ATOM     10  N   UNL     1      47.067   8.665  18.840  0.00  0.00    +0.000 N 
ATOM     11  O   UNL     1      47.887  10.286  17.510  0.00  0.00    +0.000 OA
ATOM     12  H   UNL     1      47.055   7.682  19.084  0.00  0.00    +0.000 HD
ATOM     13  H   UNL     1      46.442   9.317  19.287  0.00  0.00    +0.000 HD
ENDBRANCH   7   9
BRANCH   5  14
ATOM     14  C   UNL     1      48.427   7.339  12.942  0.00  0.00    +0.000 C 
ATOM     15  C   UNL     1      48.826   7.796  11.543  0.00  0.00    +0.000 C 
ATOM     16  C   UNL     1      48.134   8.746  12.463  0.00  0.00    +0.000 C 
BRANCH  14  17
ATOM     17  C   UNL     1      47.239   6.396  13.080  0.00  0.00    +0.000 A 
ATOM     18  C   UNL     1      45.925   6.854  12.887  0.00  0.00    +0.000 A 
ATOM     19  C   UNL     1      44.832   5.980  12.899  0.00  0.00    +0.000 A 
ATOM     20  C   UNL     1      45.035   4.615  13.072  0.00  0.00    +0.000 A 
ATOM     21  C   UNL     1      46.318   4.154  13.369  0.00  0.00    +0.000 A 
ATOM     22  C   UNL     1      47.403   5.034  13.378  0.00  0.00    +0.000 A 
BRANCH  20  23
ATOM     23  O   UNL     1      44.069   3.658  13.033  0.00  0.00    +0.000 OA
BRANCH  23  24
ATOM     24  C   UNL     1      43.557   3.254  11.767  0.00  0.00    +0.000 C 
ATOM     25  F   UNL     1      43.003   2.023  11.751  0.00  0.00    +0.000 F 
ATOM     26  F   UNL     1      42.605   4.137  11.386  0.00  0.00    +0.000 F 
ATOM     27  F   UNL     1      44.554   3.294  10.857  0.00  0.00    +0.000 F 
ENDBRANCH  23  24
ENDBRANCH  20  23
ENDBRANCH  14  17
ENDBRANCH   5  14
BRANCH   1  29
ATOM     28  C   UNL     1      49.390   6.147  20.054  0.00  0.00    +0.000 C 
ATOM     29  O   UNL     1      49.653   7.338  19.317  0.00  0.00    +0.000 OA
ENDBRANCH   1  29
TORSDOF 6
ENDMDL
MODEL 4
REMARK VINA RESULT:    -6.141      3.936      5.450
REMARK INTER + INTRA:          -9.277
REMARK INTER:                  -8.853
REMARK INTRA:                  -0.424
REMARK UNBOUND:                -0.981
REMARK  Name = 
REMARK  7 active torsions:
REMARK  status: ('A' for Active; 'I' for Inactive)
REMARK    1  A    between atoms: C_1  and  O_2
REMARK    2  A    between atoms: O_2  and  C_3
REMARK    3  A    between atoms: N_7  and  C_8
REMARK    4  A    between atoms: C_8  and  C_9
REMARK    5  A    between atoms: C_12  and  O_13
REMARK    6  A    between atoms: O_13  and  C_14
REMARK    7  A    between atoms: C_23  and  C_24
REMARK                            x       y       z     vdW  Elec       q    Type
REMARK                         _______ _______ _______ _____ _____    ______ ____
ROOT
ATOM      1  C   UNL     1      49.061   5.285  17.383  0.00  0.00    +0.000 A 
ATOM      2  C   UNL     1      49.702   6.502  17.402  0.00  0.00    +0.000 A 
ATOM      3  N   UNL     1      49.616   7.429  16.428  0.00  0.00    +0.000 NA
ATOM      4  C   UNL     1      48.881   7.130  15.350  0.00  0.00    +0.000 A 
ATOM      5  N   UNL     1      48.737   8.175  14.445  0.00  0.00    +0.000 N 
ATOM      6  N   UNL     1      48.268   5.952  15.180  0.00  0.00    +0.000 NA
ATOM      7  C   UNL     1      48.368   5.054  16.206  0.00  0.00    +0.000 A 
ATOM      8  H   UNL     1      49.402   8.886  14.734  0.00  0.00    +0.000 HD
ENDROOT
BRANCH   7   9
ATOM      9  C   UNL     1      47.609   3.771  15.974  0.00  0.00    +0.000 C 
ATOM     10  N   UNL     1      46.863   3.340  17.045  0.00  0.00    +0.000 N 
ATOM     11  O   UNL     1      47.623   3.122  14.936  0.00  0.00    +0.000 OA
ATOM     12  H   UNL     1      46.879   3.865  17.910  0.00  0.00    +0.000 HD
ATOM     13  H   UNL     1      46.352   2.474  16.973  0.00  0.00    +0.000 HD
ENDBRANCH   7   9
BRANCH   5  14
ATOM     14  C   UNL     1      48.574   7.964  13.003  0.00  0.00    +0.000 C 
ATOM     15  C   UNL     1      49.804   7.425  12.283  0.00  0.00    +0.000 C 
ATOM     16  C   UNL     1      49.306   8.797  11.970  0.00  0.00    +0.000 C 
BRANCH  14  17
ATOM     17  C   UNL     1      47.209   7.417  12.606  0.00  0.00    +0.000 A 
ATOM     18  C   UNL     1      46.060   8.224  12.664  0.00  0.00    +0.000 A 
ATOM     19  C   UNL     1      44.820   7.773  12.197  0.00  0.00    +0.000 A 
ATOM     20  C   UNL     1      44.709   6.507  11.629  0.00  0.00    +0.000 A 
ATOM     21  C   UNL     1      45.811   5.653  11.658  0.00  0.00    +0.000 A 
ATOM     22  C   UNL     1      47.043   6.101  12.146  0.00  0.00    +0.000 A 
BRANCH  20  23
ATOM     23  O   UNL     1      43.582   5.982  11.077  0.00  0.00    +0.000 OA
BRANCH  23  24
ATOM     24  C   UNL     1      42.700   5.232  11.906  0.00  0.00    +0.000 C 
ATOM     25  F   UNL     1      43.005   5.258  13.220  0.00  0.00    +0.000 F 
ATOM     26  F   UNL     1      41.450   5.730  11.765  0.00  0.00    +0.000 F 
ATOM     27  F   UNL     1      42.689   3.948  11.488  0.00  0.00    +0.000 F 
ENDBRANCH  23  24
ENDBRANCH  20  23
ENDBRANCH  14  17
ENDBRANCH   5  14
BRANCH   1  29
ATOM     28  C   UNL     1      50.165   4.537  19.327  0.00  0.00    +0.000 C 
ATOM     29  O   UNL     1      49.109   4.372  18.384  0.00  0.00    +0.000 OA
ENDBRANCH   1  29
TORSDOF 6
ENDMDL
MODEL 5
REMARK VINA RESULT:    -5.820      3.117      4.733
REMARK INTER + INTRA:          -8.843
REMARK INTER:                  -9.137
REMARK INTRA:                   0.294
REMARK UNBOUND:                -0.981
REMARK  Name = 
REMARK  7 active torsions:
REMARK  status: ('A' for Active; 'I' for Inactive)
REMARK    1  A    between atoms: C_1  and  O_2
REMARK    2  A    between atoms: O_2  and  C_3
REMARK    3  A    between atoms: N_7  and  C_8
REMARK    4  A    between atoms: C_8  and  C_9
REMARK    5  A    between atoms: C_12  and  O_13
REMARK    6  A    between atoms: O_13  and  C_14
REMARK    7  A    between atoms: C_23  and  C_24
REMARK                            x       y       z     vdW  Elec       q    Type
REMARK                         _______ _______ _______ _____ _____    ______ ____
ROOT
ATOM      1  C   UNL     1      48.944   5.263  17.943  0.00  0.00    +0.000 A 
ATOM      2  C   UNL     1      49.212   6.611  17.869  0.00  0.00    +0.000 A 
ATOM      3  N   UNL     1      48.941   7.388  16.802  0.00  0.00    +0.000 NA
ATOM      4  C   UNL     1      48.406   6.799  15.725  0.00  0.00    +0.000 A 
ATOM      5  N   UNL     1      48.042   7.678  14.712  0.00  0.00    +0.000 N 
ATOM      6  N   UNL     1      48.165   5.485  15.647  0.00  0.00    +0.000 NA
ATOM      7  C   UNL     1      48.438   4.744  16.764  0.00  0.00    +0.000 A 
ATOM      8  H   UNL     1      48.454   8.572  14.958  0.00  0.00    +0.000 HD
ENDROOT
BRANCH   7   9
ATOM      9  C   UNL     1      48.092   3.281  16.628  0.00  0.00    +0.000 C 
ATOM     10  N   UNL     1      47.154   2.824  17.522  0.00  0.00    +0.000 N 
ATOM     11  O   UNL     1      48.581   2.515  15.808  0.00  0.00    +0.000 OA
ATOM     12  H   UNL     1      46.775   3.455  18.217  0.00  0.00    +0.000 HD
ATOM     13  H   UNL     1      46.895   1.850  17.510  0.00  0.00    +0.000 HD
ENDBRANCH   7   9
BRANCH   5  14
ATOM     14  C   UNL     1      48.055   7.308  13.293  0.00  0.00    +0.000 C 
ATOM     15  C   UNL     1      49.405   6.849  12.755  0.00  0.00    +0.000 C 
ATOM     16  C   UNL     1      48.798   8.114  12.247  0.00  0.00    +0.000 C 
BRANCH  14  17
ATOM     17  C   UNL     1      46.806   6.567  12.833  0.00  0.00    +0.000 A 
ATOM     18  C   UNL     1      46.004   7.074  11.797  0.00  0.00    +0.000 A 
ATOM     19  C   UNL     1      44.919   6.352  11.286  0.00  0.00    +0.000 A 
ATOM     20  C   UNL     1      44.631   5.085  11.783  0.00  0.00    +0.000 A 
ATOM     21  C   UNL     1      45.349   4.609  12.880  0.00  0.00    +0.000 A 
ATOM     22  C   UNL     1      46.418   5.344  13.401  0.00  0.00    +0.000 A 
BRANCH  20  23
ATOM     23  O   UNL     1      43.653   4.257  11.325  0.00  0.00    +0.000 OA
BRANCH  23  24
ATOM     24  C   UNL     1      44.029   3.087  10.606  0.00  0.00    +0.000 C 
ATOM     25  F   UNL     1      43.932   3.197   9.264  0.00  0.00    +0.000 F 
ATOM     26  F   UNL     1      45.316   2.794  10.902  0.00  0.00    +0.000 F 
ATOM     27  F   UNL     1      43.260   2.054  11.013  0.00  0.00    +0.000 F 
ENDBRANCH  23  24
ENDBRANCH  20  23
ENDBRANCH  14  17
ENDBRANCH   5  14
BRANCH   1  29
ATOM     28  C   UNL     1      48.902   5.098  20.295  0.00  0.00    +0.000 C 
ATOM     29  O   UNL     1      49.173   4.491  19.034  0.00  0.00    +0.000 OA
ENDBRANCH   1  29
TORSDOF 6
ENDMDL
MODEL 6
REMARK VINA RESULT:    -5.660      5.434      8.885
REMARK INTER + INTRA:          -8.627
REMARK INTER:                  -8.070
REMARK INTRA:                  -0.557
REMARK UNBOUND:                -0.981
REMARK  Name = 
REMARK  7 active torsions:
REMARK  status: ('A' for Active; 'I' for Inactive)
REMARK    1  A    between atoms: C_1  and  O_2
REMARK    2  A    between atoms: O_2  and  C_3
REMARK    3  A    between atoms: N_7  and  C_8
REMARK    4  A    between atoms: C_8  and  C_9
REMARK    5  A    between atoms: C_12  and  O_13
REMARK    6  A    between atoms: O_13  and  C_14
REMARK    7  A    between atoms: C_23  and  C_24
REMARK                            x       y       z     vdW  Elec       q    Type
REMARK                         _______ _______ _______ _____ _____    ______ ____
ROOT
ATOM      1  C   UNL     1      46.696   5.009  12.896  0.00  0.00    +0.000 A 
ATOM      2  C   UNL     1      46.721   3.698  13.311  0.00  0.00    +0.000 A 
ATOM      3  N   UNL     1      47.177   3.282  14.509  0.00  0.00    +0.000 NA
ATOM      4  C   UNL     1      47.672   4.207  15.340  0.00  0.00    +0.000 A 
ATOM      5  N   UNL     1      48.010   3.726  16.599  0.00  0.00    +0.000 N 
ATOM      6  N   UNL     1      47.769   5.504  15.024  0.00  0.00    +0.000 NA
ATOM      7  C   UNL     1      47.273   5.879  13.806  0.00  0.00    +0.000 A 
ATOM      8  H   UNL     1      47.976   2.714  16.528  0.00  0.00    +0.000 HD
ENDROOT
BRANCH   7   9
ATOM      9  C   UNL     1      47.363   7.360  13.537  0.00  0.00    +0.000 C 
ATOM     10  N   UNL     1      46.154   7.992  13.372  0.00  0.00    +0.000 N 
ATOM     11  O   UNL     1      48.404   8.000  13.456  0.00  0.00    +0.000 OA
ATOM     12  H   UNL     1      45.298   7.452  13.411  0.00  0.00    +0.000 HD
ATOM     13  H   UNL     1      46.137   8.977  13.160  0.00  0.00    +0.000 HD
ENDBRANCH   7   9
BRANCH   5  14
ATOM     14  C   UNL     1      49.090   4.299  17.408  0.00  0.00    +0.000 C 
ATOM     15  C   UNL     1      48.637   5.062  18.648  0.00  0.00    +0.000 C 
ATOM     16  C   UNL     1      49.309   5.793  17.534  0.00  0.00    +0.000 C 
BRANCH  14  17
ATOM     17  C   UNL     1      50.322   3.410  17.520  0.00  0.00    +0.000 A 
ATOM     18  C   UNL     1      51.544   3.920  17.988  0.00  0.00    +0.000 A 
ATOM     19  C   UNL     1      52.652   3.093  18.204  0.00  0.00    +0.000 A 
ATOM     20  C   UNL     1      52.551   1.724  17.983  0.00  0.00    +0.000 A 
ATOM     21  C   UNL     1      51.382   1.213  17.420  0.00  0.00    +0.000 A 
ATOM     22  C   UNL     1      50.285   2.046  17.186  0.00  0.00    +0.000 A 
BRANCH  20  23
ATOM     23  O   UNL     1      53.529   0.808  18.222  0.00  0.00    +0.000 OA
BRANCH  23  24
ATOM     24  C   UNL     1      54.488   0.551  17.202  0.00  0.00    +0.000 C 
ATOM     25  F   UNL     1      54.874   1.640  16.505  0.00  0.00    +0.000 F 
ATOM     26  F   UNL     1      55.593   0.018  17.775  0.00  0.00    +0.000 F 
ATOM     27  F   UNL     1      53.983  -0.359  16.341  0.00  0.00    +0.000 F 
ENDBRANCH  23  24
ENDBRANCH  20  23
ENDBRANCH  14  17
ENDBRANCH   5  14
BRANCH   1  29
ATOM     28  C   UNL     1      44.840   5.073  11.443  0.00  0.00    +0.000 C 
ATOM     29  O   UNL     1      46.193   5.433  11.710  0.00  0.00    +0.000 OA
ENDBRANCH   1  29
TORSDOF 6
ENDMDL
