MODEL 1
REMARK VINA RESULT:    -7.496      0.000      0.000
REMARK INTER + INTRA:         -11.430
REMARK INTER:                 -10.782
REMARK INTRA:                  -0.648
REMARK UNBOUND:                -0.648
REMARK  Name = 
REMARK  8 active torsions:
REMARK  status: ('A' for Active; 'I' for Inactive)
REMARK    1  A    between atoms: N_1  and  C_2
REMARK    2  A    between atoms: C_2  and  C_3
REMARK    3  A    between atoms: C_3  and  N_4
REMARK    4  A    between atoms: N_4  and  C_5
REMARK    5  A    between atoms: C_5  and  C_6
REMARK    6  A    between atoms: C_9  and  C_10
REMARK    7  A    between atoms: C_10  and  N_11
REMARK    8  A    between atoms: C_12  and  C_14
REMARK                            x       y       z     vdW  Elec       q    Type
REMARK                         _______ _______ _______ _____ _____    ______ ____
ROOT
ATOM      1  C   UNL     1      44.200   4.588  12.866  0.00  0.00    +0.000 C 
ENDROOT
BRANCH   1   5
ATOM      2  C   UNL     1      45.219   3.927   8.787  0.00  0.00    +0.000 A 
ATOM      3  C   UNL     1      45.613   5.121   9.384  0.00  0.00    +0.000 A 
ATOM      4  C   UNL     1      45.285   5.348  10.717  0.00  0.00    +0.000 A 
ATOM      5  C   UNL     1      44.558   4.390  11.425  0.00  0.00    +0.000 A 
ATOM      6  C   UNL     1      44.219   3.221  10.753  0.00  0.00    +0.000 A 
ATOM      7  N   UNL     1      44.530   2.969   9.460  0.00  0.00    +0.000 NA
BRANCH   2   8
ATOM      8  C   UNL     1      45.637   3.620   7.361  0.00  0.00    +0.000 C 
BRANCH   8   9
ATOM      9  N   UNL     1      47.058   3.907   7.067  0.00  0.00    +0.000 NA
ATOM     10  H   UNL     1      47.073   4.373   6.155  0.00  0.00    +0.000 HD
BRANCH   9  11
ATOM     11  C   UNL     1      47.850   2.674   6.897  0.00  0.00    +0.000 C 
BRANCH  11  12
ATOM     12  C   UNL     1      47.004   1.430   6.563  0.00  0.00    +0.000 C 
BRANCH  12  13
ATOM     13  N   UNL     1      47.092   0.426   7.630  0.00  0.00    +0.000 NA
ATOM     14  H   UNL     1      48.051   0.402   7.977  0.00  0.00    +0.000 HD
ATOM     15  H   UNL     1      46.914  -0.495   7.230  0.00  0.00    +0.000 HD
ENDBRANCH  12  13
ENDBRANCH  11  12
ENDBRANCH   9  11
ENDBRANCH   8   9
ENDBRANCH   2   8
ENDBRANCH   1   5
BRANCH   1  16
ATOM     16  N   UNL     1      45.272   5.221  13.591  0.00  0.00    +0.000 N 
ATOM     17  C   UNL     1      46.356   4.498  14.021  0.00  0.00    +0.000 C 
ATOM     18  O   UNL     1      46.488   3.307  13.751  0.00  0.00    +0.000 OA
ATOM     19  H   UNL     1      45.077   6.124  14.015  0.00  0.00    +0.000 HD
BRANCH  17  20
ATOM     20  C   UNL     1      47.381   5.230  14.775  0.00  0.00    +0.000 A 
ATOM     21  C   UNL     1      48.086   6.255  14.153  0.00  0.00    +0.000 A 
ATOM     22  S   UNL     1      49.206   7.032  15.177  0.00  0.00    +0.000 S 
ATOM     23  C   UNL     1      48.830   5.996  16.472  0.00  0.00    +0.000 A 
ATOM     24  N   UNL     1      49.471   6.109  17.666  0.00  0.00    +0.000 NA
ATOM     25  C   UNL     1      49.109   5.238  18.548  0.00  0.00    +0.000 A 
ATOM     26  N   UNL     1      48.161   4.269  18.347  0.00  0.00    +0.000 N 
ATOM     27  C   UNL     1      47.470   4.133  17.168  0.00  0.00    +0.000 A 
ATOM     28  O   UNL     1      46.600   3.278  17.033  0.00  0.00    +0.000 OA
ATOM     29  C   UNL     1      47.848   5.079  16.135  0.00  0.00    +0.000 A 
ATOM     30  H   UNL     1      47.919   3.622  19.084  0.00  0.00    +0.000 HD
ENDBRANCH  17  20
ENDBRANCH   1  16
TORSDOF 8
ENDMDL
MODEL 2
REMARK VINA RESULT:    -7.191      2.139      3.128
REMARK INTER + INTRA:         -10.992
REMARK INTER:                 -10.104
REMARK INTRA:                  -0.888
REMARK UNBOUND:                -0.648
REMARK  Name = 
REMARK  8 active torsions:
REMARK  status: ('A' for Active; 'I' for Inactive)
REMARK    1  A    between atoms: N_1  and  C_2
REMARK    2  A    between atoms: C_2  and  C_3
REMARK    3  A    between atoms: C_3  and  N_4
REMARK    4  A    between atoms: N_4  and  C_5
REMARK    5  A    between atoms: C_5  and  C_6
REMARK    6  A    between atoms: C_9  and  C_10
REMARK    7  A    between atoms: C_10  and  N_11
REMARK    8  A    between atoms: C_12  and  C_14
REMARK                            x       y       z     vdW  Elec       q    Type
REMARK                         _______ _______ _______ _____ _____    ______ ____
ROOT
ATOM      1  C   UNL     1      44.606   5.350  13.041  0.00  0.00    +0.000 C 
ENDROOT
BRANCH   1   5
ATOM      2  C   UNL     1      45.242   3.362   9.331  0.00  0.00    +0.000 A 
ATOM      3  C   UNL     1      45.386   4.745   9.375  0.00  0.00    +0.000 A 
ATOM      4  C   UNL     1      45.180   5.406  10.582  0.00  0.00    +0.000 A 
ATOM      5  C   UNL     1      44.819   4.679  11.718  0.00  0.00    +0.000 A 
ATOM      6  C   UNL     1      44.711   3.300  11.584  0.00  0.00    +0.000 A 
ATOM      7  N   UNL     1      44.913   2.629  10.427  0.00  0.00    +0.000 NA
BRANCH   2   8
ATOM      8  C   UNL     1      45.543   2.610   8.048  0.00  0.00    +0.000 C 
BRANCH   8   9
ATOM      9  N   UNL     1      46.095   1.253   8.252  0.00  0.00    +0.000 NA
ATOM     10  H   UNL     1      46.482   1.241   9.200  0.00  0.00    +0.000 HD
BRANCH   9  11
ATOM     11  C   UNL     1      47.232   0.975   7.354  0.00  0.00    +0.000 C 
BRANCH  11  12
ATOM     12  C   UNL     1      47.930   2.241   6.820  0.00  0.00    +0.000 C 
BRANCH  12  13
ATOM     13  N   UNL     1      48.480   2.017   5.477  0.00  0.00    +0.000 NA
ATOM     14  H   UNL     1      49.466   1.771   5.567  0.00  0.00    +0.000 HD
ATOM     15  H   UNL     1      48.455   2.896   4.961  0.00  0.00    +0.000 HD
ENDBRANCH  12  13
ENDBRANCH  11  12
ENDBRANCH   9  11
ENDBRANCH   8   9
ENDBRANCH   2   8
ENDBRANCH   1   5
BRANCH   1  16
ATOM     16  N   UNL     1      45.818   5.965  13.519  0.00  0.00    +0.000 N 
ATOM     17  C   UNL     1      46.778   5.225  14.161  0.00  0.00    +0.000 C 
ATOM     18  O   UNL     1      46.675   4.008  14.296  0.00  0.00    +0.000 OA
ATOM     19  H   UNL     1      45.816   6.976  13.625  0.00  0.00    +0.000 HD
BRANCH  17  20
ATOM     20  C   UNL     1      47.963   5.949  14.635  0.00  0.00    +0.000 A 
ATOM     21  C   UNL     1      48.374   5.800  15.955  0.00  0.00    +0.000 A 
ATOM     22  S   UNL     1      49.790   6.672  16.333  0.00  0.00    +0.000 S 
ATOM     23  C   UNL     1      49.877   7.322  14.764  0.00  0.00    +0.000 A 
ATOM     24  N   UNL     1      50.866   8.192  14.423  0.00  0.00    +0.000 NA
ATOM     25  C   UNL     1      50.792   8.630  13.210  0.00  0.00    +0.000 A 
ATOM     26  N   UNL     1      49.825   8.275  12.307  0.00  0.00    +0.000 N 
ATOM     27  C   UNL     1      48.824   7.380  12.598  0.00  0.00    +0.000 A 
ATOM     28  O   UNL     1      47.995   7.053  11.755  0.00  0.00    +0.000 OA
ATOM     29  C   UNL     1      48.851   6.866  13.954  0.00  0.00    +0.000 A 
ATOM     30  H   UNL     1      49.831   8.650  11.369  0.00  0.00    +0.000 HD
ENDBRANCH  17  20
ENDBRANCH   1  16
TORSDOF 8
ENDMDL
MODEL 3
REMARK VINA RESULT:    -7.122      1.680      2.567
REMARK INTER + INTRA:         -10.893
REMARK INTER:                  -9.792
REMARK INTRA:                  -1.100
REMARK UNBOUND:                -0.648
REMARK  Name = 
REMARK  8 active torsions:
REMARK  status: ('A' for Active; 'I' for Inactive)
REMARK    1  A    between atoms: N_1  and  C_2
REMARK    2  A    between atoms: C_2  and  C_3
REMARK    3  A    between atoms: C_3  and  N_4
REMARK    4  A    between atoms: N_4  and  C_5
REMARK    5  A    between atoms: C_5  and  C_6
REMARK    6  A    between atoms: C_9  and  C_10
REMARK    7  A    between atoms: C_10  and  N_11
REMARK    8  A    between atoms: C_12  and  C_14
REMARK                            x       y       z     vdW  Elec       q    Type
REMARK                         _______ _______ _______ _____ _____    ______ ____
ROOT
ATOM      1  C   UNL     1      46.433   7.489  12.750  0.00  0.00    +0.000 C 
ENDROOT
BRANCH   1   5
ATOM      2  C   UNL     1      44.779   4.204  10.606  0.00  0.00    +0.000 A 
ATOM      3  C   UNL     1      44.544   4.289  11.976  0.00  0.00    +0.000 A 
ATOM      4  C   UNL     1      45.080   5.358  12.687  0.00  0.00    +0.000 A 
ATOM      5  C   UNL     1      45.852   6.313  12.025  0.00  0.00    +0.000 A 
ATOM      6  C   UNL     1      46.024   6.156  10.654  0.00  0.00    +0.000 A 
ATOM      7  N   UNL     1      45.509   5.132   9.935  0.00  0.00    +0.000 NA
BRANCH   2   8
ATOM      8  C   UNL     1      44.137   3.095   9.795  0.00  0.00    +0.000 C 
BRANCH   8   9
ATOM      9  N   UNL     1      44.588   3.029   8.388  0.00  0.00    +0.000 NA
ATOM     10  H   UNL     1      43.857   2.527   7.876  0.00  0.00    +0.000 HD
BRANCH   9  11
ATOM     11  C   UNL     1      45.811   2.218   8.235  0.00  0.00    +0.000 C 
BRANCH  11  12
ATOM     12  C   UNL     1      46.814   2.786   7.212  0.00  0.00    +0.000 C 
BRANCH  12  13
ATOM     13  N   UNL     1      46.770   4.253   7.185  0.00  0.00    +0.000 NA
ATOM     14  H   UNL     1      46.050   4.569   7.835  0.00  0.00    +0.000 HD
ATOM     15  H   UNL     1      46.469   4.556   6.260  0.00  0.00    +0.000 HD
ENDBRANCH  12  13
ENDBRANCH  11  12
ENDBRANCH   9  11
ENDBRANCH   8   9
ENDBRANCH   2   8
ENDBRANCH   1   5
BRANCH   1  16
ATOM     16  N   UNL     1      46.966   7.104  14.032  0.00  0.00    +0.000 N 
ATOM     17  C   UNL     1      48.254   6.648  14.152  0.00  0.00    +0.000 C 
ATOM     18  O   UNL     1      49.020   6.611  13.192  0.00  0.00    +0.000 OA
ATOM     19  H   UNL     1      46.298   6.909  14.773  0.00  0.00    +0.000 HD
BRANCH  17  20
ATOM     20  C   UNL     1      48.693   6.255  15.496  0.00  0.00    +0.000 A 
ATOM     21  C   UNL     1      49.665   7.007  16.146  0.00  0.00    +0.000 A 
ATOM     22  S   UNL     1      50.030   6.445  17.714  0.00  0.00    +0.000 S 
ATOM     23  C   UNL     1      48.942   5.146  17.564  0.00  0.00    +0.000 A 
ATOM     24  N   UNL     1      48.791   4.242  18.569  0.00  0.00    +0.000 NA
ATOM     25  C   UNL     1      47.957   3.292  18.307  0.00  0.00    +0.000 A 
ATOM     26  N   UNL     1      47.257   3.165  17.136  0.00  0.00    +0.000 N 
ATOM     27  C   UNL     1      47.358   4.067  16.105  0.00  0.00    +0.000 A 
ATOM     28  O   UNL     1      46.688   3.946  15.083  0.00  0.00    +0.000 OA
ATOM     29  C   UNL     1      48.293   5.150  16.341  0.00  0.00    +0.000 A 
ATOM     30  H   UNL     1      46.613   2.399  16.999  0.00  0.00    +0.000 HD
ENDBRANCH  17  20
ENDBRANCH   1  16
TORSDOF 8
ENDMDL
MODEL 4
REMARK VINA RESULT:    -6.786      3.826      8.060
REMARK INTER + INTRA:         -10.409
REMARK INTER:                  -9.668
REMARK INTRA:                  -0.742
REMARK UNBOUND:                -0.648
REMARK  Name = 
REMARK  8 active torsions:
REMARK  status: ('A' for Active; 'I' for Inactive)
REMARK    1  A    between atoms: N_1  and  C_2
REMARK    2  A    between atoms: C_2  and  C_3
REMARK    3  A    between atoms: C_3  and  N_4
REMARK    4  A    between atoms: N_4  and  C_5
REMARK    5  A    between atoms: C_5  and  C_6
REMARK    6  A    between atoms: C_9  and  C_10
REMARK    7  A    between atoms: C_10  and  N_11
REMARK    8  A    between atoms: C_12  and  C_14
REMARK                            x       y       z     vdW  Elec       q    Type
REMARK                         _______ _______ _______ _____ _____    ______ ____
ROOT
ATOM      1  C   UNL     1      48.814   5.911  17.161  0.00  0.00    +0.000 C 
ENDROOT
BRANCH   1   5
ATOM      2  C   UNL     1      51.036   2.295  17.476  0.00  0.00    +0.000 A 
ATOM      3  C   UNL     1      51.672   3.493  17.788  0.00  0.00    +0.000 A 
ATOM      4  C   UNL     1      50.955   4.682  17.689  0.00  0.00    +0.000 A 
ATOM      5  C   UNL     1      49.626   4.656  17.265  0.00  0.00    +0.000 A 
ATOM      6  C   UNL     1      49.068   3.413  16.987  0.00  0.00    +0.000 A 
ATOM      7  N   UNL     1      49.737   2.241  17.082  0.00  0.00    +0.000 NA
BRANCH   2   8
ATOM      8  C   UNL     1      51.770   0.979  17.657  0.00  0.00    +0.000 C 
BRANCH   8   9
ATOM      9  N   UNL     1      53.146   1.117  18.185  0.00  0.00    +0.000 NA
ATOM     10  H   UNL     1      53.597   1.843  17.620  0.00  0.00    +0.000 HD
BRANCH   9  11
ATOM     11  C   UNL     1      53.945  -0.105  17.976  0.00  0.00    +0.000 C 
BRANCH  11  12
ATOM     12  C   UNL     1      54.760  -0.102  16.667  0.00  0.00    +0.000 C 
BRANCH  12  13
ATOM     13  N   UNL     1      54.327  -1.182  15.771  0.00  0.00    +0.000 NA
ATOM     14  H   UNL     1      54.348  -0.836  14.811  0.00  0.00    +0.000 HD
ATOM     15  H   UNL     1      53.353  -1.403  15.970  0.00  0.00    +0.000 HD
ENDBRANCH  12  13
ENDBRANCH  11  12
ENDBRANCH   9  11
ENDBRANCH   8   9
ENDBRANCH   2   8
ENDBRANCH   1   5
BRANCH   1  16
ATOM     16  N   UNL     1      47.909   5.860  16.041  0.00  0.00    +0.000 N 
ATOM     17  C   UNL     1      48.303   6.279  14.795  0.00  0.00    +0.000 C 
ATOM     18  O   UNL     1      49.453   6.651  14.572  0.00  0.00    +0.000 OA
ATOM     19  H   UNL     1      46.917   5.782  16.248  0.00  0.00    +0.000 HD
BRANCH  17  20
ATOM     20  C   UNL     1      47.299   6.212  13.727  0.00  0.00    +0.000 A 
ATOM     21  C   UNL     1      46.890   7.383  13.099  0.00  0.00    +0.000 A 
ATOM     22  S   UNL     1      45.754   7.129  11.853  0.00  0.00    +0.000 S 
ATOM     23  C   UNL     1      45.727   5.453  12.141  0.00  0.00    +0.000 A 
ATOM     24  N   UNL     1      44.918   4.634  11.417  0.00  0.00    +0.000 NA
ATOM     25  C   UNL     1      44.976   3.390  11.763  0.00  0.00    +0.000 A 
ATOM     26  N   UNL     1      45.770   2.892  12.762  0.00  0.00    +0.000 N 
ATOM     27  C   UNL     1      46.622   3.677  13.500  0.00  0.00    +0.000 A 
ATOM     28  O   UNL     1      47.350   3.194  14.363  0.00  0.00    +0.000 OA
ATOM     29  C   UNL     1      46.588   5.087  13.162  0.00  0.00    +0.000 A 
ATOM     30  H   UNL     1      45.773   1.905  12.976  0.00  0.00    +0.000 HD
ENDBRANCH  17  20
ENDBRANCH   1  16
TORSDOF 8
ENDMDL
MODEL 5
REMARK VINA RESULT:    -6.764      3.675      8.347
REMARK INTER + INTRA:         -10.378
REMARK INTER:                  -9.625
REMARK INTRA:                  -0.753
REMARK UNBOUND:                -0.648
REMARK  Name = 
REMARK  8 active torsions:
REMARK  status: ('A' for Active; 'I' for Inactive)
REMARK    1  A    between atoms: N_1  and  C_2
REMARK    2  A    between atoms: C_2  and  C_3
REMARK    3  A    between atoms: C_3  and  N_4
REMARK    4  A    between atoms: N_4  and  C_5
REMARK    5  A    between atoms: C_5  and  C_6
REMARK    6  A    between atoms: C_9  and  C_10
REMARK    7  A    between atoms: C_10  and  N_11
REMARK    8  A    between atoms: C_12  and  C_14
REMARK                            x       y       z     vdW  Elec       q    Type
REMARK                         _______ _______ _______ _____ _____    ______ ____
ROOT
ATOM      1  C   UNL     1      47.193   3.348  17.007  0.00  0.00    +0.000 C 
ENDROOT
BRANCH   1   5
ATOM      2  C   UNL     1      51.352   3.216  17.904  0.00  0.00    +0.000 A 
ATOM      3  C   UNL     1      50.783   2.136  17.236  0.00  0.00    +0.000 A 
ATOM      4  C   UNL     1      49.424   2.168  16.938  0.00  0.00    +0.000 A 
ATOM      5  C   UNL     1      48.655   3.267  17.324  0.00  0.00    +0.000 A 
ATOM      6  C   UNL     1      49.310   4.306  17.976  0.00  0.00    +0.000 A 
ATOM      7  N   UNL     1      50.630   4.307  18.272  0.00  0.00    +0.000 NA
BRANCH   2   8
ATOM      8  C   UNL     1      52.846   3.242  18.166  0.00  0.00    +0.000 C 
BRANCH   8   9
ATOM      9  N   UNL     1      53.344   2.102  18.967  0.00  0.00    +0.000 NA
ATOM     10  H   UNL     1      53.766   2.506  19.808  0.00  0.00    +0.000 HD
BRANCH   9  11
ATOM     11  C   UNL     1      54.432   1.377  18.283  0.00  0.00    +0.000 C 
BRANCH  11  12
ATOM     12  C   UNL     1      54.030  -0.024  17.780  0.00  0.00    +0.000 C 
BRANCH  12  13
ATOM     13  N   UNL     1      52.848  -0.524  18.493  0.00  0.00    +0.000 NA
ATOM     14  H   UNL     1      53.126  -1.321  19.065  0.00  0.00    +0.000 HD
ATOM     15  H   UNL     1      52.182  -0.885  17.811  0.00  0.00    +0.000 HD
ENDBRANCH  12  13
ENDBRANCH  11  12
ENDBRANCH   9  11
ENDBRANCH   8   9
ENDBRANCH   2   8
ENDBRANCH   1   5
BRANCH   1  16
ATOM     16  N   UNL     1      46.922   4.387  16.046  0.00  0.00    +0.000 N 
ATOM     17  C   UNL     1      47.050   4.154  14.700  0.00  0.00    +0.000 C 
ATOM     18  O   UNL     1      47.335   3.043  14.260  0.00  0.00    +0.000 OA
ATOM     19  H   UNL     1      46.915   5.345  16.387  0.00  0.00    +0.000 HD
BRANCH  17  20
ATOM     20  C   UNL     1      46.778   5.285  13.805  0.00  0.00    +0.000 A 
ATOM     21  C   UNL     1      47.738   6.278  13.646  0.00  0.00    +0.000 A 
ATOM     22  S   UNL     1      47.286   7.495  12.541  0.00  0.00    +0.000 S 
ATOM     23  C   UNL     1      45.771   6.769  12.274  0.00  0.00    +0.000 A 
ATOM     24  N   UNL     1      44.864   7.337  11.434  0.00  0.00    +0.000 NA
ATOM     25  C   UNL     1      43.745   6.696  11.350  0.00  0.00    +0.000 A 
ATOM     26  N   UNL     1      43.453   5.540  12.024  0.00  0.00    +0.000 N 
ATOM     27  C   UNL     1      44.347   4.918  12.861  0.00  0.00    +0.000 A 
ATOM     28  O   UNL     1      44.068   3.861  13.421  0.00  0.00    +0.000 OA
ATOM     29  C   UNL     1      45.618   5.603  13.003  0.00  0.00    +0.000 A 
ATOM     30  H   UNL     1      42.559   5.085  11.906  0.00  0.00    +0.000 HD
ENDBRANCH  17  20
ENDBRANCH   1  16
TORSDOF 8
ENDMDL
MODEL 6
REMARK VINA RESULT:    -6.553      3.552      7.837
REMARK INTER + INTRA:         -10.074
REMARK INTER:                  -9.340
REMARK INTRA:                  -0.734
REMARK UNBOUND:                -0.648
REMARK  Name = 
REMARK  8 active torsions:
REMARK  status: ('A' for Active; 'I' for Inactive)
REMARK    1  A    between atoms: N_1  and  C_2
REMARK    2  A    between atoms: C_2  and  C_3
REMARK    3  A    between atoms: C_3  and  N_4
REMARK    4  A    between atoms: N_4  and  C_5
REMARK    5  A    between atoms: C_5  and  C_6
REMARK    6  A    between atoms: C_9  and  C_10
REMARK    7  A    between atoms: C_10  and  N_11
REMARK    8  A    between atoms: C_12  and  C_14
REMARK                            x       y       z     vdW  Elec       q    Type
REMARK                         _______ _______ _______ _____ _____    ______ ____
ROOT
ATOM      1  C   UNL     1      48.397   7.720  14.255  0.00  0.00    +0.000 C 
ENDROOT
BRANCH   1   5
ATOM      2  C   UNL     1      50.229   5.171  17.130  0.00  0.00    +0.000 A 
ATOM      3  C   UNL     1      50.964   6.241  16.628  0.00  0.00    +0.000 A 
ATOM      4  C   UNL     1      50.376   7.081  15.688  0.00  0.00    +0.000 A 
ATOM      5  C   UNL     1      49.073   6.830  15.253  0.00  0.00    +0.000 A 
ATOM      6  C   UNL     1      48.410   5.747  15.818  0.00  0.00    +0.000 A 
ATOM      7  N   UNL     1      48.952   4.918  16.739  0.00  0.00    +0.000 NA
BRANCH   2   8
ATOM      8  C   UNL     1      50.818   4.291  18.217  0.00  0.00    +0.000 C 
BRANCH   8   9
ATOM      9  N   UNL     1      50.162   2.972  18.355  0.00  0.00    +0.000 NA
ATOM     10  H   UNL     1      50.555   2.545  19.198  0.00  0.00    +0.000 HD
BRANCH   9  11
ATOM     11  C   UNL     1      50.511   2.061  17.247  0.00  0.00    +0.000 C 
BRANCH  11  12
ATOM     12  C   UNL     1      51.867   1.352  17.425  0.00  0.00    +0.000 C 
BRANCH  12  13
ATOM     13  N   UNL     1      51.710   0.073  18.130  0.00  0.00    +0.000 NA
ATOM     14  H   UNL     1      52.301  -0.623  17.677  0.00  0.00    +0.000 HD
ATOM     15  H   UNL     1      50.750  -0.250  18.012  0.00  0.00    +0.000 HD
ENDBRANCH  12  13
ENDBRANCH  11  12
ENDBRANCH   9  11
ENDBRANCH   8   9
ENDBRANCH   2   8
ENDBRANCH   1   5
BRANCH   1  16
ATOM     16  N   UNL     1      47.164   7.140  13.785  0.00  0.00    +0.000 N 
ATOM     17  C   UNL     1      46.918   6.996  12.443  0.00  0.00    +0.000 C 
ATOM     18  O   UNL     1      47.758   7.293  11.596  0.00  0.00    +0.000 OA
ATOM     19  H   UNL     1      46.387   7.108  14.439  0.00  0.00    +0.000 HD
BRANCH  17  20
ATOM     20  C   UNL     1      45.622   6.420  12.067  0.00  0.00    +0.000 A 
ATOM     21  C   UNL     1      44.650   7.236  11.499  0.00  0.00    +0.000 A 
ATOM     22  S   UNL     1      43.221   6.405  11.079  0.00  0.00    +0.000 S 
ATOM     23  C   UNL     1      43.827   4.938  11.689  0.00  0.00    +0.000 A 
ATOM     24  N   UNL     1      43.072   3.807  11.663  0.00  0.00    +0.000 NA
ATOM     25  C   UNL     1      43.644   2.774  12.187  0.00  0.00    +0.000 A 
ATOM     26  N   UNL     1      44.902   2.768  12.729  0.00  0.00    +0.000 N 
ATOM     27  C   UNL     1      45.710   3.879  12.754  0.00  0.00    +0.000 A 
ATOM     28  O   UNL     1      46.847   3.831  13.213  0.00  0.00    +0.000 OA
ATOM     29  C   UNL     1      45.110   5.073  12.189  0.00  0.00    +0.000 A 
ATOM     30  H   UNL     1      45.294   1.922  13.117  0.00  0.00    +0.000 HD
ENDBRANCH  17  20
ENDBRANCH   1  16
TORSDOF 8
ENDMDL
MODEL 7
REMARK VINA RESULT:    -6.478      3.972      5.306
REMARK INTER + INTRA:          -9.966
REMARK INTER:                  -9.339
REMARK INTRA:                  -0.628
REMARK UNBOUND:                -0.648
REMARK  Name = 
REMARK  8 active torsions:
REMARK  status: ('A' for Active; 'I' for Inactive)
REMARK    1  A    between atoms: N_1  and  C_2
REMARK    2  A    between atoms: C_2  and  C_3
REMARK    3  A    between atoms: C_3  and  N_4
REMARK    4  A    between atoms: N_4  and  C_5
REMARK    5  A    between atoms: C_5  and  C_6
REMARK    6  A    between atoms: C_9  and  C_10
REMARK    7  A    between atoms: C_10  and  N_11
REMARK    8  A    between atoms: C_12  and  C_14
REMARK                            x       y       z     vdW  Elec       q    Type
REMARK                         _______ _______ _______ _____ _____    ______ ____
ROOT
ATOM      1  C   UNL     1      46.355   4.214  14.128  0.00  0.00    +0.000 C 
ENDROOT
BRANCH   1   5
ATOM      2  C   UNL     1      45.058   7.702  12.061  0.00  0.00    +0.000 A 
ATOM      3  C   UNL     1      46.340   7.690  12.603  0.00  0.00    +0.000 A 
ATOM      4  C   UNL     1      46.775   6.556  13.281  0.00  0.00    +0.000 A 
ATOM      5  C   UNL     1      45.920   5.461  13.421  0.00  0.00    +0.000 A 
ATOM      6  C   UNL     1      44.662   5.556  12.836  0.00  0.00    +0.000 A 
ATOM      7  N   UNL     1      44.215   6.642  12.164  0.00  0.00    +0.000 NA
BRANCH   2   8
ATOM      8  C   UNL     1      44.592   8.894  11.246  0.00  0.00    +0.000 C 
BRANCH   8   9
ATOM      9  N   UNL     1      43.205   8.782  10.744  0.00  0.00    +0.000 NA
ATOM     10  H   UNL     1      43.256   8.226   9.885  0.00  0.00    +0.000 HD
BRANCH   9  11
ATOM     11  C   UNL     1      42.654  10.090  10.339  0.00  0.00    +0.000 C 
BRANCH  11  12
ATOM     12  C   UNL     1      41.419  10.526  11.151  0.00  0.00    +0.000 C 
BRANCH  12  13
ATOM     13  N   UNL     1      40.525   9.390  11.407  0.00  0.00    +0.000 NA
ATOM     14  H   UNL     1      39.621   9.584  10.976  0.00  0.00    +0.000 HD
ATOM     15  H   UNL     1      40.352   9.328  12.410  0.00  0.00    +0.000 HD
ENDBRANCH  12  13
ENDBRANCH  11  12
ENDBRANCH   9  11
ENDBRANCH   8   9
ENDBRANCH   2   8
ENDBRANCH   1   5
BRANCH   1  16
ATOM     16  N   UNL     1      47.487   4.465  14.985  0.00  0.00    +0.000 N 
ATOM     17  C   UNL     1      47.449   4.140  16.317  0.00  0.00    +0.000 C 
ATOM     18  O   UNL     1      46.482   3.568  16.816  0.00  0.00    +0.000 OA
ATOM     19  H   UNL     1      48.181   5.129  14.655  0.00  0.00    +0.000 HD
BRANCH  17  20
ATOM     20  C   UNL     1      48.641   4.461  17.110  0.00  0.00    +0.000 A 
ATOM     21  C   UNL     1      48.730   5.695  17.745  0.00  0.00    +0.000 A 
ATOM     22  S   UNL     1      50.155   5.892  18.659  0.00  0.00    +0.000 S 
ATOM     23  C   UNL     1      50.732   4.360  18.199  0.00  0.00    +0.000 A 
ATOM     24  N   UNL     1      51.944   3.914  18.624  0.00  0.00    +0.000 NA
ATOM     25  C   UNL     1      52.269   2.748  18.173  0.00  0.00    +0.000 A 
ATOM     26  N   UNL     1      51.491   1.987  17.339  0.00  0.00    +0.000 N 
ATOM     27  C   UNL     1      50.250   2.385  16.906  0.00  0.00    +0.000 A 
ATOM     28  O   UNL     1      49.562   1.664  16.190  0.00  0.00    +0.000 OA
ATOM     29  C   UNL     1      49.840   3.696  17.373  0.00  0.00    +0.000 A 
ATOM     30  H   UNL     1      51.803   1.078  17.029  0.00  0.00    +0.000 HD
ENDBRANCH  17  20
ENDBRANCH   1  16
TORSDOF 8
ENDMDL
MODEL 8
REMARK VINA RESULT:    -6.461      2.459      3.769
REMARK INTER + INTRA:          -9.942
REMARK INTER:                  -9.043
REMARK INTRA:                  -0.899
REMARK UNBOUND:                -0.648
REMARK  Name = 
REMARK  8 active torsions:
REMARK  status: ('A' for Active; 'I' for Inactive)
REMARK    1  A    between atoms: N_1  and  C_2
REMARK    2  A    between atoms: C_2  and  C_3
REMARK    3  A    between atoms: C_3  and  N_4
REMARK    4  A    between atoms: N_4  and  C_5
REMARK    5  A    between atoms: C_5  and  C_6
REMARK    6  A    between atoms: C_9  and  C_10
REMARK    7  A    between atoms: C_10  and  N_11
REMARK    8  A    between atoms: C_12  and  C_14
REMARK                            x       y       z     vdW  Elec       q    Type
REMARK                         _______ _______ _______ _____ _____    ______ ____
ROOT
ATOM      1  C   UNL     1      48.323   6.577  13.793  0.00  0.00    +0.000 C 
ENDROOT
BRANCH   1   5
ATOM      2  C   UNL     1      45.123   4.510  11.895  0.00  0.00    +0.000 A 
ATOM      3  C   UNL     1      45.732   3.919  12.998  0.00  0.00    +0.000 A 
ATOM      4  C   UNL     1      46.780   4.586  13.626  0.00  0.00    +0.000 A 
ATOM      5  C   UNL     1      47.210   5.819  13.135  0.00  0.00    +0.000 A 
ATOM      6  C   UNL     1      46.535   6.339  12.037  0.00  0.00    +0.000 A 
ATOM      7  N   UNL     1      45.509   5.719  11.410  0.00  0.00    +0.000 NA
BRANCH   2   8
ATOM      8  C   UNL     1      43.926   3.842  11.244  0.00  0.00    +0.000 C 
BRANCH   8   9
ATOM      9  N   UNL     1      44.222   2.534  10.621  0.00  0.00    +0.000 NA
ATOM     10  H   UNL     1      44.819   2.030  11.283  0.00  0.00    +0.000 HD
BRANCH   9  11
ATOM     11  C   UNL     1      45.023   2.674   9.390  0.00  0.00    +0.000 C 
BRANCH  11  12
ATOM     12  C   UNL     1      44.560   3.822   8.471  0.00  0.00    +0.000 C 
BRANCH  12  13
ATOM     13  N   UNL     1      45.604   4.844   8.332  0.00  0.00    +0.000 NA
ATOM     14  H   UNL     1      45.801   5.235   9.253  0.00  0.00    +0.000 HD
ATOM     15  H   UNL     1      45.238   5.613   7.771  0.00  0.00    +0.000 HD
ENDBRANCH  12  13
ENDBRANCH  11  12
ENDBRANCH   9  11
ENDBRANCH   8   9
ENDBRANCH   2   8
ENDBRANCH   1   5
BRANCH   1  16
ATOM     16  N   UNL     1      48.058   6.787  15.194  0.00  0.00    +0.000 N 
ATOM     17  C   UNL     1      49.036   6.586  16.135  0.00  0.00    +0.000 C 
ATOM     18  O   UNL     1      50.185   6.286  15.819  0.00  0.00    +0.000 OA
ATOM     19  H   UNL     1      47.084   6.804  15.485  0.00  0.00    +0.000 HD
BRANCH  17  20
ATOM     20  C   UNL     1      48.659   6.799  17.536  0.00  0.00    +0.000 A 
ATOM     21  C   UNL     1      48.301   8.074  17.963  0.00  0.00    +0.000 A 
ATOM     22  S   UNL     1      47.847   8.143  19.604  0.00  0.00    +0.000 S 
ATOM     23  C   UNL     1      48.162   6.486  19.821  0.00  0.00    +0.000 A 
ATOM     24  N   UNL     1      48.000   5.898  21.037  0.00  0.00    +0.000 NA
ATOM     25  C   UNL     1      48.305   4.643  21.065  0.00  0.00    +0.000 A 
ATOM     26  N   UNL     1      48.753   3.923  19.989  0.00  0.00    +0.000 N 
ATOM     27  C   UNL     1      48.907   4.468  18.737  0.00  0.00    +0.000 A 
ATOM     28  O   UNL     1      49.273   3.786  17.784  0.00  0.00    +0.000 OA
ATOM     29  C   UNL     1      48.590   5.881  18.652  0.00  0.00    +0.000 A 
ATOM     30  H   UNL     1      48.967   2.940  20.078  0.00  0.00    +0.000 HD
ENDBRANCH  17  20
ENDBRANCH   1  16
TORSDOF 8
ENDMDL
MODEL 9
REMARK VINA RESULT:    -6.244      2.689      4.070
REMARK INTER + INTRA:          -9.630
REMARK INTER:                  -8.907
REMARK INTRA:                  -0.722
REMARK UNBOUND:                -0.648
REMARK  Name = 
REMARK  8 active torsions:
REMARK  status: ('A' for Active; 'I' for Inactive)
REMARK    1  A    between atoms: N_1  and  C_2
REMARK    2  A    between atoms: C_2  and  C_3
REMARK    3  A    between atoms: C_3  and  N_4
REMARK    4  A    between atoms: N_4  and  C_5
REMARK    5  A    between atoms: C_5  and  C_6
REMARK    6  A    between atoms: C_9  and  C_10
REMARK    7  A    between atoms: C_10  and  N_11
REMARK    8  A    between atoms: C_12  and  C_14
REMARK                            x       y       z     vdW  Elec       q    Type
REMARK                         _______ _______ _______ _____ _____    ______ ____
ROOT
ATOM      1  C   UNL     1      47.911   6.377  13.969  0.00  0.00    +0.000 C 
ENDROOT
BRANCH   1   5
ATOM      2  C   UNL     1      44.575   4.555  12.054  0.00  0.00    +0.000 A 
ATOM      3  C   UNL     1      45.011   5.793  11.591  0.00  0.00    +0.000 A 
ATOM      4  C   UNL     1      46.100   6.398  12.209  0.00  0.00    +0.000 A 
ATOM      5  C   UNL     1      46.724   5.768  13.287  0.00  0.00    +0.000 A 
ATOM      6  C   UNL     1      46.230   4.527  13.673  0.00  0.00    +0.000 A 
ATOM      7  N   UNL     1      45.178   3.910  13.086  0.00  0.00    +0.000 NA
BRANCH   2   8
ATOM      8  C   UNL     1      43.443   3.837  11.343  0.00  0.00    +0.000 C 
BRANCH   8   9
ATOM      9  N   UNL     1      43.835   2.559  10.709  0.00  0.00    +0.000 NA
ATOM     10  H   UNL     1      44.145   1.946  11.469  0.00  0.00    +0.000 HD
BRANCH   9  11
ATOM     11  C   UNL     1      45.004   2.716   9.822  0.00  0.00    +0.000 C 
BRANCH  11  12
ATOM     12  C   UNL     1      44.669   3.335   8.451  0.00  0.00    +0.000 C 
BRANCH  12  13
ATOM     13  N   UNL     1      45.326   4.637   8.282  0.00  0.00    +0.000 NA
ATOM     14  H   UNL     1      45.710   4.927   9.182  0.00  0.00    +0.000 HD
ATOM     15  H   UNL     1      44.621   5.331   8.038  0.00  0.00    +0.000 HD
ENDBRANCH  12  13
ENDBRANCH  11  12
ENDBRANCH   9  11
ENDBRANCH   8   9
ENDBRANCH   2   8
ENDBRANCH   1   5
BRANCH   1  16
ATOM     16  N   UNL     1      47.823   6.236  15.400  0.00  0.00    +0.000 N 
ATOM     17  C   UNL     1      48.954   6.190  16.176  0.00  0.00    +0.000 C 
ATOM     18  O   UNL     1      50.075   6.332  15.693  0.00  0.00    +0.000 OA
ATOM     19  H   UNL     1      46.946   5.890  15.780  0.00  0.00    +0.000 HD
BRANCH  17  20
ATOM     20  C   UNL     1      48.759   6.016  17.619  0.00  0.00    +0.000 A 
ATOM     21  C   UNL     1      49.036   4.785  18.204  0.00  0.00    +0.000 A 
ATOM     22  S   UNL     1      48.800   4.762  19.892  0.00  0.00    +0.000 S 
ATOM     23  C   UNL     1      48.269   6.377  19.899  0.00  0.00    +0.000 A 
ATOM     24  N   UNL     1      47.875   6.978  21.054  0.00  0.00    +0.000 NA
ATOM     25  C   UNL     1      47.467   8.195  20.907  0.00  0.00    +0.000 A 
ATOM     26  N   UNL     1      47.421   8.866  19.713  0.00  0.00    +0.000 N 
ATOM     27  C   UNL     1      47.832   8.309  18.527  0.00  0.00    +0.000 A 
ATOM     28  O   UNL     1      47.814   8.949  17.480  0.00  0.00    +0.000 OA
ATOM     29  C   UNL     1      48.289   6.936  18.632  0.00  0.00    +0.000 A 
ATOM     30  H   UNL     1      47.097   9.822  19.669  0.00  0.00    +0.000 HD
ENDBRANCH  17  20
ENDBRANCH   1  16
TORSDOF 8
ENDMDL
