MODEL 1
REMARK VINA RESULT:    -8.192      0.000      0.000
REMARK INTER + INTRA:         -12.390
REMARK INTER:                 -11.305
REMARK INTRA:                  -1.086
REMARK UNBOUND:                -1.086
REMARK  Name = 
REMARK  7 active torsions:
REMARK  status: ('A' for Active; 'I' for Inactive)
REMARK    1  A    between atoms: C_2  and  C_20
REMARK    2  A    between atoms: N_3  and  C_4
REMARK    3  A    between atoms: C_4  and  C_5
REMARK    4  A    between atoms: C_8  and  C_9
REMARK    5  A    between atoms: C_9  and  C_10
REMARK    6  A    between atoms: C_10  and  O_11
REMARK    7  A    between atoms: C_10  and  C_12
REMARK                            x       y       z     vdW  Elec       q    Type
REMARK                         _______ _______ _______ _____ _____    ______ ____
ROOT
ATOM      1  C   UNL     1      46.685   7.960  13.229  0.00  0.00    +0.000 C 
ENDROOT
BRANCH   1   2
ATOM      2  C   UNL     1      46.002   6.980  12.314  0.00  0.00    +0.000 A 
ATOM      3  C   UNL     1      46.473   6.786  11.009  0.00  0.00    +0.000 A 
ATOM      4  C   UNL     1      45.872   5.846  10.167  0.00  0.00    +0.000 A 
ATOM      5  C   UNL     1      44.776   5.094  10.607  0.00  0.00    +0.000 A 
ATOM      6  C   UNL     1      44.282   5.314  11.899  0.00  0.00    +0.000 A 
ATOM      7  C   UNL     1      44.883   6.254  12.743  0.00  0.00    +0.000 A 
BRANCH   5   8
ATOM      8  C   UNL     1      44.140   4.052   9.710  0.00  0.00    +0.000 C 
BRANCH   8   9
ATOM      9  C   UNL     1      44.850   2.684   9.759  0.00  0.00    +0.000 C 
BRANCH   9  10
ATOM     10  C   UNL     1      45.669   2.458   8.504  0.00  0.00    +0.000 A 
ATOM     11  C   UNL     1      45.794   3.453   7.538  0.00  0.00    +0.000 A 
ATOM     12  N   UNL     1      46.536   3.300   6.413  0.00  0.00    +0.000 NA
ATOM     13  C   UNL     1      47.169   2.111   6.294  0.00  0.00    +0.000 A 
ATOM     14  C   UNL     1      47.065   1.119   7.253  0.00  0.00    +0.000 A 
ATOM     15  N   UNL     1      46.322   1.267   8.376  0.00  0.00    +0.000 NA
ENDBRANCH   9  10
BRANCH   9  16
ATOM     16  O   UNL     1      43.879   1.634   9.845  0.00  0.00    +0.000 OA
ATOM     17  H   UNL     1      44.381   0.804   9.738  0.00  0.00    +0.000 HD
ENDBRANCH   9  16
ENDBRANCH   8   9
ENDBRANCH   5   8
ENDBRANCH   1   2
BRANCH   1  20
ATOM     18  O   UNL     1      49.241   6.751  13.410  0.00  0.00    +0.000 OA
ATOM     19  C   UNL     1      48.516   6.781  14.401  0.00  0.00    +0.000 C 
ATOM     20  N   UNL     1      47.253   7.307  14.378  0.00  0.00    +0.000 N 
ATOM     21  H   UNL     1      46.765   7.461  15.253  0.00  0.00    +0.000 HD
BRANCH  19  22
ATOM     22  C   UNL     1      48.942   6.196  15.681  0.00  0.00    +0.000 A 
ATOM     23  C   UNL     1      49.998   6.759  16.384  0.00  0.00    +0.000 A 
ATOM     24  S   UNL     1      50.356   5.948  17.843  0.00  0.00    +0.000 S 
ATOM     25  C   UNL     1      49.087   4.840  17.604  0.00  0.00    +0.000 A 
ATOM     26  N   UNL     1      48.818   3.876  18.526  0.00  0.00    +0.000 NA
ATOM     27  C   UNL     1      47.806   3.126  18.234  0.00  0.00    +0.000 A 
ATOM     28  N   UNL     1      47.049   3.244  17.097  0.00  0.00    +0.000 N 
ATOM     29  C   UNL     1      47.337   4.148  16.107  0.00  0.00    +0.000 A 
ATOM     30  O   UNL     1      46.728   4.124  15.042  0.00  0.00    +0.000 OA
ATOM     31  C   UNL     1      48.426   5.059  16.411  0.00  0.00    +0.000 A 
ATOM     32  H   UNL     1      46.295   2.604  16.905  0.00  0.00    +0.000 HD
ENDBRANCH  19  22
ENDBRANCH   1  20
TORSDOF 7
ENDMDL
MODEL 2
REMARK VINA RESULT:    -7.363      2.478      2.900
REMARK INTER + INTRA:         -11.247
REMARK INTER:                 -10.270
REMARK INTRA:                  -0.977
REMARK UNBOUND:                -1.086
REMARK  Name = 
REMARK  7 active torsions:
REMARK  status: ('A' for Active; 'I' for Inactive)
REMARK    1  A    between atoms: C_2  and  C_20
REMARK    2  A    between atoms: N_3  and  C_4
REMARK    3  A    between atoms: C_4  and  C_5
REMARK    4  A    between atoms: C_8  and  C_9
REMARK    5  A    between atoms: C_9  and  C_10
REMARK    6  A    between atoms: C_10  and  O_11
REMARK    7  A    between atoms: C_10  and  C_12
REMARK                            x       y       z     vdW  Elec       q    Type
REMARK                         _______ _______ _______ _____ _____    ______ ____
ROOT
ATOM      1  C   UNL     1      48.436   7.085  14.086  0.00  0.00    +0.000 C 
ENDROOT
BRANCH   1   2
ATOM      2  C   UNL     1      47.389   6.408  13.242  0.00  0.00    +0.000 A 
ATOM      3  C   UNL     1      46.985   6.975  12.027  0.00  0.00    +0.000 A 
ATOM      4  C   UNL     1      46.047   6.332  11.216  0.00  0.00    +0.000 A 
ATOM      5  C   UNL     1      45.479   5.115  11.613  0.00  0.00    +0.000 A 
ATOM      6  C   UNL     1      45.856   4.565  12.846  0.00  0.00    +0.000 A 
ATOM      7  C   UNL     1      46.795   5.208  13.658  0.00  0.00    +0.000 A 
BRANCH   5   8
ATOM      8  C   UNL     1      44.485   4.396  10.725  0.00  0.00    +0.000 C 
BRANCH   8   9
ATOM      9  C   UNL     1      44.874   2.935  10.424  0.00  0.00    +0.000 C 
BRANCH   9  10
ATOM     10  C   UNL     1      45.512   2.819   9.055  0.00  0.00    +0.000 A 
ATOM     11  C   UNL     1      45.646   3.931   8.227  0.00  0.00    +0.000 A 
ATOM     12  N   UNL     1      46.232   3.875   7.006  0.00  0.00    +0.000 NA
ATOM     13  C   UNL     1      46.699   2.660   6.643  0.00  0.00    +0.000 A 
ATOM     14  C   UNL     1      46.586   1.549   7.461  0.00  0.00    +0.000 A 
ATOM     15  N   UNL     1      45.998   1.601   8.679  0.00  0.00    +0.000 NA
ENDBRANCH   9  10
BRANCH   9  16
ATOM     16  O   UNL     1      43.705   2.107  10.436  0.00  0.00    +0.000 OA
ATOM     17  H   UNL     1      43.008   2.643  10.858  0.00  0.00    +0.000 HD
ENDBRANCH   9  16
ENDBRANCH   8   9
ENDBRANCH   5   8
ENDBRANCH   1   2
BRANCH   1  20
ATOM     18  O   UNL     1      50.352   6.196  15.973  0.00  0.00    +0.000 OA
ATOM     19  C   UNL     1      49.213   6.457  16.348  0.00  0.00    +0.000 C 
ATOM     20  N   UNL     1      48.222   6.848  15.488  0.00  0.00    +0.000 N 
ATOM     21  H   UNL     1      47.355   7.213  15.865  0.00  0.00    +0.000 HD
BRANCH  19  22
ATOM     22  C   UNL     1      48.816   6.312  17.757  0.00  0.00    +0.000 A 
ATOM     23  C   UNL     1      48.997   5.099  18.408  0.00  0.00    +0.000 A 
ATOM     24  S   UNL     1      48.478   5.113  20.033  0.00  0.00    +0.000 S 
ATOM     25  C   UNL     1      48.030   6.752  19.935  0.00  0.00    +0.000 A 
ATOM     26  N   UNL     1      47.532   7.407  21.019  0.00  0.00    +0.000 NA
ATOM     27  C   UNL     1      47.267   8.655  20.813  0.00  0.00    +0.000 A 
ATOM     28  N   UNL     1      47.440   9.303  19.618  0.00  0.00    +0.000 N 
ATOM     29  C   UNL     1      47.861   8.661  18.483  0.00  0.00    +0.000 A 
ATOM     30  O   UNL     1      47.863   9.239  17.401  0.00  0.00    +0.000 OA
ATOM     31  C   UNL     1      48.234   7.270  18.671  0.00  0.00    +0.000 A 
ATOM     32  H   UNL     1      47.178  10.269  19.506  0.00  0.00    +0.000 HD
ENDBRANCH  19  22
ENDBRANCH   1  20
TORSDOF 7
ENDMDL
MODEL 3
REMARK VINA RESULT:    -7.197      2.473      4.196
REMARK INTER + INTRA:         -11.017
REMARK INTER:                 -10.463
REMARK INTRA:                  -0.554
REMARK UNBOUND:                -1.086
REMARK  Name = 
REMARK  7 active torsions:
REMARK  status: ('A' for Active; 'I' for Inactive)
REMARK    1  A    between atoms: C_2  and  C_20
REMARK    2  A    between atoms: N_3  and  C_4
REMARK    3  A    between atoms: C_4  and  C_5
REMARK    4  A    between atoms: C_8  and  C_9
REMARK    5  A    between atoms: C_9  and  C_10
REMARK    6  A    between atoms: C_10  and  O_11
REMARK    7  A    between atoms: C_10  and  C_12
REMARK                            x       y       z     vdW  Elec       q    Type
REMARK                         _______ _______ _______ _____ _____    ______ ____
ROOT
ATOM      1  C   UNL     1      47.118   4.927  14.636  0.00  0.00    +0.000 C 
ENDROOT
BRANCH   1   2
ATOM      2  C   UNL     1      46.302   4.656  13.400  0.00  0.00    +0.000 A 
ATOM      3  C   UNL     1      45.842   5.716  12.610  0.00  0.00    +0.000 A 
ATOM      4  C   UNL     1      45.123   5.473  11.437  0.00  0.00    +0.000 A 
ATOM      5  C   UNL     1      44.832   4.162  11.040  0.00  0.00    +0.000 A 
ATOM      6  C   UNL     1      45.260   3.101  11.850  0.00  0.00    +0.000 A 
ATOM      7  C   UNL     1      45.981   3.344  13.023  0.00  0.00    +0.000 A 
BRANCH   5   8
ATOM      8  C   UNL     1      44.079   3.889   9.755  0.00  0.00    +0.000 C 
BRANCH   8   9
ATOM      9  C   UNL     1      44.883   4.237   8.486  0.00  0.00    +0.000 C 
BRANCH   9  10
ATOM     10  C   UNL     1      45.791   3.090   8.093  0.00  0.00    +0.000 A 
ATOM     11  C   UNL     1      45.518   1.785   8.495  0.00  0.00    +0.000 A 
ATOM     12  N   UNL     1      46.291   0.728   8.144  0.00  0.00    +0.000 NA
ATOM     13  C   UNL     1      47.349   1.020   7.356  0.00  0.00    +0.000 A 
ATOM     14  C   UNL     1      47.625   2.310   6.937  0.00  0.00    +0.000 A 
ATOM     15  N   UNL     1      46.857   3.369   7.288  0.00  0.00    +0.000 NA
ENDBRANCH   9  10
BRANCH   9  16
ATOM     16  O   UNL     1      45.706   5.385   8.731  0.00  0.00    +0.000 OA
ATOM     17  H   UNL     1      46.172   5.199   9.568  0.00  0.00    +0.000 HD
ENDBRANCH   9  16
ENDBRANCH   8   9
ENDBRANCH   5   8
ENDBRANCH   1   2
BRANCH   1  20
ATOM     18  O   UNL     1      49.465   5.888  15.898  0.00  0.00    +0.000 OA
ATOM     19  C   UNL     1      48.753   6.670  15.274  0.00  0.00    +0.000 C 
ATOM     20  N   UNL     1      47.581   6.288  14.677  0.00  0.00    +0.000 N 
ATOM     21  H   UNL     1      47.122   6.925  14.037  0.00  0.00    +0.000 HD
BRANCH  19  22
ATOM     22  C   UNL     1      49.087   8.098  15.172  0.00  0.00    +0.000 A 
ATOM     23  C   UNL     1      49.269   8.853  16.323  0.00  0.00    +0.000 A 
ATOM     24  S   UNL     1      49.647  10.488  16.014  0.00  0.00    +0.000 S 
ATOM     25  C   UNL     1      49.619  10.235  14.332  0.00  0.00    +0.000 A 
ATOM     26  N   UNL     1      49.901  11.248  13.468  0.00  0.00    +0.000 NA
ATOM     27  C   UNL     1      49.879  10.908  12.221  0.00  0.00    +0.000 A 
ATOM     28  N   UNL     1      49.586   9.651  11.759  0.00  0.00    +0.000 N 
ATOM     29  C   UNL     1      49.218   8.625  12.591  0.00  0.00    +0.000 A 
ATOM     30  O   UNL     1      48.821   7.559  12.132  0.00  0.00    +0.000 OA
ATOM     31  C   UNL     1      49.287   8.934  14.008  0.00  0.00    +0.000 A 
ATOM     32  H   UNL     1      49.544   9.455  10.772  0.00  0.00    +0.000 HD
ENDBRANCH  19  22
ENDBRANCH   1  20
TORSDOF 7
ENDMDL
MODEL 4
REMARK VINA RESULT:    -7.167      2.589      3.861
REMARK INTER + INTRA:         -10.976
REMARK INTER:                 -10.113
REMARK INTRA:                  -0.863
REMARK UNBOUND:                -1.086
REMARK  Name = 
REMARK  7 active torsions:
REMARK  status: ('A' for Active; 'I' for Inactive)
REMARK    1  A    between atoms: C_2  and  C_20
REMARK    2  A    between atoms: N_3  and  C_4
REMARK    3  A    between atoms: C_4  and  C_5
REMARK    4  A    between atoms: C_8  and  C_9
REMARK    5  A    between atoms: C_9  and  C_10
REMARK    6  A    between atoms: C_10  and  O_11
REMARK    7  A    between atoms: C_10  and  C_12
REMARK                            x       y       z     vdW  Elec       q    Type
REMARK                         _______ _______ _______ _____ _____    ______ ____
ROOT
ATOM      1  C   UNL     1      47.527   4.052  15.727  0.00  0.00    +0.000 C 
ENDROOT
BRANCH   1   2
ATOM      2  C   UNL     1      46.981   4.409  14.369  0.00  0.00    +0.000 A 
ATOM      3  C   UNL     1      46.202   3.489  13.657  0.00  0.00    +0.000 A 
ATOM      4  C   UNL     1      45.655   3.826  12.416  0.00  0.00    +0.000 A 
ATOM      5  C   UNL     1      45.892   5.087  11.854  0.00  0.00    +0.000 A 
ATOM      6  C   UNL     1      46.702   5.995  12.549  0.00  0.00    +0.000 A 
ATOM      7  C   UNL     1      47.249   5.658  13.791  0.00  0.00    +0.000 A 
BRANCH   5   8
ATOM      8  C   UNL     1      45.277   5.471  10.524  0.00  0.00    +0.000 C 
BRANCH   8   9
ATOM      9  C   UNL     1      44.510   4.319   9.846  0.00  0.00    +0.000 C 
BRANCH   9  10
ATOM     10  C   UNL     1      45.403   3.575   8.874  0.00  0.00    +0.000 A 
ATOM     11  C   UNL     1      45.547   2.192   8.944  0.00  0.00    +0.000 A 
ATOM     12  N   UNL     1      46.316   1.486   8.080  0.00  0.00    +0.000 NA
ATOM     13  C   UNL     1      46.931   2.216   7.122  0.00  0.00    +0.000 A 
ATOM     14  C   UNL     1      46.786   3.589   7.032  0.00  0.00    +0.000 A 
ATOM     15  N   UNL     1      46.021   4.298   7.896  0.00  0.00    +0.000 NA
ENDBRANCH   9  10
BRANCH   9  16
ATOM     16  O   UNL     1      43.397   4.842   9.109  0.00  0.00    +0.000 OA
ATOM     17  H   UNL     1      43.679   4.839   8.175  0.00  0.00    +0.000 HD
ENDBRANCH   9  16
ENDBRANCH   8   9
ENDBRANCH   5   8
ENDBRANCH   1   2
BRANCH   1  20
ATOM     18  O   UNL     1      49.770   5.490  16.689  0.00  0.00    +0.000 OA
ATOM     19  C   UNL     1      48.640   5.852  17.006  0.00  0.00    +0.000 C 
ATOM     20  N   UNL     1      47.512   5.182  16.617  0.00  0.00    +0.000 N 
ATOM     21  H   UNL     1      46.606   5.613  16.760  0.00  0.00    +0.000 HD
BRANCH  19  22
ATOM     22  C   UNL     1      48.424   7.014  17.881  0.00  0.00    +0.000 A 
ATOM     23  C   UNL     1      48.321   6.839  19.254  0.00  0.00    +0.000 A 
ATOM     24  S   UNL     1      48.068   8.293  20.111  0.00  0.00    +0.000 S 
ATOM     25  C   UNL     1      48.127   9.212  18.680  0.00  0.00    +0.000 A 
ATOM     26  N   UNL     1      48.011  10.567  18.714  0.00  0.00    +0.000 NA
ATOM     27  C   UNL     1      48.109  11.140  17.559  0.00  0.00    +0.000 A 
ATOM     28  N   UNL     1      48.297  10.480  16.373  0.00  0.00    +0.000 N 
ATOM     29  C   UNL     1      48.337   9.112  16.287  0.00  0.00    +0.000 A 
ATOM     30  O   UNL     1      48.359   8.555  15.194  0.00  0.00    +0.000 OA
ATOM     31  C   UNL     1      48.296   8.419  17.561  0.00  0.00    +0.000 A 
ATOM     32  H   UNL     1      48.325  10.978  15.498  0.00  0.00    +0.000 HD
ENDBRANCH  19  22
ENDBRANCH   1  20
TORSDOF 7
ENDMDL
MODEL 5
REMARK VINA RESULT:    -7.076      4.794      8.828
REMARK INTER + INTRA:         -10.851
REMARK INTER:                 -10.064
REMARK INTRA:                  -0.787
REMARK UNBOUND:                -1.086
REMARK  Name = 
REMARK  7 active torsions:
REMARK  status: ('A' for Active; 'I' for Inactive)
REMARK    1  A    between atoms: C_2  and  C_20
REMARK    2  A    between atoms: N_3  and  C_4
REMARK    3  A    between atoms: C_4  and  C_5
REMARK    4  A    between atoms: C_8  and  C_9
REMARK    5  A    between atoms: C_9  and  C_10
REMARK    6  A    between atoms: C_10  and  O_11
REMARK    7  A    between atoms: C_10  and  C_12
REMARK                            x       y       z     vdW  Elec       q    Type
REMARK                         _______ _______ _______ _____ _____    ______ ____
ROOT
ATOM      1  C   UNL     1      48.825   6.210  17.099  0.00  0.00    +0.000 C 
ENDROOT
BRANCH   1   2
ATOM      2  C   UNL     1      49.580   4.917  17.256  0.00  0.00    +0.000 A 
ATOM      3  C   UNL     1      48.894   3.697  17.282  0.00  0.00    +0.000 A 
ATOM      4  C   UNL     1      49.590   2.489  17.384  0.00  0.00    +0.000 A 
ATOM      5  C   UNL     1      50.987   2.479  17.481  0.00  0.00    +0.000 A 
ATOM      6  C   UNL     1      51.671   3.702  17.492  0.00  0.00    +0.000 A 
ATOM      7  C   UNL     1      50.976   4.910  17.389  0.00  0.00    +0.000 A 
BRANCH   5   8
ATOM      8  C   UNL     1      51.750   1.173  17.560  0.00  0.00    +0.000 C 
BRANCH   8   9
ATOM      9  C   UNL     1      53.257   1.358  17.825  0.00  0.00    +0.000 C 
BRANCH   9  10
ATOM     10  C   UNL     1      54.014   0.075  17.546  0.00  0.00    +0.000 A 
ATOM     11  C   UNL     1      54.085  -0.940  18.496  0.00  0.00    +0.000 A 
ATOM     12  N   UNL     1      54.731  -2.111  18.278  0.00  0.00    +0.000 NA
ATOM     13  C   UNL     1      55.296  -2.242  17.057  0.00  0.00    +0.000 A 
ATOM     14  C   UNL     1      55.222  -1.248  16.097  0.00  0.00    +0.000 A 
ATOM     15  N   UNL     1      54.581  -0.075  16.313  0.00  0.00    +0.000 NA
ENDBRANCH   9  10
BRANCH   9  16
ATOM     16  O   UNL     1      53.472   1.704  19.199  0.00  0.00    +0.000 OA
ATOM     17  H   UNL     1      53.027   1.007  19.717  0.00  0.00    +0.000 HD
ENDBRANCH   9  16
ENDBRANCH   8   9
ENDBRANCH   5   8
ENDBRANCH   1   2
BRANCH   1  20
ATOM     18  O   UNL     1      49.510   6.705  14.394  0.00  0.00    +0.000 OA
ATOM     19  C   UNL     1      48.358   6.384  14.676  0.00  0.00    +0.000 C 
ATOM     20  N   UNL     1      47.943   6.174  15.963  0.00  0.00    +0.000 N 
ATOM     21  H   UNL     1      47.038   5.749  16.128  0.00  0.00    +0.000 HD
BRANCH  19  22
ATOM     22  C   UNL     1      47.322   6.257  13.641  0.00  0.00    +0.000 A 
ATOM     23  C   UNL     1      46.903   7.378  12.937  0.00  0.00    +0.000 A 
ATOM     24  S   UNL     1      45.694   7.044  11.779  0.00  0.00    +0.000 S 
ATOM     25  C   UNL     1      45.716   5.384  12.152  0.00  0.00    +0.000 A 
ATOM     26  N   UNL     1      44.922   4.506  11.480  0.00  0.00    +0.000 NA
ATOM     27  C   UNL     1      45.067   3.273  11.841  0.00  0.00    +0.000 A 
ATOM     28  N   UNL     1      45.922   2.841  12.821  0.00  0.00    +0.000 N 
ATOM     29  C   UNL     1      46.678   3.701  13.575  0.00  0.00    +0.000 A 
ATOM     30  O   UNL     1      47.318   3.291  14.538  0.00  0.00    +0.000 OA
ATOM     31  C   UNL     1      46.603   5.093  13.171  0.00  0.00    +0.000 A 
ATOM     32  H   UNL     1      45.962   1.870  13.086  0.00  0.00    +0.000 HD
ENDBRANCH  19  22
ENDBRANCH   1  20
TORSDOF 7
ENDMDL
MODEL 6
REMARK VINA RESULT:    -7.004      2.093      2.566
REMARK INTER + INTRA:         -10.751
REMARK INTER:                  -9.907
REMARK INTRA:                  -0.844
REMARK UNBOUND:                -1.086
REMARK  Name = 
REMARK  7 active torsions:
REMARK  status: ('A' for Active; 'I' for Inactive)
REMARK    1  A    between atoms: C_2  and  C_20
REMARK    2  A    between atoms: N_3  and  C_4
REMARK    3  A    between atoms: C_4  and  C_5
REMARK    4  A    between atoms: C_8  and  C_9
REMARK    5  A    between atoms: C_9  and  C_10
REMARK    6  A    between atoms: C_10  and  O_11
REMARK    7  A    between atoms: C_10  and  C_12
REMARK                            x       y       z     vdW  Elec       q    Type
REMARK                         _______ _______ _______ _____ _____    ______ ____
ROOT
ATOM      1  C   UNL     1      48.967   7.038  14.044  0.00  0.00    +0.000 C 
ENDROOT
BRANCH   1   2
ATOM      2  C   UNL     1      47.673   6.483  13.509  0.00  0.00    +0.000 A 
ATOM      3  C   UNL     1      46.969   7.169  12.512  0.00  0.00    +0.000 A 
ATOM      4  C   UNL     1      45.791   6.641  11.978  0.00  0.00    +0.000 A 
ATOM      5  C   UNL     1      45.282   5.423  12.446  0.00  0.00    +0.000 A 
ATOM      6  C   UNL     1      45.966   4.754  13.470  0.00  0.00    +0.000 A 
ATOM      7  C   UNL     1      47.146   5.282  14.003  0.00  0.00    +0.000 A 
BRANCH   5   8
ATOM      8  C   UNL     1      44.022   4.829  11.851  0.00  0.00    +0.000 C 
BRANCH   8   9
ATOM      9  C   UNL     1      44.189   3.365  11.397  0.00  0.00    +0.000 C 
BRANCH   9  10
ATOM     10  C   UNL     1      44.776   3.297  10.002  0.00  0.00    +0.000 A 
ATOM     11  C   UNL     1      44.944   4.447   9.235  0.00  0.00    +0.000 A 
ATOM     12  N   UNL     1      45.487   4.433   7.993  0.00  0.00    +0.000 NA
ATOM     13  C   UNL     1      45.876   3.219   7.545  0.00  0.00    +0.000 A 
ATOM     14  C   UNL     1      45.728   2.069   8.301  0.00  0.00    +0.000 A 
ATOM     15  N   UNL     1      45.183   2.079   9.541  0.00  0.00    +0.000 NA
ENDBRANCH   9  10
BRANCH   9  16
ATOM     16  O   UNL     1      42.911   2.715  11.368  0.00  0.00    +0.000 OA
ATOM     17  H   UNL     1      42.868   2.187  12.187  0.00  0.00    +0.000 HD
ENDBRANCH   9  16
ENDBRANCH   8   9
ENDBRANCH   5   8
ENDBRANCH   1   2
BRANCH   1  20
ATOM     18  O   UNL     1      50.946   6.267  15.919  0.00  0.00    +0.000 OA
ATOM     19  C   UNL     1      49.938   6.850  16.310  0.00  0.00    +0.000 C 
ATOM     20  N   UNL     1      48.920   7.212  15.471  0.00  0.00    +0.000 N 
ATOM     21  H   UNL     1      48.197   7.836  15.810  0.00  0.00    +0.000 HD
BRANCH  19  22
ATOM     22  C   UNL     1      49.731   7.152  17.734  0.00  0.00    +0.000 A 
ATOM     23  C   UNL     1      50.528   8.097  18.367  0.00  0.00    +0.000 A 
ATOM     24  S   UNL     1      50.150   8.315  20.016  0.00  0.00    +0.000 S 
ATOM     25  C   UNL     1      48.882   7.182  19.934  0.00  0.00    +0.000 A 
ATOM     26  N   UNL     1      48.110   6.916  21.022  0.00  0.00    +0.000 NA
ATOM     27  C   UNL     1      47.163   6.063  20.808  0.00  0.00    +0.000 A 
ATOM     28  N   UNL     1      46.928   5.440  19.610  0.00  0.00    +0.000 N 
ATOM     29  C   UNL     1      47.733   5.619  18.514  0.00  0.00    +0.000 A 
ATOM     30  O   UNL     1      47.579   4.934  17.507  0.00  0.00    +0.000 OA
ATOM     31  C   UNL     1      48.775   6.615  18.678  0.00  0.00    +0.000 A 
ATOM     32  H   UNL     1      46.198   4.752  19.514  0.00  0.00    +0.000 HD
ENDBRANCH  19  22
ENDBRANCH   1  20
TORSDOF 7
ENDMDL
MODEL 7
REMARK VINA RESULT:    -6.875      2.219      3.030
REMARK INTER + INTRA:         -10.573
REMARK INTER:                  -9.412
REMARK INTRA:                  -1.162
REMARK UNBOUND:                -1.086
REMARK  Name = 
REMARK  7 active torsions:
REMARK  status: ('A' for Active; 'I' for Inactive)
REMARK    1  A    between atoms: C_2  and  C_20
REMARK    2  A    between atoms: N_3  and  C_4
REMARK    3  A    between atoms: C_4  and  C_5
REMARK    4  A    between atoms: C_8  and  C_9
REMARK    5  A    between atoms: C_9  and  C_10
REMARK    6  A    between atoms: C_10  and  O_11
REMARK    7  A    between atoms: C_10  and  C_12
REMARK                            x       y       z     vdW  Elec       q    Type
REMARK                         _______ _______ _______ _____ _____    ______ ____
ROOT
ATOM      1  C   UNL     1      49.202   8.156  13.842  0.00  0.00    +0.000 C 
ENDROOT
BRANCH   1   2
ATOM      2  C   UNL     1      47.897   7.942  13.122  0.00  0.00    +0.000 A 
ATOM      3  C   UNL     1      47.779   6.933  12.158  0.00  0.00    +0.000 A 
ATOM      4  C   UNL     1      46.560   6.699  11.517  0.00  0.00    +0.000 A 
ATOM      5  C   UNL     1      45.438   7.482  11.814  0.00  0.00    +0.000 A 
ATOM      6  C   UNL     1      45.565   8.515  12.752  0.00  0.00    +0.000 A 
ATOM      7  C   UNL     1      46.784   8.750  13.394  0.00  0.00    +0.000 A 
BRANCH   5   8
ATOM      8  C   UNL     1      44.105   7.214  11.145  0.00  0.00    +0.000 C 
BRANCH   8   9
ATOM      9  C   UNL     1      43.342   6.021  11.754  0.00  0.00    +0.000 C 
BRANCH   9  10
ATOM     10  C   UNL     1      43.677   4.737  11.021  0.00  0.00    +0.000 A 
ATOM     11  C   UNL     1      43.347   3.496  11.559  0.00  0.00    +0.000 A 
ATOM     12  N   UNL     1      43.606   2.326  10.925  0.00  0.00    +0.000 NA
ATOM     13  C   UNL     1      44.198   2.441   9.716  0.00  0.00    +0.000 A 
ATOM     14  C   UNL     1      44.519   3.668   9.163  0.00  0.00    +0.000 A 
ATOM     15  N   UNL     1      44.264   4.839   9.794  0.00  0.00    +0.000 NA
ENDBRANCH   9  10
BRANCH   9  16
ATOM     16  O   UNL     1      41.930   6.236  11.640  0.00  0.00    +0.000 OA
ATOM     17  H   UNL     1      41.517   5.584  12.236  0.00  0.00    +0.000 HD
ENDBRANCH   9  16
ENDBRANCH   8   9
ENDBRANCH   5   8
ENDBRANCH   1   2
BRANCH   1  20
ATOM     18  O   UNL     1      48.480   8.661  16.534  0.00  0.00    +0.000 OA
ATOM     19  C   UNL     1      48.933   7.562  16.228  0.00  0.00    +0.000 C 
ATOM     20  N   UNL     1      49.345   7.259  14.958  0.00  0.00    +0.000 N 
ATOM     21  H   UNL     1      49.549   6.296  14.720  0.00  0.00    +0.000 HD
BRANCH  19  22
ATOM     22  C   UNL     1      49.116   6.500  17.229  0.00  0.00    +0.000 A 
ATOM     23  C   UNL     1      49.880   6.740  18.363  0.00  0.00    +0.000 A 
ATOM     24  S   UNL     1      49.986   5.397  19.411  0.00  0.00    +0.000 S 
ATOM     25  C   UNL     1      48.982   4.461  18.405  0.00  0.00    +0.000 A 
ATOM     26  N   UNL     1      48.637   3.191  18.748  0.00  0.00    +0.000 NA
ATOM     27  C   UNL     1      47.842   2.609  17.911  0.00  0.00    +0.000 A 
ATOM     28  N   UNL     1      47.373   3.177  16.755  0.00  0.00    +0.000 N 
ATOM     29  C   UNL     1      47.761   4.423  16.334  0.00  0.00    +0.000 A 
ATOM     30  O   UNL     1      47.437   4.837  15.225  0.00  0.00    +0.000 OA
ATOM     31  C   UNL     1      48.604   5.148  17.267  0.00  0.00    +0.000 A 
ATOM     32  H   UNL     1      46.787   2.659  16.121  0.00  0.00    +0.000 HD
ENDBRANCH  19  22
ENDBRANCH   1  20
TORSDOF 7
ENDMDL
MODEL 8
REMARK VINA RESULT:    -6.855      4.327      9.714
REMARK INTER + INTRA:         -10.545
REMARK INTER:                  -9.872
REMARK INTRA:                  -0.674
REMARK UNBOUND:                -1.086
REMARK  Name = 
REMARK  7 active torsions:
REMARK  status: ('A' for Active; 'I' for Inactive)
REMARK    1  A    between atoms: C_2  and  C_20
REMARK    2  A    between atoms: N_3  and  C_4
REMARK    3  A    between atoms: C_4  and  C_5
REMARK    4  A    between atoms: C_8  and  C_9
REMARK    5  A    between atoms: C_9  and  C_10
REMARK    6  A    between atoms: C_10  and  O_11
REMARK    7  A    between atoms: C_10  and  C_12
REMARK                            x       y       z     vdW  Elec       q    Type
REMARK                         _______ _______ _______ _____ _____    ______ ____
ROOT
ATOM      1  C   UNL     1      47.194   3.538  16.792  0.00  0.00    +0.000 C 
ENDROOT
BRANCH   1   2
ATOM      2  C   UNL     1      48.663   3.655  17.101  0.00  0.00    +0.000 A 
ATOM      3  C   UNL     1      49.456   2.505  17.206  0.00  0.00    +0.000 A 
ATOM      4  C   UNL     1      50.829   2.605  17.448  0.00  0.00    +0.000 A 
ATOM      5  C   UNL     1      51.433   3.858  17.608  0.00  0.00    +0.000 A 
ATOM      6  C   UNL     1      50.634   5.007  17.539  0.00  0.00    +0.000 A 
ATOM      7  C   UNL     1      49.260   4.908  17.296  0.00  0.00    +0.000 A 
BRANCH   5   8
ATOM      8  C   UNL     1      52.925   3.976  17.840  0.00  0.00    +0.000 C 
BRANCH   8   9
ATOM      9  C   UNL     1      53.323   3.904  19.328  0.00  0.00    +0.000 C 
BRANCH   9  10
ATOM     10  C   UNL     1      54.096   2.633  19.617  0.00  0.00    +0.000 A 
ATOM     11  C   UNL     1      54.314   1.682  18.624  0.00  0.00    +0.000 A 
ATOM     12  N   UNL     1      55.021   0.544  18.835  0.00  0.00    +0.000 NA
ATOM     13  C   UNL     1      55.521   0.396  20.082  0.00  0.00    +0.000 A 
ATOM     14  C   UNL     1      55.325   1.340  21.075  0.00  0.00    +0.000 A 
ATOM     15  N   UNL     1      54.617   2.476  20.869  0.00  0.00    +0.000 NA
ENDBRANCH   9  10
BRANCH   9  16
ATOM     16  O   UNL     1      52.147   3.899  20.147  0.00  0.00    +0.000 OA
ATOM     17  H   UNL     1      51.900   4.836  20.255  0.00  0.00    +0.000 HD
ENDBRANCH   9  16
ENDBRANCH   8   9
ENDBRANCH   5   8
ENDBRANCH   1   2
BRANCH   1  20
ATOM     18  O   UNL     1      47.266   3.155  13.986  0.00  0.00    +0.000 OA
ATOM     19  C   UNL     1      46.813   4.202  14.441  0.00  0.00    +0.000 C 
ATOM     20  N   UNL     1      46.788   4.477  15.782  0.00  0.00    +0.000 N 
ATOM     21  H   UNL     1      46.254   5.272  16.113  0.00  0.00    +0.000 HD
BRANCH  19  22
ATOM     22  C   UNL     1      46.313   5.268  13.560  0.00  0.00    +0.000 A 
ATOM     23  C   UNL     1      47.121   6.355  13.257  0.00  0.00    +0.000 A 
ATOM     24  S   UNL     1      46.376   7.493  12.226  0.00  0.00    +0.000 S 
ATOM     25  C   UNL     1      44.962   6.553  12.117  0.00  0.00    +0.000 A 
ATOM     26  N   UNL     1      43.916   6.951  11.343  0.00  0.00    +0.000 NA
ATOM     27  C   UNL     1      42.922   6.125  11.324  0.00  0.00    +0.000 A 
ATOM     28  N   UNL     1      42.872   4.946  12.022  0.00  0.00    +0.000 N 
ATOM     29  C   UNL     1      43.869   4.550  12.876  0.00  0.00    +0.000 A 
ATOM     30  O   UNL     1      43.724   3.565  13.593  0.00  0.00    +0.000 OA
ATOM     31  C   UNL     1      45.040   5.409  12.887  0.00  0.00    +0.000 A 
ATOM     32  H   UNL     1      42.052   4.361  12.000  0.00  0.00    +0.000 HD
ENDBRANCH  19  22
ENDBRANCH   1  20
TORSDOF 7
ENDMDL
MODEL 9
REMARK VINA RESULT:    -6.778      3.234      7.856
REMARK INTER + INTRA:         -10.440
REMARK INTER:                  -9.547
REMARK INTRA:                  -0.893
REMARK UNBOUND:                -1.086
REMARK  Name = 
REMARK  7 active torsions:
REMARK  status: ('A' for Active; 'I' for Inactive)
REMARK    1  A    between atoms: C_2  and  C_20
REMARK    2  A    between atoms: N_3  and  C_4
REMARK    3  A    between atoms: C_4  and  C_5
REMARK    4  A    between atoms: C_8  and  C_9
REMARK    5  A    between atoms: C_9  and  C_10
REMARK    6  A    between atoms: C_10  and  O_11
REMARK    7  A    between atoms: C_10  and  C_12
REMARK                            x       y       z     vdW  Elec       q    Type
REMARK                         _______ _______ _______ _____ _____    ______ ____
ROOT
ATOM      1  C   UNL     1      47.788   8.394  12.359  0.00  0.00    +0.000 C 
ENDROOT
BRANCH   1   2
ATOM      2  C   UNL     1      48.266   8.131  13.762  0.00  0.00    +0.000 A 
ATOM      3  C   UNL     1      48.000   9.052  14.783  0.00  0.00    +0.000 A 
ATOM      4  C   UNL     1      48.401   8.795  16.097  0.00  0.00    +0.000 A 
ATOM      5  C   UNL     1      49.093   7.620  16.413  0.00  0.00    +0.000 A 
ATOM      6  C   UNL     1      49.392   6.716  15.385  0.00  0.00    +0.000 A 
ATOM      7  C   UNL     1      48.990   6.971  14.070  0.00  0.00    +0.000 A 
BRANCH   5   8
ATOM      8  C   UNL     1      49.504   7.321  17.840  0.00  0.00    +0.000 C 
BRANCH   8   9
ATOM      9  C   UNL     1      48.432   6.554  18.639  0.00  0.00    +0.000 C 
BRANCH   9  10
ATOM     10  C   UNL     1      48.285   5.138  18.122  0.00  0.00    +0.000 A 
ATOM     11  C   UNL     1      47.057   4.662  17.668  0.00  0.00    +0.000 A 
ATOM     12  N   UNL     1      46.888   3.411  17.175  0.00  0.00    +0.000 NA
ATOM     13  C   UNL     1      48.003   2.648  17.136  0.00  0.00    +0.000 A 
ATOM     14  C   UNL     1      49.232   3.112  17.570  0.00  0.00    +0.000 A 
ATOM     15  N   UNL     1      49.405   4.360  18.066  0.00  0.00    +0.000 NA
ENDBRANCH   9  10
BRANCH   9  16
ATOM     16  O   UNL     1      47.163   7.206  18.502  0.00  0.00    +0.000 OA
ATOM     17  H   UNL     1      47.332   7.995  17.953  0.00  0.00    +0.000 HD
ENDBRANCH   9  16
ENDBRANCH   8   9
ENDBRANCH   5   8
ENDBRANCH   1   2
BRANCH   1  20
ATOM     18  O   UNL     1      45.048   8.030  11.734  0.00  0.00    +0.000 OA
ATOM     19  C   UNL     1      45.852   7.141  11.465  0.00  0.00    +0.000 C 
ATOM     20  N   UNL     1      47.182   7.226  11.777  0.00  0.00    +0.000 N 
ATOM     21  H   UNL     1      47.826   6.550  11.386  0.00  0.00    +0.000 HD
BRANCH  19  22
ATOM     22  C   UNL     1      45.423   5.886  10.830  0.00  0.00    +0.000 A 
ATOM     23  C   UNL     1      45.782   5.614   9.518  0.00  0.00    +0.000 A 
ATOM     24  S   UNL     1      45.195   4.117   8.946  0.00  0.00    +0.000 S 
ATOM     25  C   UNL     1      44.472   3.763  10.445  0.00  0.00    +0.000 A 
ATOM     26  N   UNL     1      43.819   2.587  10.646  0.00  0.00    +0.000 NA
ATOM     27  C   UNL     1      43.349   2.435  11.841  0.00  0.00    +0.000 A 
ATOM     28  N   UNL     1      43.461   3.359  12.847  0.00  0.00    +0.000 N 
ATOM     29  C   UNL     1      44.039   4.588  12.662  0.00  0.00    +0.000 A 
ATOM     30  O   UNL     1      43.989   5.442  13.541  0.00  0.00    +0.000 OA
ATOM     31  C   UNL     1      44.641   4.789  11.356  0.00  0.00    +0.000 A 
ATOM     32  H   UNL     1      43.039   3.202  13.749  0.00  0.00    +0.000 HD
ENDBRANCH  19  22
ENDBRANCH   1  20
TORSDOF 7
ENDMDL
