MODEL 1
REMARK VINA RESULT:    -8.828      0.000      0.000
REMARK INTER + INTRA:         -12.672
REMARK INTER:                 -11.925
REMARK INTRA:                  -0.748
REMARK UNBOUND:                -0.748
REMARK  Name = 
REMARK  6 active torsions:
REMARK  status: ('A' for Active; 'I' for Inactive)
REMARK    1  A    between atoms: C_2  and  C_4
REMARK    2  A    between atoms: N_8  and  C_9
REMARK    3  A    between atoms: C_9  and  C_10
REMARK    4  A    between atoms: C_10  and  C_11
REMARK    5  A    between atoms: C_15  and  O_16
REMARK    6  A    between atoms: O_16  and  C_17
REMARK                            x       y       z     vdW  Elec       q    Type
REMARK                         _______ _______ _______ _____ _____    ______ ____
ROOT
ATOM      1  C   UNL     1      43.363   4.512  11.204  0.00  0.00    +0.000 C 
ENDROOT
BRANCH   1   6
ATOM      2  C   UNL     1      46.448   2.482   7.718  0.00  0.00    +0.000 A 
ATOM      3  C   UNL     1      45.629   1.846   8.643  0.00  0.00    +0.000 A 
ATOM      4  C   UNL     1      44.717   2.605   9.378  0.00  0.00    +0.000 A 
ATOM      5  C   UNL     1      44.651   3.983   9.188  0.00  0.00    +0.000 A 
ATOM      6  N   UNL     1      43.719   4.791   9.819  0.00  0.00    +0.000 N 
ATOM      7  N   UNL     1      45.459   4.611   8.314  0.00  0.00    +0.000 NA
ATOM      8  C   UNL     1      46.341   3.858   7.602  0.00  0.00    +0.000 A 
ATOM      9  H   UNL     1      43.985   5.753   9.615  0.00  0.00    +0.000 HD
BRANCH   2  11
ATOM     10  N   UNL     1      48.497   2.455   6.413  0.00  0.00    +0.000 N 
ATOM     11  C   UNL     1      47.414   1.756   6.867  0.00  0.00    +0.000 C 
ATOM     12  O   UNL     1      47.273   0.569   6.608  0.00  0.00    +0.000 OA
ATOM     13  H   UNL     1      49.205   1.918   5.925  0.00  0.00    +0.000 HD
ATOM     14  H   UNL     1      48.779   3.341   6.809  0.00  0.00    +0.000 HD
ENDBRANCH   2  11
ENDBRANCH   1   6
BRANCH   1  15
ATOM     15  C   UNL     1      43.683   5.721  12.092  0.00  0.00    +0.000 C 
BRANCH  15  16
ATOM     16  C   UNL     1      45.158   5.801  12.408  0.00  0.00    +0.000 A 
ATOM     17  C   UNL     1      45.957   6.789  11.821  0.00  0.00    +0.000 A 
ATOM     18  C   UNL     1      47.310   6.890  12.151  0.00  0.00    +0.000 A 
ATOM     19  C   UNL     1      47.884   6.004  13.069  0.00  0.00    +0.000 A 
ATOM     20  C   UNL     1      47.098   5.012  13.651  0.00  0.00    +0.000 A 
ATOM     21  C   UNL     1      45.741   4.920  13.330  0.00  0.00    +0.000 A 
BRANCH  20  22
ATOM     22  O   UNL     1      47.543   4.108  14.582  0.00  0.00    +0.000 OA
BRANCH  22  23
ATOM     23  C   UNL     1      47.296   4.366  15.984  0.00  0.00    +0.000 C 
ATOM     24  C   UNL     1      48.350   5.175  16.766  0.00  0.00    +0.000 C 
ATOM     25  N   UNL     1      48.423   4.122  17.791  0.00  0.00    +0.000 NA
ATOM     26  C   UNL     1      47.665   3.204  16.928  0.00  0.00    +0.000 C 
ATOM     27  H   UNL     1      47.952   4.354  18.664  0.00  0.00    +0.000 HD
ENDBRANCH  22  23
ENDBRANCH  20  22
ENDBRANCH  15  16
ENDBRANCH   1  15
TORSDOF 6
ENDMDL
MODEL 2
REMARK VINA RESULT:    -8.104      2.292      3.309
REMARK INTER + INTRA:         -11.695
REMARK INTER:                 -10.895
REMARK INTRA:                  -0.800
REMARK UNBOUND:                -0.748
REMARK  Name = 
REMARK  6 active torsions:
REMARK  status: ('A' for Active; 'I' for Inactive)
REMARK    1  A    between atoms: C_2  and  C_4
REMARK    2  A    between atoms: N_8  and  C_9
REMARK    3  A    between atoms: C_9  and  C_10
REMARK    4  A    between atoms: C_10  and  C_11
REMARK    5  A    between atoms: C_15  and  O_16
REMARK    6  A    between atoms: O_16  and  C_17
REMARK                            x       y       z     vdW  Elec       q    Type
REMARK                         _______ _______ _______ _____ _____    ______ ____
ROOT
ATOM      1  C   UNL     1      43.304   4.597  11.091  0.00  0.00    +0.000 C 
ENDROOT
BRANCH   1   6
ATOM      2  C   UNL     1      46.458   2.473   7.725  0.00  0.00    +0.000 A 
ATOM      3  C   UNL     1      45.578   1.863   8.611  0.00  0.00    +0.000 A 
ATOM      4  C   UNL     1      44.664   2.651   9.312  0.00  0.00    +0.000 A 
ATOM      5  C   UNL     1      44.656   4.031   9.128  0.00  0.00    +0.000 A 
ATOM      6  N   UNL     1      43.728   4.870   9.723  0.00  0.00    +0.000 N 
ATOM      7  N   UNL     1      45.522   4.634   8.291  0.00  0.00    +0.000 NA
ATOM      8  C   UNL     1      46.406   3.852   7.613  0.00  0.00    +0.000 A 
ATOM      9  H   UNL     1      44.037   5.822   9.536  0.00  0.00    +0.000 HD
BRANCH   2  11
ATOM     10  N   UNL     1      48.541   2.388   6.477  0.00  0.00    +0.000 N 
ATOM     11  C   UNL     1      47.432   1.716   6.911  0.00  0.00    +0.000 C 
ATOM     12  O   UNL     1      47.276   0.528   6.666  0.00  0.00    +0.000 OA
ATOM     13  H   UNL     1      49.251   1.830   6.017  0.00  0.00    +0.000 HD
ATOM     14  H   UNL     1      48.829   3.274   6.868  0.00  0.00    +0.000 HD
ENDBRANCH   2  11
ENDBRANCH   1   6
BRANCH   1  15
ATOM     15  C   UNL     1      43.533   5.829  11.977  0.00  0.00    +0.000 C 
BRANCH  15  16
ATOM     16  C   UNL     1      44.896   5.797  12.627  0.00  0.00    +0.000 A 
ATOM     17  C   UNL     1      45.422   4.596  13.117  0.00  0.00    +0.000 A 
ATOM     18  C   UNL     1      46.701   4.561  13.675  0.00  0.00    +0.000 A 
ATOM     19  C   UNL     1      47.472   5.727  13.756  0.00  0.00    +0.000 A 
ATOM     20  C   UNL     1      46.952   6.928  13.280  0.00  0.00    +0.000 A 
ATOM     21  C   UNL     1      45.676   6.959  12.709  0.00  0.00    +0.000 A 
BRANCH  20  22
ATOM     22  O   UNL     1      47.623   8.125  13.281  0.00  0.00    +0.000 OA
BRANCH  22  23
ATOM     23  C   UNL     1      48.185   8.615  12.041  0.00  0.00    +0.000 C 
ATOM     24  C   UNL     1      49.460   7.933  11.505  0.00  0.00    +0.000 C 
ATOM     25  N   UNL     1      50.133   9.236  11.400  0.00  0.00    +0.000 NA
ATOM     26  C   UNL     1      49.064   9.873  12.183  0.00  0.00    +0.000 C 
ATOM     27  H   UNL     1      50.217   9.590  10.448  0.00  0.00    +0.000 HD
ENDBRANCH  22  23
ENDBRANCH  20  22
ENDBRANCH  15  16
ENDBRANCH   1  15
TORSDOF 6
ENDMDL
MODEL 3
REMARK VINA RESULT:    -7.432      2.123      8.099
REMARK INTER + INTRA:         -10.787
REMARK INTER:                 -10.247
REMARK INTRA:                  -0.540
REMARK UNBOUND:                -0.748
REMARK  Name = 
REMARK  6 active torsions:
REMARK  status: ('A' for Active; 'I' for Inactive)
REMARK    1  A    between atoms: C_2  and  C_4
REMARK    2  A    between atoms: N_8  and  C_9
REMARK    3  A    between atoms: C_9  and  C_10
REMARK    4  A    between atoms: C_10  and  C_11
REMARK    5  A    between atoms: C_15  and  O_16
REMARK    6  A    between atoms: O_16  and  C_17
REMARK                            x       y       z     vdW  Elec       q    Type
REMARK                         _______ _______ _______ _____ _____    ______ ____
ROOT
ATOM      1  C   UNL     1      45.509   6.059  12.750  0.00  0.00    +0.000 C 
ENDROOT
BRANCH   1   6
ATOM      2  C   UNL     1      48.390   4.528  16.642  0.00  0.00    +0.000 A 
ATOM      3  C   UNL     1      47.340   3.868  16.013  0.00  0.00    +0.000 A 
ATOM      4  C   UNL     1      46.814   4.399  14.834  0.00  0.00    +0.000 A 
ATOM      5  C   UNL     1      47.333   5.582  14.315  0.00  0.00    +0.000 A 
ATOM      6  N   UNL     1      46.920   6.127  13.110  0.00  0.00    +0.000 N 
ATOM      7  N   UNL     1      48.331   6.241  14.931  0.00  0.00    +0.000 NA
ATOM      8  C   UNL     1      48.836   5.712  16.079  0.00  0.00    +0.000 A 
ATOM      9  H   UNL     1      47.350   7.047  13.045  0.00  0.00    +0.000 HD
BRANCH   2  11
ATOM     10  N   UNL     1      48.219   3.529  18.850  0.00  0.00    +0.000 N 
ATOM     11  C   UNL     1      49.036   4.020  17.870  0.00  0.00    +0.000 C 
ATOM     12  O   UNL     1      50.253   4.004  17.995  0.00  0.00    +0.000 OA
ATOM     13  H   UNL     1      48.679   3.084  19.635  0.00  0.00    +0.000 HD
ATOM     14  H   UNL     1      47.252   3.289  18.682  0.00  0.00    +0.000 HD
ENDBRANCH   2  11
ENDBRANCH   1   6
BRANCH   1  15
ATOM     15  C   UNL     1      45.323   6.367  11.259  0.00  0.00    +0.000 C 
BRANCH  15  16
ATOM     16  C   UNL     1      45.178   5.102  10.445  0.00  0.00    +0.000 A 
ATOM     17  C   UNL     1      44.434   4.023  10.936  0.00  0.00    +0.000 A 
ATOM     18  C   UNL     1      44.263   2.874  10.163  0.00  0.00    +0.000 A 
ATOM     19  C   UNL     1      44.836   2.784   8.889  0.00  0.00    +0.000 A 
ATOM     20  C   UNL     1      45.586   3.850   8.396  0.00  0.00    +0.000 A 
ATOM     21  C   UNL     1      45.745   5.005   9.167  0.00  0.00    +0.000 A 
BRANCH  20  22
ATOM     22  O   UNL     1      46.169   3.887   7.156  0.00  0.00    +0.000 OA
BRANCH  22  23
ATOM     23  C   UNL     1      46.564   2.645   6.528  0.00  0.00    +0.000 C 
ATOM     24  C   UNL     1      47.889   1.997   6.978  0.00  0.00    +0.000 C 
ATOM     25  N   UNL     1      48.347   1.924   5.582  0.00  0.00    +0.000 NA
ATOM     26  C   UNL     1      47.249   2.804   5.156  0.00  0.00    +0.000 C 
ATOM     27  H   UNL     1      48.311   0.989   5.177  0.00  0.00    +0.000 HD
ENDBRANCH  22  23
ENDBRANCH  20  22
ENDBRANCH  15  16
ENDBRANCH   1  15
TORSDOF 6
ENDMDL
MODEL 4
REMARK VINA RESULT:    -6.999      3.079      3.745
REMARK INTER + INTRA:         -10.202
REMARK INTER:                  -9.583
REMARK INTRA:                  -0.619
REMARK UNBOUND:                -0.748
REMARK  Name = 
REMARK  6 active torsions:
REMARK  status: ('A' for Active; 'I' for Inactive)
REMARK    1  A    between atoms: C_2  and  C_4
REMARK    2  A    between atoms: N_8  and  C_9
REMARK    3  A    between atoms: C_9  and  C_10
REMARK    4  A    between atoms: C_10  and  C_11
REMARK    5  A    between atoms: C_15  and  O_16
REMARK    6  A    between atoms: O_16  and  C_17
REMARK                            x       y       z     vdW  Elec       q    Type
REMARK                         _______ _______ _______ _____ _____    ______ ____
ROOT
ATOM      1  C   UNL     1      43.687   5.117  11.252  0.00  0.00    +0.000 C 
ENDROOT
BRANCH   1   6
ATOM      2  C   UNL     1      46.256   2.154   8.025  0.00  0.00    +0.000 A 
ATOM      3  C   UNL     1      45.365   1.793   9.030  0.00  0.00    +0.000 A 
ATOM      4  C   UNL     1      44.625   2.788   9.670  0.00  0.00    +0.000 A 
ATOM      5  C   UNL     1      44.799   4.121   9.309  0.00  0.00    +0.000 A 
ATOM      6  N   UNL     1      44.044   5.155   9.840  0.00  0.00    +0.000 N 
ATOM      7  N   UNL     1      45.677   4.482   8.355  0.00  0.00    +0.000 NA
ATOM      8  C   UNL     1      46.390   3.501   7.737  0.00  0.00    +0.000 A 
ATOM      9  H   UNL     1      44.470   6.021   9.513  0.00  0.00    +0.000 HD
BRANCH   2  11
ATOM     10  N   UNL     1      46.804  -0.156   7.509  0.00  0.00    +0.000 N 
ATOM     11  C   UNL     1      47.051   1.166   7.265  0.00  0.00    +0.000 C 
ATOM     12  O   UNL     1      47.870   1.513   6.426  0.00  0.00    +0.000 OA
ATOM     13  H   UNL     1      47.275  -0.818   6.903  0.00  0.00    +0.000 HD
ATOM     14  H   UNL     1      45.975  -0.476   7.989  0.00  0.00    +0.000 HD
ENDBRANCH   2  11
ENDBRANCH   1   6
BRANCH   1  15
ATOM     15  C   UNL     1      44.950   5.131  12.123  0.00  0.00    +0.000 C 
BRANCH  15  16
ATOM     16  C   UNL     1      45.613   6.488  12.115  0.00  0.00    +0.000 A 
ATOM     17  C   UNL     1      44.910   7.625  12.530  0.00  0.00    +0.000 A 
ATOM     18  C   UNL     1      45.540   8.870  12.566  0.00  0.00    +0.000 A 
ATOM     19  C   UNL     1      46.881   8.998  12.185  0.00  0.00    +0.000 A 
ATOM     20  C   UNL     1      47.585   7.873  11.763  0.00  0.00    +0.000 A 
ATOM     21  C   UNL     1      46.957   6.624  11.739  0.00  0.00    +0.000 A 
BRANCH  20  22
ATOM     22  O   UNL     1      48.907   7.871  11.394  0.00  0.00    +0.000 OA
BRANCH  22  23
ATOM     23  C   UNL     1      49.819   8.781  12.050  0.00  0.00    +0.000 C 
ATOM     24  C   UNL     1      50.387   9.955  11.227  0.00  0.00    +0.000 C 
ATOM     25  N   UNL     1      51.759   9.573  11.597  0.00  0.00    +0.000 NA
ATOM     26  C   UNL     1      51.278   8.289  12.127  0.00  0.00    +0.000 C 
ATOM     27  H   UNL     1      52.188  10.177  12.297  0.00  0.00    +0.000 HD
ENDBRANCH  22  23
ENDBRANCH  20  22
ENDBRANCH  15  16
ENDBRANCH   1  15
TORSDOF 6
ENDMDL
MODEL 5
REMARK VINA RESULT:    -6.833      3.213      7.536
REMARK INTER + INTRA:          -9.978
REMARK INTER:                  -9.396
REMARK INTRA:                  -0.581
REMARK UNBOUND:                -0.748
REMARK  Name = 
REMARK  6 active torsions:
REMARK  status: ('A' for Active; 'I' for Inactive)
REMARK    1  A    between atoms: C_2  and  C_4
REMARK    2  A    between atoms: N_8  and  C_9
REMARK    3  A    between atoms: C_9  and  C_10
REMARK    4  A    between atoms: C_10  and  C_11
REMARK    5  A    between atoms: C_15  and  O_16
REMARK    6  A    between atoms: O_16  and  C_17
REMARK                            x       y       z     vdW  Elec       q    Type
REMARK                         _______ _______ _______ _____ _____    ______ ____
ROOT
ATOM      1  C   UNL     1      44.855   5.933  12.688  0.00  0.00    +0.000 C 
ENDROOT
BRANCH   1   6
ATOM      2  C   UNL     1      49.324   8.343  12.565  0.00  0.00    +0.000 A 
ATOM      3  C   UNL     1      48.758   7.492  11.622  0.00  0.00    +0.000 A 
ATOM      4  C   UNL     1      47.429   7.094  11.778  0.00  0.00    +0.000 A 
ATOM      5  C   UNL     1      46.697   7.537  12.875  0.00  0.00    +0.000 A 
ATOM      6  N   UNL     1      45.353   7.252  13.056  0.00  0.00    +0.000 N 
ATOM      7  N   UNL     1      47.244   8.341  13.807  0.00  0.00    +0.000 NA
ATOM      8  C   UNL     1      48.540   8.723  13.641  0.00  0.00    +0.000 A 
ATOM      9  H   UNL     1      45.113   7.572  13.993  0.00  0.00    +0.000 HD
BRANCH   2  11
ATOM     10  N   UNL     1      51.645   8.004  11.933  0.00  0.00    +0.000 N 
ATOM     11  C   UNL     1      50.708   8.849  12.461  0.00  0.00    +0.000 C 
ATOM     12  O   UNL     1      51.002   9.987  12.798  0.00  0.00    +0.000 OA
ATOM     13  H   UNL     1      52.562   8.401  11.766  0.00  0.00    +0.000 HD
ATOM     14  H   UNL     1      51.397   7.173  11.414  0.00  0.00    +0.000 HD
ENDBRANCH   2  11
ENDBRANCH   1   6
BRANCH   1  15
ATOM     15  C   UNL     1      44.196   5.979  11.303  0.00  0.00    +0.000 C 
BRANCH  15  16
ATOM     16  C   UNL     1      44.490   4.729  10.508  0.00  0.00    +0.000 A 
ATOM     17  C   UNL     1      43.983   3.490  10.917  0.00  0.00    +0.000 A 
ATOM     18  C   UNL     1      44.218   2.345  10.155  0.00  0.00    +0.000 A 
ATOM     19  C   UNL     1      44.966   2.419   8.974  0.00  0.00    +0.000 A 
ATOM     20  C   UNL     1      45.483   3.646   8.565  0.00  0.00    +0.000 A 
ATOM     21  C   UNL     1      45.236   4.795   9.322  0.00  0.00    +0.000 A 
BRANCH  20  22
ATOM     22  O   UNL     1      46.205   3.846   7.415  0.00  0.00    +0.000 OA
BRANCH  22  23
ATOM     23  C   UNL     1      46.606   2.699   6.631  0.00  0.00    +0.000 C 
ATOM     24  C   UNL     1      47.986   2.074   6.918  0.00  0.00    +0.000 C 
ATOM     25  N   UNL     1      48.346   2.172   5.495  0.00  0.00    +0.000 NA
ATOM     26  C   UNL     1      47.184   3.037   5.242  0.00  0.00    +0.000 C 
ATOM     27  H   UNL     1      48.321   1.286   4.994  0.00  0.00    +0.000 HD
ENDBRANCH  22  23
ENDBRANCH  20  22
ENDBRANCH  15  16
ENDBRANCH   1  15
TORSDOF 6
ENDMDL
MODEL 6
REMARK VINA RESULT:    -6.598      2.340      8.595
REMARK INTER + INTRA:          -9.659
REMARK INTER:                  -9.241
REMARK INTRA:                  -0.419
REMARK UNBOUND:                -0.748
REMARK  Name = 
REMARK  6 active torsions:
REMARK  status: ('A' for Active; 'I' for Inactive)
REMARK    1  A    between atoms: C_2  and  C_4
REMARK    2  A    between atoms: N_8  and  C_9
REMARK    3  A    between atoms: C_9  and  C_10
REMARK    4  A    between atoms: C_10  and  C_11
REMARK    5  A    between atoms: C_15  and  O_16
REMARK    6  A    between atoms: O_16  and  C_17
REMARK                            x       y       z     vdW  Elec       q    Type
REMARK                         _______ _______ _______ _____ _____    ______ ____
ROOT
ATOM      1  C   UNL     1      47.109   4.901  13.711  0.00  0.00    +0.000 C 
ENDROOT
BRANCH   1   6
ATOM      2  C   UNL     1      48.672   4.426  18.520  0.00  0.00    +0.000 A 
ATOM      3  C   UNL     1      48.837   5.493  17.643  0.00  0.00    +0.000 A 
ATOM      4  C   UNL     1      48.154   5.483  16.426  0.00  0.00    +0.000 A 
ATOM      5  C   UNL     1      47.335   4.406  16.099  0.00  0.00    +0.000 A 
ATOM      6  N   UNL     1      46.564   4.361  14.949  0.00  0.00    +0.000 N 
ATOM      7  N   UNL     1      47.190   3.356  16.930  0.00  0.00    +0.000 NA
ATOM      8  C   UNL     1      47.860   3.380  18.115  0.00  0.00    +0.000 A 
ATOM      9  H   UNL     1      46.184   3.418  14.892  0.00  0.00    +0.000 HD
BRANCH   2  11
ATOM     10  N   UNL     1      50.688   4.419  19.876  0.00  0.00    +0.000 N 
ATOM     11  C   UNL     1      49.322   4.369  19.846  0.00  0.00    +0.000 C 
ATOM     12  O   UNL     1      48.668   4.316  20.878  0.00  0.00    +0.000 OA
ATOM     13  H   UNL     1      51.113   4.490  20.792  0.00  0.00    +0.000 HD
ATOM     14  H   UNL     1      51.239   4.718  19.084  0.00  0.00    +0.000 HD
ENDBRANCH   2  11
ENDBRANCH   1   6
BRANCH   1  15
ATOM     15  C   UNL     1      46.161   5.955  13.124  0.00  0.00    +0.000 C 
BRANCH  15  16
ATOM     16  C   UNL     1      45.312   5.380  12.014  0.00  0.00    +0.000 A 
ATOM     17  C   UNL     1      43.986   5.004  12.255  0.00  0.00    +0.000 A 
ATOM     18  C   UNL     1      43.191   4.517  11.217  0.00  0.00    +0.000 A 
ATOM     19  C   UNL     1      43.710   4.395   9.923  0.00  0.00    +0.000 A 
ATOM     20  C   UNL     1      45.032   4.758   9.676  0.00  0.00    +0.000 A 
ATOM     21  C   UNL     1      45.823   5.258  10.714  0.00  0.00    +0.000 A 
BRANCH  20  22
ATOM     22  O   UNL     1      45.639   4.709   8.447  0.00  0.00    +0.000 OA
BRANCH  22  23
ATOM     23  C   UNL     1      45.606   3.472   7.698  0.00  0.00    +0.000 C 
ATOM     24  C   UNL     1      45.898   2.160   8.454  0.00  0.00    +0.000 C 
ATOM     25  N   UNL     1      46.930   1.802   7.469  0.00  0.00    +0.000 NA
ATOM     26  C   UNL     1      46.894   3.161   6.908  0.00  0.00    +0.000 C 
ATOM     27  H   UNL     1      46.650   1.075   6.812  0.00  0.00    +0.000 HD
ENDBRANCH  22  23
ENDBRANCH  20  22
ENDBRANCH  15  16
ENDBRANCH   1  15
TORSDOF 6
ENDMDL
MODEL 7
REMARK VINA RESULT:    -6.526      2.468      8.320
REMARK INTER + INTRA:          -9.563
REMARK INTER:                  -9.099
REMARK INTRA:                  -0.464
REMARK UNBOUND:                -0.748
REMARK  Name = 
REMARK  6 active torsions:
REMARK  status: ('A' for Active; 'I' for Inactive)
REMARK    1  A    between atoms: C_2  and  C_4
REMARK    2  A    between atoms: N_8  and  C_9
REMARK    3  A    between atoms: C_9  and  C_10
REMARK    4  A    between atoms: C_10  and  C_11
REMARK    5  A    between atoms: C_15  and  O_16
REMARK    6  A    between atoms: O_16  and  C_17
REMARK                            x       y       z     vdW  Elec       q    Type
REMARK                         _______ _______ _______ _____ _____    ______ ____
ROOT
ATOM      1  C   UNL     1      46.714   6.530  12.019  0.00  0.00    +0.000 C 
ENDROOT
BRANCH   1   6
ATOM      2  C   UNL     1      49.887   6.483  15.984  0.00  0.00    +0.000 A 
ATOM      3  C   UNL     1      49.809   7.388  14.931  0.00  0.00    +0.000 A 
ATOM      4  C   UNL     1      48.729   7.314  14.051  0.00  0.00    +0.000 A 
ATOM      5  C   UNL     1      47.759   6.331  14.226  0.00  0.00    +0.000 A 
ATOM      6  N   UNL     1      46.618   6.244  13.445  0.00  0.00    +0.000 N 
ATOM      7  N   UNL     1      47.840   5.434  15.226  0.00  0.00    +0.000 NA
ATOM      8  C   UNL     1      48.897   5.520  16.079  0.00  0.00    +0.000 A 
ATOM      9  H   UNL     1      46.164   5.366  13.691  0.00  0.00    +0.000 HD
BRANCH   2  11
ATOM     10  N   UNL     1      51.504   5.310  17.367  0.00  0.00    +0.000 N 
ATOM     11  C   UNL     1      50.972   6.511  16.988  0.00  0.00    +0.000 C 
ATOM     12  O   UNL     1      51.403   7.564  17.436  0.00  0.00    +0.000 OA
ATOM     13  H   UNL     1      52.317   5.351  17.970  0.00  0.00    +0.000 HD
ATOM     14  H   UNL     1      51.359   4.460  16.841  0.00  0.00    +0.000 HD
ENDBRANCH   2  11
ENDBRANCH   1   6
BRANCH   1  15
ATOM     15  C   UNL     1      45.324   6.489  11.371  0.00  0.00    +0.000 C 
BRANCH  15  16
ATOM     16  C   UNL     1      45.144   5.251  10.523  0.00  0.00    +0.000 A 
ATOM     17  C   UNL     1      44.287   4.226  10.935  0.00  0.00    +0.000 A 
ATOM     18  C   UNL     1      44.087   3.105  10.128  0.00  0.00    +0.000 A 
ATOM     19  C   UNL     1      44.744   2.991   8.897  0.00  0.00    +0.000 A 
ATOM     20  C   UNL     1      45.607   4.003   8.483  0.00  0.00    +0.000 A 
ATOM     21  C   UNL     1      45.796   5.131   9.287  0.00  0.00    +0.000 A 
BRANCH  20  22
ATOM     22  O   UNL     1      46.282   4.014   7.289  0.00  0.00    +0.000 OA
BRANCH  22  23
ATOM     23  C   UNL     1      46.603   2.756   6.652  0.00  0.00    +0.000 C 
ATOM     24  C   UNL     1      47.989   2.139   6.926  0.00  0.00    +0.000 C 
ATOM     25  N   UNL     1      48.242   2.023   5.482  0.00  0.00    +0.000 NA
ATOM     26  C   UNL     1      47.079   2.874   5.191  0.00  0.00    +0.000 C 
ATOM     27  H   UNL     1      48.163   1.074   5.117  0.00  0.00    +0.000 HD
ENDBRANCH  22  23
ENDBRANCH  20  22
ENDBRANCH  15  16
ENDBRANCH   1  15
TORSDOF 6
ENDMDL
MODEL 8
REMARK VINA RESULT:    -6.244      3.442      5.150
REMARK INTER + INTRA:          -9.182
REMARK INTER:                  -8.377
REMARK INTRA:                  -0.805
REMARK UNBOUND:                -0.748
REMARK  Name = 
REMARK  6 active torsions:
REMARK  status: ('A' for Active; 'I' for Inactive)
REMARK    1  A    between atoms: C_2  and  C_4
REMARK    2  A    between atoms: N_8  and  C_9
REMARK    3  A    between atoms: C_9  and  C_10
REMARK    4  A    between atoms: C_10  and  C_11
REMARK    5  A    between atoms: C_15  and  O_16
REMARK    6  A    between atoms: O_16  and  C_17
REMARK                            x       y       z     vdW  Elec       q    Type
REMARK                         _______ _______ _______ _____ _____    ______ ____
ROOT
ATOM      1  C   UNL     1      47.906   8.260  13.552  0.00  0.00    +0.000 C 
ENDROOT
BRANCH   1   6
ATOM      2  C   UNL     1      44.675   4.606  12.134  0.00  0.00    +0.000 A 
ATOM      3  C   UNL     1      45.744   4.539  13.021  0.00  0.00    +0.000 A 
ATOM      4  C   UNL     1      46.380   5.719  13.409  0.00  0.00    +0.000 A 
ATOM      5  C   UNL     1      45.950   6.939  12.895  0.00  0.00    +0.000 A 
ATOM      6  N   UNL     1      46.475   8.158  13.293  0.00  0.00    +0.000 N 
ATOM      7  N   UNL     1      44.932   7.012  12.016  0.00  0.00    +0.000 NA
ATOM      8  C   UNL     1      44.320   5.854  11.648  0.00  0.00    +0.000 A 
ATOM      9  H   UNL     1      46.087   8.860  12.665  0.00  0.00    +0.000 HD
BRANCH   2  11
ATOM     10  N   UNL     1      43.801   2.386  12.593  0.00  0.00    +0.000 N 
ATOM     11  C   UNL     1      43.916   3.415  11.699  0.00  0.00    +0.000 C 
ATOM     12  O   UNL     1      43.382   3.362  10.601  0.00  0.00    +0.000 OA
ATOM     13  H   UNL     1      43.187   1.626  12.323  0.00  0.00    +0.000 HD
ATOM     14  H   UNL     1      43.999   2.496  13.577  0.00  0.00    +0.000 HD
ENDBRANCH   2  11
ENDBRANCH   1   6
BRANCH   1  15
ATOM     15  C   UNL     1      48.164   9.127  14.791  0.00  0.00    +0.000 C 
BRANCH  15  16
ATOM     16  C   UNL     1      48.821   8.334  15.896  0.00  0.00    +0.000 A 
ATOM     17  C   UNL     1      49.350   8.982  17.018  0.00  0.00    +0.000 A 
ATOM     18  C   UNL     1      49.914   8.243  18.058  0.00  0.00    +0.000 A 
ATOM     19  C   UNL     1      49.962   6.846  17.993  0.00  0.00    +0.000 A 
ATOM     20  C   UNL     1      49.446   6.194  16.875  0.00  0.00    +0.000 A 
ATOM     21  C   UNL     1      48.869   6.934  15.839  0.00  0.00    +0.000 A 
BRANCH  20  22
ATOM     22  O   UNL     1      49.412   4.832  16.712  0.00  0.00    +0.000 OA
BRANCH  22  23
ATOM     23  C   UNL     1      48.632   4.035  17.634  0.00  0.00    +0.000 C 
ATOM     24  C   UNL     1      48.065   2.693  17.128  0.00  0.00    +0.000 C 
ATOM     25  N   UNL     1      46.715   3.079  17.566  0.00  0.00    +0.000 NA
ATOM     26  C   UNL     1      47.159   4.466  17.774  0.00  0.00    +0.000 C 
ATOM     27  H   UNL     1      46.400   2.613  18.415  0.00  0.00    +0.000 HD
ENDBRANCH  22  23
ENDBRANCH  20  22
ENDBRANCH  15  16
ENDBRANCH   1  15
TORSDOF 6
ENDMDL
MODEL 9
REMARK VINA RESULT:    -6.223      4.127      5.786
REMARK INTER + INTRA:          -9.154
REMARK INTER:                  -8.404
REMARK INTRA:                  -0.750
REMARK UNBOUND:                -0.748
REMARK  Name = 
REMARK  6 active torsions:
REMARK  status: ('A' for Active; 'I' for Inactive)
REMARK    1  A    between atoms: C_2  and  C_4
REMARK    2  A    between atoms: N_8  and  C_9
REMARK    3  A    between atoms: C_9  and  C_10
REMARK    4  A    between atoms: C_10  and  C_11
REMARK    5  A    between atoms: C_15  and  O_16
REMARK    6  A    between atoms: O_16  and  C_17
REMARK                            x       y       z     vdW  Elec       q    Type
REMARK                         _______ _______ _______ _____ _____    ______ ____
ROOT
ATOM      1  C   UNL     1      49.293   8.170  12.951  0.00  0.00    +0.000 C 
ENDROOT
BRANCH   1   6
ATOM      2  C   UNL     1      45.087   5.325  13.075  0.00  0.00    +0.000 A 
ATOM      3  C   UNL     1      45.262   6.615  12.584  0.00  0.00    +0.000 A 
ATOM      4  C   UNL     1      46.554   7.130  12.477  0.00  0.00    +0.000 A 
ATOM      5  C   UNL     1      47.643   6.360  12.875  0.00  0.00    +0.000 A 
ATOM      6  N   UNL     1      48.958   6.770  12.724  0.00  0.00    +0.000 N 
ATOM      7  N   UNL     1      47.482   5.121  13.375  0.00  0.00    +0.000 NA
ATOM      8  C   UNL     1      46.216   4.629  13.472  0.00  0.00    +0.000 A 
ATOM      9  H   UNL     1      49.532   6.090  13.220  0.00  0.00    +0.000 HD
BRANCH   2  11
ATOM     10  N   UNL     1      42.663   5.482  13.032  0.00  0.00    +0.000 N 
ATOM     11  C   UNL     1      43.761   4.682  13.186  0.00  0.00    +0.000 C 
ATOM     12  O   UNL     1      43.646   3.479  13.372  0.00  0.00    +0.000 OA
ATOM     13  H   UNL     1      41.767   5.010  13.000  0.00  0.00    +0.000 HD
ATOM     14  H   UNL     1      42.715   6.406  12.628  0.00  0.00    +0.000 HD
ENDBRANCH   2  11
ENDBRANCH   1   6
BRANCH   1  15
ATOM     15  C   UNL     1      49.134   8.522  14.436  0.00  0.00    +0.000 C 
BRANCH  15  16
ATOM     16  C   UNL     1      49.943   7.597  15.315  0.00  0.00    +0.000 A 
ATOM     17  C   UNL     1      51.341   7.663  15.318  0.00  0.00    +0.000 A 
ATOM     18  C   UNL     1      52.083   6.839  16.166  0.00  0.00    +0.000 A 
ATOM     19  C   UNL     1      51.441   5.936  17.020  0.00  0.00    +0.000 A 
ATOM     20  C   UNL     1      50.050   5.857  17.015  0.00  0.00    +0.000 A 
ATOM     21  C   UNL     1      49.307   6.692  16.176  0.00  0.00    +0.000 A 
BRANCH  20  22
ATOM     22  O   UNL     1      49.311   5.032  17.825  0.00  0.00    +0.000 OA
BRANCH  22  23
ATOM     23  C   UNL     1      48.615   3.910  17.235  0.00  0.00    +0.000 C 
ATOM     24  C   UNL     1      47.118   4.079  16.907  0.00  0.00    +0.000 C 
ATOM     25  N   UNL     1      46.797   2.859  17.663  0.00  0.00    +0.000 NA
ATOM     26  C   UNL     1      48.149   2.838  18.241  0.00  0.00    +0.000 C 
ATOM     27  H   UNL     1      46.583   2.049  17.083  0.00  0.00    +0.000 HD
ENDBRANCH  22  23
ENDBRANCH  20  22
ENDBRANCH  15  16
ENDBRANCH   1  15
TORSDOF 6
ENDMDL
