MODEL 1
REMARK VINA RESULT:    -7.179      0.000      0.000
REMARK INTER + INTRA:          -9.257
REMARK INTER:                  -8.438
REMARK INTRA:                  -0.819
REMARK UNBOUND:                -0.819
REMARK  Name = 
REMARK  6 active torsions:
REMARK  status: ('A' for Active; 'I' for Inactive)
REMARK    1  A    between atoms: C_1  and  C_2
REMARK    2  A    between atoms: C_2  and  C_3
REMARK    3  A    between atoms: C_2  and  C_4
REMARK    4  A    between atoms: C_2  and  C_5
REMARK    5  A    between atoms: C_8  and  C_9
REMARK    6  A    between atoms: C_9  and  N_10
REMARK                            x       y       z     vdW  Elec       q    Type
REMARK                         _______ _______ _______ _____ _____    ______ ____
ROOT
ATOM      1  C   UNL     1      46.054   2.691   7.871  0.00  0.00    +0.000 A 
ATOM      2  C   UNL     1      45.272   2.029   8.834  0.00  0.00    +0.000 A 
ATOM      3  C   UNL     1      44.561   2.728   9.815  0.00  0.00    +0.000 A 
ATOM      4  C   UNL     1      44.615   4.122   9.881  0.00  0.00    +0.000 A 
ATOM      5  C   UNL     1      45.379   4.799   8.927  0.00  0.00    +0.000 A 
ATOM      6  C   UNL     1      46.088   4.096   7.942  0.00  0.00    +0.000 A 
ENDROOT
BRANCH   1   8
ATOM      7  C   UNL     1      46.366   2.055   5.403  0.00  0.00    +0.000 C 
ATOM      8  C   UNL     1      46.899   1.910   6.848  0.00  0.00    +0.000 C 
ATOM      9  C   UNL     1      46.861   0.417   7.231  0.00  0.00    +0.000 C 
ATOM     10  C   UNL     1      48.376   2.365   6.811  0.00  0.00    +0.000 C 
ENDBRANCH   1   8
BRANCH   4  11
ATOM     11  C   UNL     1      43.900   4.870  10.978  0.00  0.00    +0.000 C 
BRANCH  11  12
ATOM     12  N   UNL     1      44.807   5.724  11.738  0.00  0.00    +0.000 N 
ATOM     13  C   UNL     1      44.771   7.098  11.710  0.00  0.00    +0.000 A 
ATOM     14  C   UNL     1      45.705   7.570  12.603  0.00  0.00    +0.000 A 
ATOM     15  C   UNL     1      46.331   6.448  13.209  0.00  0.00    +0.000 A 
ATOM     16  C   UNL     1      47.327   6.303  14.183  0.00  0.00    +0.000 A 
ATOM     17  N   UNL     1      47.736   5.073  14.578  0.00  0.00    +0.000 NA
ATOM     18  C   UNL     1      47.167   3.990  14.010  0.00  0.00    +0.000 A 
ATOM     19  C   UNL     1      46.175   4.025  13.041  0.00  0.00    +0.000 A 
ATOM     20  C   UNL     1      45.759   5.301  12.648  0.00  0.00    +0.000 A 
ENDBRANCH  11  12
ENDBRANCH   4  11
TORSDOF 3
ENDMDL
MODEL 2
REMARK VINA RESULT:    -7.075      1.077      2.269
REMARK INTER + INTRA:          -9.135
REMARK INTER:                  -8.342
REMARK INTRA:                  -0.793
REMARK UNBOUND:                -0.819
REMARK  Name = 
REMARK  6 active torsions:
REMARK  status: ('A' for Active; 'I' for Inactive)
REMARK    1  A    between atoms: C_1  and  C_2
REMARK    2  A    between atoms: C_2  and  C_3
REMARK    3  A    between atoms: C_2  and  C_4
REMARK    4  A    between atoms: C_2  and  C_5
REMARK    5  A    between atoms: C_8  and  C_9
REMARK    6  A    between atoms: C_9  and  N_10
REMARK                            x       y       z     vdW  Elec       q    Type
REMARK                         _______ _______ _______ _____ _____    ______ ____
ROOT
ATOM      1  C   UNL     1      46.107   2.746   7.855  0.00  0.00    +0.000 A 
ATOM      2  C   UNL     1      45.394   1.988   8.801  0.00  0.00    +0.000 A 
ATOM      3  C   UNL     1      44.678   2.592   9.840  0.00  0.00    +0.000 A 
ATOM      4  C   UNL     1      44.657   3.981   9.983  0.00  0.00    +0.000 A 
ATOM      5  C   UNL     1      45.352   4.751   9.047  0.00  0.00    +0.000 A 
ATOM      6  C   UNL     1      46.066   4.144   8.003  0.00  0.00    +0.000 A 
ENDROOT
BRANCH   1   8
ATOM      7  C   UNL     1      46.421   2.335   5.339  0.00  0.00    +0.000 C 
ATOM      8  C   UNL     1      46.960   2.070   6.765  0.00  0.00    +0.000 C 
ATOM      9  C   UNL     1      46.944   0.549   7.014  0.00  0.00    +0.000 C 
ATOM     10  C   UNL     1      48.430   2.548   6.766  0.00  0.00    +0.000 C 
ENDBRANCH   1   8
BRANCH   4  11
ATOM     11  C   UNL     1      43.938   4.625  11.141  0.00  0.00    +0.000 C 
BRANCH  11  12
ATOM     12  N   UNL     1      44.855   5.337  12.026  0.00  0.00    +0.000 N 
ATOM     13  C   UNL     1      45.719   4.716  12.897  0.00  0.00    +0.000 A 
ATOM     14  C   UNL     1      46.484   5.683  13.505  0.00  0.00    +0.000 A 
ATOM     15  C   UNL     1      46.085   6.943  12.984  0.00  0.00    +0.000 A 
ATOM     16  C   UNL     1      46.504   8.261  13.207  0.00  0.00    +0.000 A 
ATOM     17  N   UNL     1      45.926   9.293  12.547  0.00  0.00    +0.000 NA
ATOM     18  C   UNL     1      44.934   9.026  11.672  0.00  0.00    +0.000 A 
ATOM     19  C   UNL     1      44.447   7.761  11.379  0.00  0.00    +0.000 A 
ATOM     20  C   UNL     1      45.058   6.705  12.063  0.00  0.00    +0.000 A 
ENDBRANCH  11  12
ENDBRANCH   4  11
TORSDOF 3
ENDMDL
MODEL 3
REMARK VINA RESULT:    -6.244      2.201      6.377
REMARK INTER + INTRA:          -8.158
REMARK INTER:                  -7.493
REMARK INTRA:                  -0.665
REMARK UNBOUND:                -0.819
REMARK  Name = 
REMARK  6 active torsions:
REMARK  status: ('A' for Active; 'I' for Inactive)
REMARK    1  A    between atoms: C_1  and  C_2
REMARK    2  A    between atoms: C_2  and  C_3
REMARK    3  A    between atoms: C_2  and  C_4
REMARK    4  A    between atoms: C_2  and  C_5
REMARK    5  A    between atoms: C_8  and  C_9
REMARK    6  A    between atoms: C_9  and  N_10
REMARK                            x       y       z     vdW  Elec       q    Type
REMARK                         _______ _______ _______ _____ _____    ______ ____
ROOT
ATOM      1  C   UNL     1      47.903   7.678  12.660  0.00  0.00    +0.000 A 
ATOM      2  C   UNL     1      46.910   8.507  12.107  0.00  0.00    +0.000 A 
ATOM      3  C   UNL     1      45.618   8.038  11.848  0.00  0.00    +0.000 A 
ATOM      4  C   UNL     1      45.269   6.713  12.118  0.00  0.00    +0.000 A 
ATOM      5  C   UNL     1      46.240   5.876  12.676  0.00  0.00    +0.000 A 
ATOM      6  C   UNL     1      47.533   6.350  12.939  0.00  0.00    +0.000 A 
ENDROOT
BRANCH   1   8
ATOM      7  C   UNL     1      49.428   9.720  12.972  0.00  0.00    +0.000 C 
ATOM      8  C   UNL     1      49.344   8.179  12.864  0.00  0.00    +0.000 C 
ATOM      9  C   UNL     1      50.187   7.732  11.652  0.00  0.00    +0.000 C 
ATOM     10  C   UNL     1      50.002   7.620  14.146  0.00  0.00    +0.000 C 
ENDBRANCH   1   8
BRANCH   4  11
ATOM     11  C   UNL     1      43.896   6.193  11.779  0.00  0.00    +0.000 C 
BRANCH  11  12
ATOM     12  N   UNL     1      43.922   4.780  11.410  0.00  0.00    +0.000 N 
ATOM     13  C   UNL     1      43.304   3.787  12.132  0.00  0.00    +0.000 A 
ATOM     14  C   UNL     1      43.463   2.601  11.454  0.00  0.00    +0.000 A 
ATOM     15  C   UNL     1      44.196   2.875  10.268  0.00  0.00    +0.000 A 
ATOM     16  C   UNL     1      44.640   2.086   9.199  0.00  0.00    +0.000 A 
ATOM     17  N   UNL     1      45.336   2.635   8.174  0.00  0.00    +0.000 NA
ATOM     18  C   UNL     1      45.598   3.959   8.207  0.00  0.00    +0.000 A 
ATOM     19  C   UNL     1      45.203   4.826   9.216  0.00  0.00    +0.000 A 
ATOM     20  C   UNL     1      44.480   4.245  10.262  0.00  0.00    +0.000 A 
ENDBRANCH  11  12
ENDBRANCH   4  11
TORSDOF 3
ENDMDL
MODEL 4
REMARK VINA RESULT:    -6.104      2.226      6.653
REMARK INTER + INTRA:          -7.994
REMARK INTER:                  -7.190
REMARK INTRA:                  -0.804
REMARK UNBOUND:                -0.819
REMARK  Name = 
REMARK  6 active torsions:
REMARK  status: ('A' for Active; 'I' for Inactive)
REMARK    1  A    between atoms: C_1  and  C_2
REMARK    2  A    between atoms: C_2  and  C_3
REMARK    3  A    between atoms: C_2  and  C_4
REMARK    4  A    between atoms: C_2  and  C_5
REMARK    5  A    between atoms: C_8  and  C_9
REMARK    6  A    between atoms: C_9  and  N_10
REMARK                            x       y       z     vdW  Elec       q    Type
REMARK                         _______ _______ _______ _____ _____    ______ ____
ROOT
ATOM      1  C   UNL     1      46.854   6.280  12.394  0.00  0.00    +0.000 A 
ATOM      2  C   UNL     1      46.800   6.824  11.099  0.00  0.00    +0.000 A 
ATOM      3  C   UNL     1      46.015   6.252  10.091  0.00  0.00    +0.000 A 
ATOM      4  C   UNL     1      45.262   5.102  10.336  0.00  0.00    +0.000 A 
ATOM      5  C   UNL     1      45.295   4.552  11.620  0.00  0.00    +0.000 A 
ATOM      6  C   UNL     1      46.079   5.130  12.630  0.00  0.00    +0.000 A 
ENDROOT
BRANCH   1   8
ATOM      7  C   UNL     1      47.824   6.004  14.756  0.00  0.00    +0.000 C 
ATOM      8  C   UNL     1      47.783   6.866  13.472  0.00  0.00    +0.000 C 
ATOM      9  C   UNL     1      47.263   8.269  13.847  0.00  0.00    +0.000 C 
ATOM     10  C   UNL     1      49.248   7.003  12.997  0.00  0.00    +0.000 C 
ENDBRANCH   1   8
BRANCH   4  11
ATOM     11  C   UNL     1      44.468   4.452   9.231  0.00  0.00    +0.000 C 
BRANCH  11  12
ATOM     12  N   UNL     1      44.982   3.127   8.896  0.00  0.00    +0.000 N 
ATOM     13  C   UNL     1      44.394   1.951   9.301  0.00  0.00    +0.000 A 
ATOM     14  C   UNL     1      45.091   0.907   8.738  0.00  0.00    +0.000 A 
ATOM     15  C   UNL     1      46.139   1.459   7.952  0.00  0.00    +0.000 A 
ATOM     16  C   UNL     1      47.144   0.904   7.150  0.00  0.00    +0.000 A 
ATOM     17  N   UNL     1      48.028   1.698   6.498  0.00  0.00    +0.000 NA
ATOM     18  C   UNL     1      47.923   3.036   6.642  0.00  0.00    +0.000 A 
ATOM     19  C   UNL     1      46.966   3.683   7.409  0.00  0.00    +0.000 A 
ATOM     20  C   UNL     1      46.057   2.851   8.070  0.00  0.00    +0.000 A 
ENDBRANCH  11  12
ENDBRANCH   4  11
TORSDOF 3
ENDMDL
MODEL 5
REMARK VINA RESULT:    -5.626      2.405      6.873
REMARK INTER + INTRA:          -7.431
REMARK INTER:                  -6.651
REMARK INTRA:                  -0.780
REMARK UNBOUND:                -0.819
REMARK  Name = 
REMARK  6 active torsions:
REMARK  status: ('A' for Active; 'I' for Inactive)
REMARK    1  A    between atoms: C_1  and  C_2
REMARK    2  A    between atoms: C_2  and  C_3
REMARK    3  A    between atoms: C_2  and  C_4
REMARK    4  A    between atoms: C_2  and  C_5
REMARK    5  A    between atoms: C_8  and  C_9
REMARK    6  A    between atoms: C_9  and  N_10
REMARK                            x       y       z     vdW  Elec       q    Type
REMARK                         _______ _______ _______ _____ _____    ______ ____
ROOT
ATOM      1  C   UNL     1      48.690   8.128  13.600  0.00  0.00    +0.000 A 
ATOM      2  C   UNL     1      48.667   7.272  12.484  0.00  0.00    +0.000 A 
ATOM      3  C   UNL     1      47.488   7.019  11.773  0.00  0.00    +0.000 A 
ATOM      4  C   UNL     1      46.279   7.603  12.160  0.00  0.00    +0.000 A 
ATOM      5  C   UNL     1      46.285   8.464  13.261  0.00  0.00    +0.000 A 
ATOM      6  C   UNL     1      47.468   8.719  13.969  0.00  0.00    +0.000 A 
ENDROOT
BRANCH   1   8
ATOM      7  C   UNL     1      50.232   7.181  15.423  0.00  0.00    +0.000 C 
ATOM      8  C   UNL     1      49.973   8.334  14.425  0.00  0.00    +0.000 C 
ATOM      9  C   UNL     1      49.826   9.644  15.226  0.00  0.00    +0.000 C 
ATOM     10  C   UNL     1      51.244   8.440  13.550  0.00  0.00    +0.000 C 
ENDBRANCH   1   8
BRANCH   4  11
ATOM     11  C   UNL     1      45.000   7.279  11.432  0.00  0.00    +0.000 C 
BRANCH  11  12
ATOM     12  N   UNL     1      44.616   5.880  11.599  0.00  0.00    +0.000 N 
ATOM     13  C   UNL     1      44.005   5.381  12.725  0.00  0.00    +0.000 A 
ATOM     14  C   UNL     1      43.714   4.055  12.504  0.00  0.00    +0.000 A 
ATOM     15  C   UNL     1      44.153   3.728  11.193  0.00  0.00    +0.000 A 
ATOM     16  C   UNL     1      44.115   2.560  10.421  0.00  0.00    +0.000 A 
ATOM     17  N   UNL     1      44.622   2.542   9.165  0.00  0.00    +0.000 NA
ATOM     18  C   UNL     1      45.169   3.673   8.673  0.00  0.00    +0.000 A 
ATOM     19  C   UNL     1      45.254   4.880   9.352  0.00  0.00    +0.000 A 
ATOM     20  C   UNL     1      44.721   4.884  10.645  0.00  0.00    +0.000 A 
ENDBRANCH  11  12
ENDBRANCH   4  11
TORSDOF 3
ENDMDL
MODEL 6
REMARK VINA RESULT:    -5.503      3.119      5.317
REMARK INTER + INTRA:          -7.288
REMARK INTER:                  -6.498
REMARK INTRA:                  -0.790
REMARK UNBOUND:                -0.819
REMARK  Name = 
REMARK  6 active torsions:
REMARK  status: ('A' for Active; 'I' for Inactive)
REMARK    1  A    between atoms: C_1  and  C_2
REMARK    2  A    between atoms: C_2  and  C_3
REMARK    3  A    between atoms: C_2  and  C_4
REMARK    4  A    between atoms: C_2  and  C_5
REMARK    5  A    between atoms: C_8  and  C_9
REMARK    6  A    between atoms: C_9  and  N_10
REMARK                            x       y       z     vdW  Elec       q    Type
REMARK                         _______ _______ _______ _____ _____    ______ ____
ROOT
ATOM      1  C   UNL     1      45.165   5.176  11.990  0.00  0.00    +0.000 A 
ATOM      2  C   UNL     1      45.742   4.707  13.183  0.00  0.00    +0.000 A 
ATOM      3  C   UNL     1      46.940   5.234  13.679  0.00  0.00    +0.000 A 
ATOM      4  C   UNL     1      47.616   6.245  12.993  0.00  0.00    +0.000 A 
ATOM      5  C   UNL     1      47.053   6.731  11.810  0.00  0.00    +0.000 A 
ATOM      6  C   UNL     1      45.850   6.204  11.317  0.00  0.00    +0.000 A 
ENDROOT
BRANCH   1   8
ATOM      7  C   UNL     1      43.577   3.158  12.042  0.00  0.00    +0.000 C 
ATOM      8  C   UNL     1      43.892   4.534  11.408  0.00  0.00    +0.000 C 
ATOM      9  C   UNL     1      44.101   4.334   9.894  0.00  0.00    +0.000 C 
ATOM     10  C   UNL     1      42.629   5.402  11.614  0.00  0.00    +0.000 C 
ENDBRANCH   1   8
BRANCH   4  11
ATOM     11  C   UNL     1      48.938   6.766  13.496  0.00  0.00    +0.000 C 
BRANCH  11  12
ATOM     12  N   UNL     1      48.783   7.581  14.698  0.00  0.00    +0.000 N 
ATOM     13  C   UNL     1      48.356   8.888  14.688  0.00  0.00    +0.000 A 
ATOM     14  C   UNL     1      48.247   9.313  15.991  0.00  0.00    +0.000 A 
ATOM     15  C   UNL     1      48.611   8.228  16.833  0.00  0.00    +0.000 A 
ATOM     16  C   UNL     1      48.680   8.059  18.222  0.00  0.00    +0.000 A 
ATOM     17  N   UNL     1      49.070   6.878  18.758  0.00  0.00    +0.000 NA
ATOM     18  C   UNL     1      49.396   5.867  17.926  0.00  0.00    +0.000 A 
ATOM     19  C   UNL     1      49.361   5.931  16.541  0.00  0.00    +0.000 A 
ATOM     20  C   UNL     1      48.950   7.154  16.003  0.00  0.00    +0.000 A 
ENDBRANCH  11  12
ENDBRANCH   4  11
TORSDOF 3
ENDMDL
MODEL 7
REMARK VINA RESULT:    -5.253      3.418      7.519
REMARK INTER + INTRA:          -6.993
REMARK INTER:                  -6.400
REMARK INTRA:                  -0.593
REMARK UNBOUND:                -0.819
REMARK  Name = 
REMARK  6 active torsions:
REMARK  status: ('A' for Active; 'I' for Inactive)
REMARK    1  A    between atoms: C_1  and  C_2
REMARK    2  A    between atoms: C_2  and  C_3
REMARK    3  A    between atoms: C_2  and  C_4
REMARK    4  A    between atoms: C_2  and  C_5
REMARK    5  A    between atoms: C_8  and  C_9
REMARK    6  A    between atoms: C_9  and  N_10
REMARK                            x       y       z     vdW  Elec       q    Type
REMARK                         _______ _______ _______ _____ _____    ______ ____
ROOT
ATOM      1  C   UNL     1      48.265   5.509  16.812  0.00  0.00    +0.000 A 
ATOM      2  C   UNL     1      47.478   4.604  16.077  0.00  0.00    +0.000 A 
ATOM      3  C   UNL     1      47.273   4.754  14.701  0.00  0.00    +0.000 A 
ATOM      4  C   UNL     1      47.837   5.826  14.006  0.00  0.00    +0.000 A 
ATOM      5  C   UNL     1      48.630   6.730  14.718  0.00  0.00    +0.000 A 
ATOM      6  C   UNL     1      48.837   6.575  16.096  0.00  0.00    +0.000 A 
ENDROOT
BRANCH   1   8
ATOM      7  C   UNL     1      49.637   6.163  18.882  0.00  0.00    +0.000 C 
ATOM      8  C   UNL     1      48.417   5.383  18.339  0.00  0.00    +0.000 C 
ATOM      9  C   UNL     1      48.603   3.891  18.684  0.00  0.00    +0.000 C 
ATOM     10  C   UNL     1      47.187   5.910  19.114  0.00  0.00    +0.000 C 
ENDBRANCH   1   8
BRANCH   4  11
ATOM     11  C   UNL     1      47.562   6.021  12.537  0.00  0.00    +0.000 C 
BRANCH  11  12
ATOM     12  N   UNL     1      46.140   6.217  12.268  0.00  0.00    +0.000 N 
ATOM     13  C   UNL     1      45.544   7.451  12.153  0.00  0.00    +0.000 A 
ATOM     14  C   UNL     1      44.224   7.260  11.818  0.00  0.00    +0.000 A 
ATOM     15  C   UNL     1      44.001   5.860  11.714  0.00  0.00    +0.000 A 
ATOM     16  C   UNL     1      42.885   5.077  11.394  0.00  0.00    +0.000 A 
ATOM     17  N   UNL     1      42.969   3.726  11.369  0.00  0.00    +0.000 NA
ATOM     18  C   UNL     1      44.153   3.147  11.664  0.00  0.00    +0.000 A 
ATOM     19  C   UNL     1      45.315   3.830  11.991  0.00  0.00    +0.000 A 
ATOM     20  C   UNL     1      45.213   5.224  12.006  0.00  0.00    +0.000 A 
ENDBRANCH  11  12
ENDBRANCH   4  11
TORSDOF 3
ENDMDL
MODEL 8
REMARK VINA RESULT:    -5.096      3.873      6.563
REMARK INTER + INTRA:          -6.809
REMARK INTER:                  -6.120
REMARK INTRA:                  -0.689
REMARK UNBOUND:                -0.819
REMARK  Name = 
REMARK  6 active torsions:
REMARK  status: ('A' for Active; 'I' for Inactive)
REMARK    1  A    between atoms: C_1  and  C_2
REMARK    2  A    between atoms: C_2  and  C_3
REMARK    3  A    between atoms: C_2  and  C_4
REMARK    4  A    between atoms: C_2  and  C_5
REMARK    5  A    between atoms: C_8  and  C_9
REMARK    6  A    between atoms: C_9  and  N_10
REMARK                            x       y       z     vdW  Elec       q    Type
REMARK                         _______ _______ _______ _____ _____    ______ ____
ROOT
ATOM      1  C   UNL     1      50.228   9.469  11.340  0.00  0.00    +0.000 A 
ATOM      2  C   UNL     1      50.071   8.237  12.001  0.00  0.00    +0.000 A 
ATOM      3  C   UNL     1      48.859   7.868  12.595  0.00  0.00    +0.000 A 
ATOM      4  C   UNL     1      47.756   8.724  12.563  0.00  0.00    +0.000 A 
ATOM      5  C   UNL     1      47.889   9.948  11.902  0.00  0.00    +0.000 A 
ATOM      6  C   UNL     1      49.104  10.314  11.304  0.00  0.00    +0.000 A 
ENDROOT
BRANCH   1   8
ATOM      7  C   UNL     1      52.569  10.391  11.854  0.00  0.00    +0.000 C 
ATOM      8  C   UNL     1      51.588   9.902  10.763  0.00  0.00    +0.000 C 
ATOM      9  C   UNL     1      51.345  11.060   9.774  0.00  0.00    +0.000 C 
ATOM     10  C   UNL     1      52.314   8.763  10.009  0.00  0.00    +0.000 C 
ENDBRANCH   1   8
BRANCH   4  11
ATOM     11  C   UNL     1      46.472   8.351  13.259  0.00  0.00    +0.000 C 
BRANCH  11  12
ATOM     12  N   UNL     1      45.813   7.217  12.619  0.00  0.00    +0.000 N 
ATOM     13  C   UNL     1      44.954   7.331  11.551  0.00  0.00    +0.000 A 
ATOM     14  C   UNL     1      44.590   6.064  11.156  0.00  0.00    +0.000 A 
ATOM     15  C   UNL     1      45.255   5.138  12.004  0.00  0.00    +0.000 A 
ATOM     16  C   UNL     1      45.287   3.740  12.076  0.00  0.00    +0.000 A 
ATOM     17  N   UNL     1      46.033   3.110  13.015  0.00  0.00    +0.000 NA
ATOM     18  C   UNL     1      46.743   3.859  13.885  0.00  0.00    +0.000 A 
ATOM     19  C   UNL     1      46.781   5.246  13.898  0.00  0.00    +0.000 A 
ATOM     20  C   UNL     1      46.011   5.881  12.918  0.00  0.00    +0.000 A 
ENDBRANCH  11  12
ENDBRANCH   4  11
TORSDOF 3
ENDMDL
MODEL 9
REMARK VINA RESULT:    -5.092      4.186      8.350
REMARK INTER + INTRA:          -6.805
REMARK INTER:                  -6.419
REMARK INTRA:                  -0.386
REMARK UNBOUND:                -0.819
REMARK  Name = 
REMARK  6 active torsions:
REMARK  status: ('A' for Active; 'I' for Inactive)
REMARK    1  A    between atoms: C_1  and  C_2
REMARK    2  A    between atoms: C_2  and  C_3
REMARK    3  A    between atoms: C_2  and  C_4
REMARK    4  A    between atoms: C_2  and  C_5
REMARK    5  A    between atoms: C_8  and  C_9
REMARK    6  A    between atoms: C_9  and  N_10
REMARK                            x       y       z     vdW  Elec       q    Type
REMARK                         _______ _______ _______ _____ _____    ______ ____
ROOT
ATOM      1  C   UNL     1      48.171   5.570  18.066  0.00  0.00    +0.000 A 
ATOM      2  C   UNL     1      48.623   6.192  16.888  0.00  0.00    +0.000 A 
ATOM      3  C   UNL     1      48.251   5.729  15.621  0.00  0.00    +0.000 A 
ATOM      4  C   UNL     1      47.421   4.615  15.480  0.00  0.00    +0.000 A 
ATOM      5  C   UNL     1      46.953   3.990  16.640  0.00  0.00    +0.000 A 
ATOM      6  C   UNL     1      47.324   4.458  17.909  0.00  0.00    +0.000 A 
ENDROOT
BRANCH   1   8
ATOM      7  C   UNL     1      49.591   5.009  20.131  0.00  0.00    +0.000 C 
ATOM      8  C   UNL     1      48.652   6.034  19.452  0.00  0.00    +0.000 C 
ATOM      9  C   UNL     1      47.415   6.228  20.352  0.00  0.00    +0.000 C 
ATOM     10  C   UNL     1      49.433   7.368  19.406  0.00  0.00    +0.000 C 
ENDBRANCH   1   8
BRANCH   4  11
ATOM     11  C   UNL     1      47.073   4.080  14.114  0.00  0.00    +0.000 C 
BRANCH  11  12
ATOM     12  N   UNL     1      46.521   5.116  13.246  0.00  0.00    +0.000 N 
ATOM     13  C   UNL     1      47.279   6.084  12.629  0.00  0.00    +0.000 A 
ATOM     14  C   UNL     1      46.449   6.833  11.828  0.00  0.00    +0.000 A 
ATOM     15  C   UNL     1      45.136   6.303  11.949  0.00  0.00    +0.000 A 
ATOM     16  C   UNL     1      43.901   6.631  11.375  0.00  0.00    +0.000 A 
ATOM     17  N   UNL     1      42.785   5.929  11.683  0.00  0.00    +0.000 NA
ATOM     18  C   UNL     1      42.885   4.908  12.559  0.00  0.00    +0.000 A 
ATOM     19  C   UNL     1      44.057   4.502  13.181  0.00  0.00    +0.000 A 
ATOM     20  C   UNL     1      45.202   5.232  12.847  0.00  0.00    +0.000 A 
ENDBRANCH  11  12
ENDBRANCH   4  11
TORSDOF 3
ENDMDL
