MODEL 1
REMARK VINA RESULT:    -8.434      0.000      0.000
REMARK INTER + INTRA:         -10.935
REMARK INTER:                 -10.406
REMARK INTRA:                  -0.529
REMARK UNBOUND:                -0.529
REMARK  Name = 
REMARK  6 active torsions:
REMARK  status: ('A' for Active; 'I' for Inactive)
REMARK    1  A    between atoms: C_1  and  C_2
REMARK    2  A    between atoms: C_2  and  C_3
REMARK    3  A    between atoms: C_10  and  C_11
REMARK    4  A    between atoms: C_11  and  O_12
REMARK    5  A    between atoms: O_12  and  C_13
REMARK    6  A    between atoms: C_16  and  C_17
REMARK                            x       y       z     vdW  Elec       q    Type
REMARK                         _______ _______ _______ _____ _____    ______ ____
ROOT
ATOM      1  C   UNL     1      47.515  10.046  12.867  0.00  0.00    +0.000 C 
ATOM      2  C   UNL     1      48.828   9.485  12.285  0.00  0.00    +0.000 C 
ATOM      3  C   UNL     1      49.263  10.404  11.127  0.00  0.00    +0.000 C 
ATOM      4  C   UNL     1      48.609   8.046  11.718  0.00  0.00    +0.000 C 
ATOM      5  N   UNL     1      48.444   7.075  12.795  0.00  0.00    +0.000 N 
ATOM      6  C   UNL     1      47.309   6.313  12.878  0.00  0.00    +0.000 A 
ATOM      7  N   UNL     1      47.163   5.450  13.895  0.00  0.00    +0.000 NA
ATOM      8  C   UNL     1      46.045   4.702  13.926  0.00  0.00    +0.000 A 
ATOM      9  C   UNL     1      45.055   4.771  12.978  0.00  0.00    +0.000 A 
ATOM     10  C   UNL     1      45.281   5.660  11.952  0.00  0.00    +0.000 A 
ATOM     11  N   UNL     1      46.394   6.426  11.905  0.00  0.00    +0.000 NA
ATOM     12  C   UNL     1      49.434   7.091  13.866  0.00  0.00    +0.000 C 
ATOM     13  C   UNL     1      49.663   8.531  14.376  0.00  0.00    +0.000 C 
ATOM     14  N   UNL     1      49.914   9.522  13.306  0.00  0.00    +0.000 NA
ATOM     15  H   UNL     1      50.783   9.253  12.843  0.00  0.00    +0.000 HD
ENDROOT
BRANCH  10  16
ATOM     16  C   UNL     1      44.342   5.751  10.775  0.00  0.00    +0.000 C 
BRANCH  16  17
ATOM     17  O   UNL     1      43.875   4.463  10.367  0.00  0.00    +0.000 OA
BRANCH  17  18
ATOM     18  C   UNL     1      44.708   3.760   9.533  0.00  0.00    +0.000 A 
ATOM     19  C   UNL     1      44.846   2.370   9.500  0.00  0.00    +0.000 A 
ATOM     20  C   UNL     1      45.734   1.767   8.604  0.00  0.00    +0.000 A 
ATOM     21  C   UNL     1      46.492   2.544   7.721  0.00  0.00    +0.000 A 
ATOM     22  C   UNL     1      46.359   3.935   7.747  0.00  0.00    +0.000 A 
ATOM     23  C   UNL     1      45.473   4.536   8.654  0.00  0.00    +0.000 A 
BRANCH  21  24
ATOM     24  C   UNL     1      47.445   1.842   6.822  0.00  0.00    +0.000 C 
ATOM     25  N   UNL     1      48.519   2.543   6.356  0.00  0.00    +0.000 N 
ATOM     26  O   UNL     1      47.263   0.675   6.483  0.00  0.00    +0.000 OA
ATOM     27  H   UNL     1      48.610   3.546   6.444  0.00  0.00    +0.000 HD
ATOM     28  H   UNL     1      49.106   2.069   5.682  0.00  0.00    +0.000 HD
ENDBRANCH  21  24
ENDBRANCH  17  18
ENDBRANCH  16  17
ENDBRANCH  10  16
TORSDOF 4
ENDMDL
MODEL 2
REMARK VINA RESULT:    -7.220      2.173      4.121
REMARK INTER + INTRA:          -9.437
REMARK INTER:                  -9.327
REMARK INTRA:                  -0.110
REMARK UNBOUND:                -0.529
REMARK  Name = 
REMARK  6 active torsions:
REMARK  status: ('A' for Active; 'I' for Inactive)
REMARK    1  A    between atoms: C_1  and  C_2
REMARK    2  A    between atoms: C_2  and  C_3
REMARK    3  A    between atoms: C_10  and  C_11
REMARK    4  A    between atoms: C_11  and  O_12
REMARK    5  A    between atoms: O_12  and  C_13
REMARK    6  A    between atoms: C_16  and  C_17
REMARK                            x       y       z     vdW  Elec       q    Type
REMARK                         _______ _______ _______ _____ _____    ______ ____
ROOT
ATOM      1  C   UNL     1      48.605   2.469  15.940  0.00  0.00    +0.000 C 
ATOM      2  C   UNL     1      48.028   3.372  17.048  0.00  0.00    +0.000 C 
ATOM      3  C   UNL     1      47.346   2.466  18.091  0.00  0.00    +0.000 C 
ATOM      4  C   UNL     1      46.955   4.345  16.463  0.00  0.00    +0.000 C 
ATOM      5  N   UNL     1      47.576   5.395  15.662  0.00  0.00    +0.000 N 
ATOM      6  C   UNL     1      47.235   5.560  14.346  0.00  0.00    +0.000 A 
ATOM      7  N   UNL     1      47.843   6.510  13.618  0.00  0.00    +0.000 NA
ATOM      8  C   UNL     1      47.460   6.657  12.336  0.00  0.00    +0.000 A 
ATOM      9  C   UNL     1      46.486   5.897  11.740  0.00  0.00    +0.000 A 
ATOM     10  C   UNL     1      45.889   4.958  12.550  0.00  0.00    +0.000 A 
ATOM     11  N   UNL     1      46.262   4.789  13.838  0.00  0.00    +0.000 NA
ATOM     12  C   UNL     1      48.694   6.117  16.257  0.00  0.00    +0.000 C 
ATOM     13  C   UNL     1      49.716   5.131  16.867  0.00  0.00    +0.000 C 
ATOM     14  N   UNL     1      49.120   4.105  17.752  0.00  0.00    +0.000 NA
ATOM     15  H   UNL     1      48.703   4.595  18.544  0.00  0.00    +0.000 HD
ENDROOT
BRANCH  10  16
ATOM     16  C   UNL     1      44.718   4.139  12.067  0.00  0.00    +0.000 C 
BRANCH  16  17
ATOM     17  O   UNL     1      44.307   4.522  10.752  0.00  0.00    +0.000 OA
BRANCH  17  18
ATOM     18  C   UNL     1      45.001   3.947   9.717  0.00  0.00    +0.000 A 
ATOM     19  C   UNL     1      45.661   4.637   8.696  0.00  0.00    +0.000 A 
ATOM     20  C   UNL     1      46.336   3.937   7.691  0.00  0.00    +0.000 A 
ATOM     21  C   UNL     1      46.367   2.538   7.694  0.00  0.00    +0.000 A 
ATOM     22  C   UNL     1      45.710   1.842   8.713  0.00  0.00    +0.000 A 
ATOM     23  C   UNL     1      45.028   2.548   9.715  0.00  0.00    +0.000 A 
BRANCH  21  24
ATOM     24  C   UNL     1      47.069   1.857   6.575  0.00  0.00    +0.000 C 
ATOM     25  N   UNL     1      47.577   2.631   5.572  0.00  0.00    +0.000 N 
ATOM     26  O   UNL     1      47.167   0.633   6.533  0.00  0.00    +0.000 OA
ATOM     27  H   UNL     1      47.357   3.611   5.459  0.00  0.00    +0.000 HD
ATOM     28  H   UNL     1      47.976   2.138   4.784  0.00  0.00    +0.000 HD
ENDBRANCH  21  24
ENDBRANCH  17  18
ENDBRANCH  16  17
ENDBRANCH  10  16
TORSDOF 4
ENDMDL
MODEL 3
REMARK VINA RESULT:    -7.062      3.464      5.884
REMARK INTER + INTRA:          -9.242
REMARK INTER:                  -8.725
REMARK INTRA:                  -0.517
REMARK UNBOUND:                -0.529
REMARK  Name = 
REMARK  6 active torsions:
REMARK  status: ('A' for Active; 'I' for Inactive)
REMARK    1  A    between atoms: C_1  and  C_2
REMARK    2  A    between atoms: C_2  and  C_3
REMARK    3  A    between atoms: C_10  and  C_11
REMARK    4  A    between atoms: C_11  and  O_12
REMARK    5  A    between atoms: O_12  and  C_13
REMARK    6  A    between atoms: C_16  and  C_17
REMARK                            x       y       z     vdW  Elec       q    Type
REMARK                         _______ _______ _______ _____ _____    ______ ____
ROOT
ATOM      1  C   UNL     1      49.472   2.965  17.115  0.00  0.00    +0.000 C 
ATOM      2  C   UNL     1      48.276   3.511  17.919  0.00  0.00    +0.000 C 
ATOM      3  C   UNL     1      47.142   2.471  17.847  0.00  0.00    +0.000 C 
ATOM      4  C   UNL     1      47.760   4.848  17.298  0.00  0.00    +0.000 C 
ATOM      5  N   UNL     1      48.687   5.944  17.561  0.00  0.00    +0.000 N 
ATOM      6  C   UNL     1      49.243   6.649  16.527  0.00  0.00    +0.000 A 
ATOM      7  N   UNL     1      50.119   7.631  16.791  0.00  0.00    +0.000 NA
ATOM      8  C   UNL     1      50.623   8.317  15.748  0.00  0.00    +0.000 A 
ATOM      9  C   UNL     1      50.288   8.070  14.440  0.00  0.00    +0.000 A 
ATOM     10  C   UNL     1      49.369   7.065  14.245  0.00  0.00    +0.000 A 
ATOM     11  N   UNL     1      48.854   6.360  15.277  0.00  0.00    +0.000 NA
ATOM     12  C   UNL     1      49.136   6.124  18.937  0.00  0.00    +0.000 C 
ATOM     13  C   UNL     1      49.597   4.779  19.540  0.00  0.00    +0.000 C 
ATOM     14  N   UNL     1      48.636   3.668  19.358  0.00  0.00    +0.000 NA
ATOM     15  H   UNL     1      47.786   3.919  19.864  0.00  0.00    +0.000 HD
ENDROOT
BRANCH  10  16
ATOM     16  C   UNL     1      48.813   6.769  12.874  0.00  0.00    +0.000 C 
BRANCH  16  17
ATOM     17  O   UNL     1      47.412   7.045  12.798  0.00  0.00    +0.000 OA
BRANCH  17  18
ATOM     18  C   UNL     1      46.616   6.000  12.399  0.00  0.00    +0.000 A 
ATOM     19  C   UNL     1      46.342   4.853  13.150  0.00  0.00    +0.000 A 
ATOM     20  C   UNL     1      45.514   3.851  12.634  0.00  0.00    +0.000 A 
ATOM     21  C   UNL     1      44.943   3.983  11.363  0.00  0.00    +0.000 A 
ATOM     22  C   UNL     1      45.212   5.127  10.608  0.00  0.00    +0.000 A 
ATOM     23  C   UNL     1      46.049   6.127  11.126  0.00  0.00    +0.000 A 
BRANCH  21  24
ATOM     24  C   UNL     1      44.105   2.863  10.859  0.00  0.00    +0.000 C 
ATOM     25  N   UNL     1      44.550   2.171   9.770  0.00  0.00    +0.000 N 
ATOM     26  O   UNL     1      43.031   2.581  11.385  0.00  0.00    +0.000 OA
ATOM     27  H   UNL     1      45.316   2.481   9.189  0.00  0.00    +0.000 HD
ATOM     28  H   UNL     1      43.923   1.470   9.398  0.00  0.00    +0.000 HD
ENDBRANCH  21  24
ENDBRANCH  17  18
ENDBRANCH  16  17
ENDBRANCH  10  16
TORSDOF 4
ENDMDL
MODEL 4
REMARK VINA RESULT:    -6.821      3.988      6.571
REMARK INTER + INTRA:          -8.945
REMARK INTER:                  -8.427
REMARK INTRA:                  -0.519
REMARK UNBOUND:                -0.529
REMARK  Name = 
REMARK  6 active torsions:
REMARK  status: ('A' for Active; 'I' for Inactive)
REMARK    1  A    between atoms: C_1  and  C_2
REMARK    2  A    between atoms: C_2  and  C_3
REMARK    3  A    between atoms: C_10  and  C_11
REMARK    4  A    between atoms: C_11  and  O_12
REMARK    5  A    between atoms: O_12  and  C_13
REMARK    6  A    between atoms: C_16  and  C_17
REMARK                            x       y       z     vdW  Elec       q    Type
REMARK                         _______ _______ _______ _____ _____    ______ ____
ROOT
ATOM      1  C   UNL     1      49.515   3.192  17.389  0.00  0.00    +0.000 C 
ATOM      2  C   UNL     1      48.205   3.600  18.091  0.00  0.00    +0.000 C 
ATOM      3  C   UNL     1      47.150   2.516  17.795  0.00  0.00    +0.000 C 
ATOM      4  C   UNL     1      47.683   4.963  17.534  0.00  0.00    +0.000 C 
ATOM      5  N   UNL     1      48.507   6.073  18.000  0.00  0.00    +0.000 N 
ATOM      6  C   UNL     1      49.133   6.899  17.105  0.00  0.00    +0.000 A 
ATOM      7  N   UNL     1      49.913   7.894  17.555  0.00  0.00    +0.000 NA
ATOM      8  C   UNL     1      50.489   8.699  16.643  0.00  0.00    +0.000 A 
ATOM      9  C   UNL     1      50.319   8.561  15.288  0.00  0.00    +0.000 A 
ATOM     10  C   UNL     1      49.489   7.535  14.899  0.00  0.00    +0.000 A 
ATOM     11  N   UNL     1      48.905   6.711  15.797  0.00  0.00    +0.000 NA
ATOM     12  C   UNL     1      48.786   6.144  19.429  0.00  0.00    +0.000 C 
ATOM     13  C   UNL     1      49.257   4.772  19.961  0.00  0.00    +0.000 C 
ATOM     14  N   UNL     1      48.390   3.638  19.571  0.00  0.00    +0.000 NA
ATOM     15  H   UNL     1      47.475   3.797  19.993  0.00  0.00    +0.000 HD
ENDROOT
BRANCH  10  16
ATOM     16  C   UNL     1      49.110   7.342  13.452  0.00  0.00    +0.000 C 
BRANCH  16  17
ATOM     17  O   UNL     1      48.650   6.012  13.195  0.00  0.00    +0.000 OA
BRANCH  17  18
ATOM     18  C   UNL     1      47.322   5.890  12.872  0.00  0.00    +0.000 A 
ATOM     19  C   UNL     1      46.389   5.094  13.543  0.00  0.00    +0.000 A 
ATOM     20  C   UNL     1      45.058   5.051  13.117  0.00  0.00    +0.000 A 
ATOM     21  C   UNL     1      44.637   5.807  12.018  0.00  0.00    +0.000 A 
ATOM     22  C   UNL     1      45.564   6.606  11.342  0.00  0.00    +0.000 A 
ATOM     23  C   UNL     1      46.900   6.641  11.768  0.00  0.00    +0.000 A 
BRANCH  21  24
ATOM     24  C   UNL     1      43.218   5.684  11.593  0.00  0.00    +0.000 C 
ATOM     25  N   UNL     1      42.509   6.832  11.389  0.00  0.00    +0.000 N 
ATOM     26  O   UNL     1      42.685   4.586  11.455  0.00  0.00    +0.000 OA
ATOM     27  H   UNL     1      42.835   7.746  11.673  0.00  0.00    +0.000 HD
ATOM     28  H   UNL     1      41.526   6.722  11.181  0.00  0.00    +0.000 HD
ENDBRANCH  21  24
ENDBRANCH  17  18
ENDBRANCH  16  17
ENDBRANCH  10  16
TORSDOF 4
ENDMDL
MODEL 5
REMARK VINA RESULT:    -6.632      5.298      8.550
REMARK INTER + INTRA:          -8.712
REMARK INTER:                  -8.374
REMARK INTRA:                  -0.337
REMARK UNBOUND:                -0.529
REMARK  Name = 
REMARK  6 active torsions:
REMARK  status: ('A' for Active; 'I' for Inactive)
REMARK    1  A    between atoms: C_1  and  C_2
REMARK    2  A    between atoms: C_2  and  C_3
REMARK    3  A    between atoms: C_10  and  C_11
REMARK    4  A    between atoms: C_11  and  O_12
REMARK    5  A    between atoms: O_12  and  C_13
REMARK    6  A    between atoms: C_16  and  C_17
REMARK                            x       y       z     vdW  Elec       q    Type
REMARK                         _______ _______ _______ _____ _____    ______ ____
ROOT
ATOM      1  C   UNL     1      43.386   4.797  13.276  0.00  0.00    +0.000 C 
ATOM      2  C   UNL     1      44.083   4.182  12.046  0.00  0.00    +0.000 C 
ATOM      3  C   UNL     1      43.369   2.859  11.709  0.00  0.00    +0.000 C 
ATOM      4  C   UNL     1      45.580   3.869  12.361  0.00  0.00    +0.000 C 
ATOM      5  N   UNL     1      46.370   5.094  12.439  0.00  0.00    +0.000 N 
ATOM      6  C   UNL     1      47.062   5.404  13.580  0.00  0.00    +0.000 A 
ATOM      7  N   UNL     1      47.754   6.552  13.643  0.00  0.00    +0.000 NA
ATOM      8  C   UNL     1      48.441   6.808  14.772  0.00  0.00    +0.000 A 
ATOM      9  C   UNL     1      48.475   5.962  15.852  0.00  0.00    +0.000 A 
ATOM     10  C   UNL     1      47.761   4.794  15.710  0.00  0.00    +0.000 A 
ATOM     11  N   UNL     1      47.059   4.520  14.588  0.00  0.00    +0.000 NA
ATOM     12  C   UNL     1      46.235   6.047  11.345  0.00  0.00    +0.000 C 
ATOM     13  C   UNL     1      44.745   6.303  11.026  0.00  0.00    +0.000 C 
ATOM     14  N   UNL     1      43.938   5.073  10.859  0.00  0.00    +0.000 NA
ATOM     15  H   UNL     1      44.311   4.575  10.051  0.00  0.00    +0.000 HD
ENDROOT
BRANCH  10  16
ATOM     16  C   UNL     1      47.809   3.715  16.763  0.00  0.00    +0.000 C 
BRANCH  16  17
ATOM     17  O   UNL     1      48.708   2.662  16.404  0.00  0.00    +0.000 OA
BRANCH  17  18
ATOM     18  C   UNL     1      49.938   2.693  17.011  0.00  0.00    +0.000 A 
ATOM     19  C   UNL     1      50.480   3.782  17.701  0.00  0.00    +0.000 A 
ATOM     20  C   UNL     1      51.750   3.693  18.278  0.00  0.00    +0.000 A 
ATOM     21  C   UNL     1      52.496   2.514  18.181  0.00  0.00    +0.000 A 
ATOM     22  C   UNL     1      51.961   1.421  17.493  0.00  0.00    +0.000 A 
ATOM     23  C   UNL     1      50.690   1.516  16.909  0.00  0.00    +0.000 A 
BRANCH  21  24
ATOM     24  C   UNL     1      53.856   2.500  18.782  0.00  0.00    +0.000 C 
ATOM     25  N   UNL     1      54.279   1.350  19.382  0.00  0.00    +0.000 N 
ATOM     26  O   UNL     1      54.571   3.499  18.769  0.00  0.00    +0.000 OA
ATOM     27  H   UNL     1      53.667   0.573  19.591  0.00  0.00    +0.000 HD
ATOM     28  H   UNL     1      55.172   1.392  19.854  0.00  0.00    +0.000 HD
ENDBRANCH  21  24
ENDBRANCH  17  18
ENDBRANCH  16  17
ENDBRANCH  10  16
TORSDOF 4
ENDMDL
MODEL 6
REMARK VINA RESULT:    -6.396      2.988      4.907
REMARK INTER + INTRA:          -8.421
REMARK INTER:                  -7.775
REMARK INTRA:                  -0.646
REMARK UNBOUND:                -0.529
REMARK  Name = 
REMARK  6 active torsions:
REMARK  status: ('A' for Active; 'I' for Inactive)
REMARK    1  A    between atoms: C_1  and  C_2
REMARK    2  A    between atoms: C_2  and  C_3
REMARK    3  A    between atoms: C_10  and  C_11
REMARK    4  A    between atoms: C_11  and  O_12
REMARK    5  A    between atoms: O_12  and  C_13
REMARK    6  A    between atoms: C_16  and  C_17
REMARK                            x       y       z     vdW  Elec       q    Type
REMARK                         _______ _______ _______ _____ _____    ______ ____
ROOT
ATOM      1  C   UNL     1      48.241   5.198  16.601  0.00  0.00    +0.000 C 
ATOM      2  C   UNL     1      48.810   6.385  17.403  0.00  0.00    +0.000 C 
ATOM      3  C   UNL     1      47.903   6.607  18.629  0.00  0.00    +0.000 C 
ATOM      4  C   UNL     1      48.800   7.688  16.540  0.00  0.00    +0.000 C 
ATOM      5  N   UNL     1      49.829   7.642  15.506  0.00  0.00    +0.000 N 
ATOM      6  C   UNL     1      49.492   7.760  14.183  0.00  0.00    +0.000 A 
ATOM      7  N   UNL     1      50.449   7.681  13.246  0.00  0.00    +0.000 NA
ATOM      8  C   UNL     1      50.080   7.828  11.960  0.00  0.00    +0.000 A 
ATOM      9  C   UNL     1      48.788   8.057  11.560  0.00  0.00    +0.000 A 
ATOM     10  C   UNL     1      47.862   8.148  12.573  0.00  0.00    +0.000 A 
ATOM     11  N   UNL     1      48.210   7.997  13.871  0.00  0.00    +0.000 NA
ATOM     12  C   UNL     1      51.178   7.277  15.920  0.00  0.00    +0.000 C 
ATOM     13  C   UNL     1      51.152   6.013  16.809  0.00  0.00    +0.000 C 
ATOM     14  N   UNL     1      50.173   6.068  17.917  0.00  0.00    +0.000 NA
ATOM     15  H   UNL     1      50.456   6.831  18.533  0.00  0.00    +0.000 HD
ENDROOT
BRANCH  10  16
ATOM     16  C   UNL     1      46.428   8.521  12.292  0.00  0.00    +0.000 C 
BRANCH  16  17
ATOM     17  O   UNL     1      45.518   7.802  13.129  0.00  0.00    +0.000 OA
BRANCH  17  18
ATOM     18  C   UNL     1      45.160   6.552  12.689  0.00  0.00    +0.000 A 
ATOM     19  C   UNL     1      45.653   5.342  13.185  0.00  0.00    +0.000 A 
ATOM     20  C   UNL     1      45.212   4.127  12.652  0.00  0.00    +0.000 A 
ATOM     21  C   UNL     1      44.267   4.102  11.621  0.00  0.00    +0.000 A 
ATOM     22  C   UNL     1      43.769   5.308  11.120  0.00  0.00    +0.000 A 
ATOM     23  C   UNL     1      44.220   6.526  11.653  0.00  0.00    +0.000 A 
BRANCH  21  24
ATOM     24  C   UNL     1      43.871   2.778  11.073  0.00  0.00    +0.000 C 
ATOM     25  N   UNL     1      44.614   2.259  10.052  0.00  0.00    +0.000 N 
ATOM     26  O   UNL     1      42.890   2.176  11.502  0.00  0.00    +0.000 OA
ATOM     27  H   UNL     1      45.302   2.792   9.538  0.00  0.00    +0.000 HD
ATOM     28  H   UNL     1      44.276   1.399   9.643  0.00  0.00    +0.000 HD
ENDBRANCH  21  24
ENDBRANCH  17  18
ENDBRANCH  16  17
ENDBRANCH  10  16
TORSDOF 4
ENDMDL
MODEL 7
REMARK VINA RESULT:    -6.365      3.956      6.882
REMARK INTER + INTRA:          -8.382
REMARK INTER:                  -7.870
REMARK INTRA:                  -0.512
REMARK UNBOUND:                -0.529
REMARK  Name = 
REMARK  6 active torsions:
REMARK  status: ('A' for Active; 'I' for Inactive)
REMARK    1  A    between atoms: C_1  and  C_2
REMARK    2  A    between atoms: C_2  and  C_3
REMARK    3  A    between atoms: C_10  and  C_11
REMARK    4  A    between atoms: C_11  and  O_12
REMARK    5  A    between atoms: O_12  and  C_13
REMARK    6  A    between atoms: C_16  and  C_17
REMARK                            x       y       z     vdW  Elec       q    Type
REMARK                         _______ _______ _______ _____ _____    ______ ____
ROOT
ATOM      1  C   UNL     1      48.650   9.062  11.857  0.00  0.00    +0.000 C 
ATOM      2  C   UNL     1      47.896   9.821  12.967  0.00  0.00    +0.000 C 
ATOM      3  C   UNL     1      48.941  10.386  13.948  0.00  0.00    +0.000 C 
ATOM      4  C   UNL     1      46.953   8.855  13.752  0.00  0.00    +0.000 C 
ATOM      5  N   UNL     1      45.792   8.483  12.949  0.00  0.00    +0.000 N 
ATOM      6  C   UNL     1      45.532   7.167  12.670  0.00  0.00    +0.000 A 
ATOM      7  N   UNL     1      44.478   6.849  11.902  0.00  0.00    +0.000 NA
ATOM      8  C   UNL     1      44.242   5.544  11.672  0.00  0.00    +0.000 A 
ATOM      9  C   UNL     1      45.013   4.529  12.182  0.00  0.00    +0.000 A 
ATOM     10  C   UNL     1      46.062   4.926  12.978  0.00  0.00    +0.000 A 
ATOM     11  N   UNL     1      46.321   6.231  13.217  0.00  0.00    +0.000 NA
ATOM     12  C   UNL     1      45.050   9.561  12.308  0.00  0.00    +0.000 C 
ATOM     13  C   UNL     1      46.011  10.526  11.578  0.00  0.00    +0.000 C 
ATOM     14  N   UNL     1      47.154  10.984  12.399  0.00  0.00    +0.000 NA
ATOM     15  H   UNL     1      46.770  11.517  13.180  0.00  0.00    +0.000 HD
ENDROOT
BRANCH  10  16
ATOM     16  C   UNL     1      46.915   3.919  13.708  0.00  0.00    +0.000 C 
BRANCH  16  17
ATOM     17  O   UNL     1      46.569   3.833  15.093  0.00  0.00    +0.000 OA
BRANCH  17  18
ATOM     18  C   UNL     1      47.619   3.866  15.975  0.00  0.00    +0.000 A 
ATOM     19  C   UNL     1      48.220   2.753  16.570  0.00  0.00    +0.000 A 
ATOM     20  C   UNL     1      49.287   2.915  17.459  0.00  0.00    +0.000 A 
ATOM     21  C   UNL     1      49.775   4.190  17.762  0.00  0.00    +0.000 A 
ATOM     22  C   UNL     1      49.180   5.308  17.170  0.00  0.00    +0.000 A 
ATOM     23  C   UNL     1      48.104   5.142  16.285  0.00  0.00    +0.000 A 
BRANCH  21  24
ATOM     24  C   UNL     1      50.885   4.294  18.745  0.00  0.00    +0.000 C 
ATOM     25  N   UNL     1      51.890   3.374  18.674  0.00  0.00    +0.000 N 
ATOM     26  O   UNL     1      50.891   5.162  19.614  0.00  0.00    +0.000 OA
ATOM     27  H   UNL     1      51.839   2.534  18.114  0.00  0.00    +0.000 HD
ATOM     28  H   UNL     1      52.590   3.416  19.404  0.00  0.00    +0.000 HD
ENDBRANCH  21  24
ENDBRANCH  17  18
ENDBRANCH  16  17
ENDBRANCH  10  16
TORSDOF 4
ENDMDL
MODEL 8
REMARK VINA RESULT:    -6.127      3.427      5.070
REMARK INTER + INTRA:          -8.089
REMARK INTER:                  -7.518
REMARK INTRA:                  -0.571
REMARK UNBOUND:                -0.529
REMARK  Name = 
REMARK  6 active torsions:
REMARK  status: ('A' for Active; 'I' for Inactive)
REMARK    1  A    between atoms: C_1  and  C_2
REMARK    2  A    between atoms: C_2  and  C_3
REMARK    3  A    between atoms: C_10  and  C_11
REMARK    4  A    between atoms: C_11  and  O_12
REMARK    5  A    between atoms: O_12  and  C_13
REMARK    6  A    between atoms: C_16  and  C_17
REMARK                            x       y       z     vdW  Elec       q    Type
REMARK                         _______ _______ _______ _____ _____    ______ ____
ROOT
ATOM      1  C   UNL     1      48.368   9.239  15.663  0.00  0.00    +0.000 C 
ATOM      2  C   UNL     1      49.667   9.007  14.866  0.00  0.00    +0.000 C 
ATOM      3  C   UNL     1      49.426   9.479  13.419  0.00  0.00    +0.000 C 
ATOM      4  C   UNL     1      50.029   7.488  14.835  0.00  0.00    +0.000 C 
ATOM      5  N   UNL     1      50.515   7.035  16.135  0.00  0.00    +0.000 N 
ATOM      6  C   UNL     1      49.884   6.017  16.799  0.00  0.00    +0.000 A 
ATOM      7  N   UNL     1      50.328   5.639  18.008  0.00  0.00    +0.000 NA
ATOM      8  C   UNL     1      49.696   4.617  18.615  0.00  0.00    +0.000 A 
ATOM      9  C   UNL     1      48.634   3.944  18.066  0.00  0.00    +0.000 A 
ATOM     10  C   UNL     1      48.246   4.369  16.816  0.00  0.00    +0.000 A 
ATOM     11  N   UNL     1      48.863   5.397  16.191  0.00  0.00    +0.000 NA
ATOM     12  C   UNL     1      51.561   7.829  16.770  0.00  0.00    +0.000 C 
ATOM     13  C   UNL     1      51.196   9.330  16.746  0.00  0.00    +0.000 C 
ATOM     14  N   UNL     1      50.778   9.833  15.418  0.00  0.00    +0.000 NA
ATOM     15  H   UNL     1      51.578   9.734  14.792  0.00  0.00    +0.000 HD
ENDROOT
BRANCH  10  16
ATOM     16  C   UNL     1      47.178   3.642  16.038  0.00  0.00    +0.000 C 
BRANCH  16  17
ATOM     17  O   UNL     1      47.513   3.529  14.652  0.00  0.00    +0.000 OA
BRANCH  17  18
ATOM     18  C   UNL     1      46.607   4.066  13.772  0.00  0.00    +0.000 A 
ATOM     19  C   UNL     1      46.278   5.421  13.666  0.00  0.00    +0.000 A 
ATOM     20  C   UNL     1      45.333   5.848  12.728  0.00  0.00    +0.000 A 
ATOM     21  C   UNL     1      44.708   4.930  11.877  0.00  0.00    +0.000 A 
ATOM     22  C   UNL     1      45.032   3.574  11.977  0.00  0.00    +0.000 A 
ATOM     23  C   UNL     1      45.975   3.149  12.925  0.00  0.00    +0.000 A 
BRANCH  21  24
ATOM     24  C   UNL     1      43.685   5.446  10.930  0.00  0.00    +0.000 C 
ATOM     25  N   UNL     1      43.074   6.629  11.231  0.00  0.00    +0.000 N 
ATOM     26  O   UNL     1      43.373   4.819   9.921  0.00  0.00    +0.000 OA
ATOM     27  H   UNL     1      43.148   7.082  12.131  0.00  0.00    +0.000 HD
ATOM     28  H   UNL     1      42.325   6.916  10.615  0.00  0.00    +0.000 HD
ENDBRANCH  21  24
ENDBRANCH  17  18
ENDBRANCH  16  17
ENDBRANCH  10  16
TORSDOF 4
ENDMDL
MODEL 9
REMARK VINA RESULT:    -6.042      4.494      6.248
REMARK INTER + INTRA:          -7.984
REMARK INTER:                  -7.561
REMARK INTRA:                  -0.423
REMARK UNBOUND:                -0.529
REMARK  Name = 
REMARK  6 active torsions:
REMARK  status: ('A' for Active; 'I' for Inactive)
REMARK    1  A    between atoms: C_1  and  C_2
REMARK    2  A    between atoms: C_2  and  C_3
REMARK    3  A    between atoms: C_10  and  C_11
REMARK    4  A    between atoms: C_11  and  O_12
REMARK    5  A    between atoms: O_12  and  C_13
REMARK    6  A    between atoms: C_16  and  C_17
REMARK                            x       y       z     vdW  Elec       q    Type
REMARK                         _______ _______ _______ _____ _____    ______ ____
ROOT
ATOM      1  C   UNL     1      50.681   6.880  20.064  0.00  0.00    +0.000 C 
ATOM      2  C   UNL     1      51.790   7.264  19.064  0.00  0.00    +0.000 C 
ATOM      3  C   UNL     1      51.738   8.790  18.860  0.00  0.00    +0.000 C 
ATOM      4  C   UNL     1      51.550   6.573  17.684  0.00  0.00    +0.000 C 
ATOM      5  N   UNL     1      51.837   5.144  17.753  0.00  0.00    +0.000 N 
ATOM      6  C   UNL     1      50.871   4.224  17.441  0.00  0.00    +0.000 A 
ATOM      7  N   UNL     1      51.146   2.914  17.543  0.00  0.00    +0.000 NA
ATOM      8  C   UNL     1      50.178   2.043  17.202  0.00  0.00    +0.000 A 
ATOM      9  C   UNL     1      48.937   2.420  16.755  0.00  0.00    +0.000 A 
ATOM     10  C   UNL     1      48.732   3.777  16.653  0.00  0.00    +0.000 A 
ATOM     11  N   UNL     1      49.687   4.669  16.996  0.00  0.00    +0.000 NA
ATOM     12  C   UNL     1      53.109   4.745  18.344  0.00  0.00    +0.000 C 
ATOM     13  C   UNL     1      53.339   5.477  19.685  0.00  0.00    +0.000 C 
ATOM     14  N   UNL     1      53.135   6.942  19.622  0.00  0.00    +0.000 NA
ATOM     15  H   UNL     1      53.834   7.317  18.980  0.00  0.00    +0.000 HD
ENDROOT
BRANCH  10  16
ATOM     16  C   UNL     1      47.463   4.334  16.057  0.00  0.00    +0.000 C 
BRANCH  16  17
ATOM     17  O   UNL     1      47.727   5.149  14.912  0.00  0.00    +0.000 OA
BRANCH  17  18
ATOM     18  C   UNL     1      46.901   4.952  13.834  0.00  0.00    +0.000 A 
ATOM     19  C   UNL     1      46.419   5.950  12.983  0.00  0.00    +0.000 A 
ATOM     20  C   UNL     1      45.578   5.625  11.914  0.00  0.00    +0.000 A 
ATOM     21  C   UNL     1      45.212   4.296  11.675  0.00  0.00    +0.000 A 
ATOM     22  C   UNL     1      45.691   3.291  12.521  0.00  0.00    +0.000 A 
ATOM     23  C   UNL     1      46.528   3.624  13.597  0.00  0.00    +0.000 A 
BRANCH  21  24
ATOM     24  C   UNL     1      44.285   4.023  10.545  0.00  0.00    +0.000 C 
ATOM     25  N   UNL     1      44.467   4.719   9.385  0.00  0.00    +0.000 N 
ATOM     26  O   UNL     1      43.363   3.219  10.655  0.00  0.00    +0.000 OA
ATOM     27  H   UNL     1      45.077   5.521   9.307  0.00  0.00    +0.000 HD
ATOM     28  H   UNL     1      43.774   4.575   8.663  0.00  0.00    +0.000 HD
ENDBRANCH  21  24
ENDBRANCH  17  18
ENDBRANCH  16  17
ENDBRANCH  10  16
TORSDOF 4
ENDMDL
