MODEL 1
REMARK VINA RESULT:    -6.990      0.000      0.000
REMARK INTER + INTRA:          -9.432
REMARK INTER:                  -9.033
REMARK INTRA:                  -0.400
REMARK UNBOUND:                -0.400
REMARK  Name = 
REMARK  6 active torsions:
REMARK  status: ('A' for Active; 'I' for Inactive)
REMARK    1  A    between atoms: N_1  and  C_2
REMARK    2  A    between atoms: C_2  and  C_3
REMARK    3  A    between atoms: C_5  and  C_6
REMARK    4  A    between atoms: C_6  and  N_7
REMARK    5  A    between atoms: C_12  and  C_13
REMARK    6  A    between atoms: C_13  and  O_15
REMARK                            x       y       z     vdW  Elec       q    Type
REMARK                         _______ _______ _______ _____ _____    ______ ____
ROOT
ATOM      1  N   UNL     1      44.239   4.303  10.496  0.00  0.00    +0.000 N 
ATOM      2  C   UNL     1      43.697   3.130  10.957  0.00  0.00    +0.000 A 
ATOM      3  C   UNL     1      44.178   2.104  10.179  0.00  0.00    +0.000 A 
ATOM      4  C   UNL     1      45.053   2.666   9.211  0.00  0.00    +0.000 A 
ATOM      5  C   UNL     1      45.800   2.126   8.144  0.00  0.00    +0.000 A 
ATOM      6  C   UNL     1      46.589   2.975   7.353  0.00  0.00    +0.000 A 
ATOM      7  C   UNL     1      46.700   4.330   7.663  0.00  0.00    +0.000 A 
ATOM      8  C   UNL     1      45.981   4.878   8.729  0.00  0.00    +0.000 A 
ATOM      9  C   UNL     1      45.130   4.038   9.468  0.00  0.00    +0.000 A 
ENDROOT
BRANCH   6  10
ATOM     10  C   UNL     1      47.325   2.376   6.210  0.00  0.00    +0.000 C 
ATOM     11  O   UNL     1      47.941   1.329   6.291  0.00  0.00    +0.000 OA
BRANCH  10  12
ATOM     12  O   UNL     1      47.199   3.074   5.061  0.00  0.00    +0.000 OA
ATOM     13  H   UNL     1      46.477   3.731   5.055  0.00  0.00    +0.000 HD
ENDBRANCH  10  12
ENDBRANCH   6  10
BRANCH   1  14
ATOM     14  C   UNL     1      43.902   5.615  11.031  0.00  0.00    +0.000 C 
BRANCH  14  17
ATOM     15  C   UNL     1      46.224   7.278  12.130  0.00  0.00    +0.000 C 
ATOM     16  C   UNL     1      44.845   7.261  12.771  0.00  0.00    +0.000 C 
ATOM     17  C   UNL     1      44.385   5.844  12.479  0.00  0.00    +0.000 C 
ATOM     18  C   UNL     1      45.687   5.089  12.740  0.00  0.00    +0.000 C 
ATOM     19  O   UNL     1      46.773   5.975  12.401  0.00  0.00    +0.000 OA
BRANCH  15  20
ATOM     20  C   UNL     1      47.142   8.401  12.609  0.00  0.00    +0.000 C 
BRANCH  20  21
ATOM     21  N   UNL     1      46.806   8.860  13.961  0.00  0.00    +0.000 NA
ATOM     22  H   UNL     1      46.162   8.188  14.381  0.00  0.00    +0.000 HD
ATOM     23  H   UNL     1      46.292   9.738  13.904  0.00  0.00    +0.000 HD
ENDBRANCH  20  21
ENDBRANCH  15  20
ENDBRANCH  14  17
ENDBRANCH   1  14
TORSDOF 6
ENDMDL
MODEL 2
REMARK VINA RESULT:    -6.813      2.289      6.505
REMARK INTER + INTRA:          -9.204
REMARK INTER:                  -8.698
REMARK INTRA:                  -0.506
REMARK UNBOUND:                -0.400
REMARK  Name = 
REMARK  6 active torsions:
REMARK  status: ('A' for Active; 'I' for Inactive)
REMARK    1  A    between atoms: N_1  and  C_2
REMARK    2  A    between atoms: C_2  and  C_3
REMARK    3  A    between atoms: C_5  and  C_6
REMARK    4  A    between atoms: C_6  and  N_7
REMARK    5  A    between atoms: C_12  and  C_13
REMARK    6  A    between atoms: C_13  and  O_15
REMARK                            x       y       z     vdW  Elec       q    Type
REMARK                         _______ _______ _______ _____ _____    ______ ____
ROOT
ATOM      1  N   UNL     1      44.372   4.062  10.924  0.00  0.00    +0.000 N 
ATOM      2  C   UNL     1      43.041   4.024  11.252  0.00  0.00    +0.000 A 
ATOM      3  C   UNL     1      42.689   5.259  11.743  0.00  0.00    +0.000 A 
ATOM      4  C   UNL     1      43.844   6.086  11.707  0.00  0.00    +0.000 A 
ATOM      5  C   UNL     1      44.102   7.414  12.104  0.00  0.00    +0.000 A 
ATOM      6  C   UNL     1      45.386   7.950  11.928  0.00  0.00    +0.000 A 
ATOM      7  C   UNL     1      46.383   7.208  11.295  0.00  0.00    +0.000 A 
ATOM      8  C   UNL     1      46.137   5.897  10.878  0.00  0.00    +0.000 A 
ATOM      9  C   UNL     1      44.873   5.337  11.129  0.00  0.00    +0.000 A 
ENDROOT
BRANCH   6  10
ATOM     10  C   UNL     1      45.633   9.337  12.400  0.00  0.00    +0.000 C 
ATOM     11  O   UNL     1      46.740   9.843  12.431  0.00  0.00    +0.000 OA
BRANCH  10  12
ATOM     12  O   UNL     1      44.507  10.002  12.739  0.00  0.00    +0.000 OA
ATOM     13  H   UNL     1      44.542  10.460  13.600  0.00  0.00    +0.000 HD
ENDBRANCH  10  12
ENDBRANCH   6  10
BRANCH   1  14
ATOM     14  C   UNL     1      45.118   2.909  10.438  0.00  0.00    +0.000 C 
BRANCH  14  17
ATOM     15  C   UNL     1      46.683   2.249   7.893  0.00  0.00    +0.000 C 
ATOM     16  C   UNL     1      45.565   1.366   8.426  0.00  0.00    +0.000 C 
ATOM     17  C   UNL     1      44.642   2.388   9.065  0.00  0.00    +0.000 C 
ATOM     18  C   UNL     1      44.711   3.495   8.014  0.00  0.00    +0.000 C 
ATOM     19  O   UNL     1      46.019   3.433   7.412  0.00  0.00    +0.000 OA
BRANCH  15  20
ATOM     20  C   UNL     1      47.557   1.603   6.820  0.00  0.00    +0.000 C 
BRANCH  20  21
ATOM     21  N   UNL     1      48.614   2.501   6.343  0.00  0.00    +0.000 NA
ATOM     22  H   UNL     1      49.465   1.956   6.205  0.00  0.00    +0.000 HD
ATOM     23  H   UNL     1      48.836   3.181   7.070  0.00  0.00    +0.000 HD
ENDBRANCH  20  21
ENDBRANCH  15  20
ENDBRANCH  14  17
ENDBRANCH   1  14
TORSDOF 6
ENDMDL
MODEL 3
REMARK VINA RESULT:    -6.182      3.150      4.728
REMARK INTER + INTRA:          -8.388
REMARK INTER:                  -7.689
REMARK INTRA:                  -0.699
REMARK UNBOUND:                -0.400
REMARK  Name = 
REMARK  6 active torsions:
REMARK  status: ('A' for Active; 'I' for Inactive)
REMARK    1  A    between atoms: N_1  and  C_2
REMARK    2  A    between atoms: C_2  and  C_3
REMARK    3  A    between atoms: C_5  and  C_6
REMARK    4  A    between atoms: C_6  and  N_7
REMARK    5  A    between atoms: C_12  and  C_13
REMARK    6  A    between atoms: C_13  and  O_15
REMARK                            x       y       z     vdW  Elec       q    Type
REMARK                         _______ _______ _______ _____ _____    ______ ____
ROOT
ATOM      1  N   UNL     1      47.209   6.849  12.681  0.00  0.00    +0.000 N 
ATOM      2  C   UNL     1      47.628   6.357  13.891  0.00  0.00    +0.000 A 
ATOM      3  C   UNL     1      47.070   5.111  14.060  0.00  0.00    +0.000 A 
ATOM      4  C   UNL     1      46.288   4.826  12.908  0.00  0.00    +0.000 A 
ATOM      5  C   UNL     1      45.472   3.740  12.531  0.00  0.00    +0.000 A 
ATOM      6  C   UNL     1      44.817   3.765  11.291  0.00  0.00    +0.000 A 
ATOM      7  C   UNL     1      45.030   4.817  10.399  0.00  0.00    +0.000 A 
ATOM      8  C   UNL     1      45.852   5.892  10.750  0.00  0.00    +0.000 A 
ATOM      9  C   UNL     1      46.441   5.899  12.026  0.00  0.00    +0.000 A 
ENDROOT
BRANCH   6  10
ATOM     10  C   UNL     1      43.930   2.625  10.948  0.00  0.00    +0.000 C 
ATOM     11  O   UNL     1      42.925   2.351  11.579  0.00  0.00    +0.000 OA
BRANCH  10  12
ATOM     12  O   UNL     1      44.312   1.956   9.839  0.00  0.00    +0.000 OA
ATOM     13  H   UNL     1      45.049   2.364   9.346  0.00  0.00    +0.000 HD
ENDBRANCH  10  12
ENDBRANCH   6  10
BRANCH   1  14
ATOM     14  C   UNL     1      47.541   8.180  12.191  0.00  0.00    +0.000 C 
BRANCH  14  17
ATOM     15  C   UNL     1      44.923   9.490  11.300  0.00  0.00    +0.000 C 
ATOM     16  C   UNL     1      45.204   9.107  12.745  0.00  0.00    +0.000 C 
ATOM     17  C   UNL     1      46.706   9.309  12.833  0.00  0.00    +0.000 C 
ATOM     18  C   UNL     1      46.841  10.603  12.032  0.00  0.00    +0.000 C 
ATOM     19  O   UNL     1      45.797  10.605  11.038  0.00  0.00    +0.000 OA
BRANCH  15  20
ATOM     20  C   UNL     1      43.463   9.820  10.994  0.00  0.00    +0.000 C 
BRANCH  20  21
ATOM     21  N   UNL     1      42.627   8.618  10.896  0.00  0.00    +0.000 NA
ATOM     22  H   UNL     1      42.080   8.674  10.036  0.00  0.00    +0.000 HD
ATOM     23  H   UNL     1      41.949   8.613  11.656  0.00  0.00    +0.000 HD
ENDBRANCH  20  21
ENDBRANCH  15  20
ENDBRANCH  14  17
ENDBRANCH   1  14
TORSDOF 6
ENDMDL
MODEL 4
REMARK VINA RESULT:    -6.049      1.773      2.686
REMARK INTER + INTRA:          -8.217
REMARK INTER:                  -8.419
REMARK INTRA:                   0.202
REMARK UNBOUND:                -0.400
REMARK  Name = 
REMARK  6 active torsions:
REMARK  status: ('A' for Active; 'I' for Inactive)
REMARK    1  A    between atoms: N_1  and  C_2
REMARK    2  A    between atoms: C_2  and  C_3
REMARK    3  A    between atoms: C_5  and  C_6
REMARK    4  A    between atoms: C_6  and  N_7
REMARK    5  A    between atoms: C_12  and  C_13
REMARK    6  A    between atoms: C_13  and  O_15
REMARK                            x       y       z     vdW  Elec       q    Type
REMARK                         _______ _______ _______ _____ _____    ______ ____
ROOT
ATOM      1  N   UNL     1      44.262   4.758  10.035  0.00  0.00    +0.000 N 
ATOM      2  C   UNL     1      44.998   5.862   9.688  0.00  0.00    +0.000 A 
ATOM      3  C   UNL     1      46.015   5.452   8.859  0.00  0.00    +0.000 A 
ATOM      4  C   UNL     1      45.895   4.047   8.686  0.00  0.00    +0.000 A 
ATOM      5  C   UNL     1      46.652   3.084   7.989  0.00  0.00    +0.000 A 
ATOM      6  C   UNL     1      46.255   1.739   8.017  0.00  0.00    +0.000 A 
ATOM      7  C   UNL     1      45.077   1.362   8.662  0.00  0.00    +0.000 A 
ATOM      8  C   UNL     1      44.305   2.308   9.342  0.00  0.00    +0.000 A 
ATOM      9  C   UNL     1      44.751   3.640   9.378  0.00  0.00    +0.000 A 
ENDROOT
BRANCH   6  10
ATOM     10  C   UNL     1      47.103   0.747   7.308  0.00  0.00    +0.000 C 
ATOM     11  O   UNL     1      47.942   1.059   6.481  0.00  0.00    +0.000 OA
BRANCH  10  12
ATOM     12  O   UNL     1      46.897  -0.526   7.709  0.00  0.00    +0.000 OA
ATOM     13  H   UNL     1      46.794  -0.643   8.672  0.00  0.00    +0.000 HD
ENDBRANCH  10  12
ENDBRANCH   6  10
BRANCH   1  14
ATOM     14  C   UNL     1      43.141   4.793  10.964  0.00  0.00    +0.000 C 
BRANCH  14  17
ATOM     15  C   UNL     1      45.371   4.362  13.015  0.00  0.00    +0.000 C 
ATOM     16  C   UNL     1      44.928   5.742  12.556  0.00  0.00    +0.000 C 
ATOM     17  C   UNL     1      43.449   5.521  12.290  0.00  0.00    +0.000 C 
ATOM     18  C   UNL     1      43.100   4.637  13.486  0.00  0.00    +0.000 C 
ATOM     19  O   UNL     1      44.276   3.870  13.812  0.00  0.00    +0.000 OA
BRANCH  15  20
ATOM     20  C   UNL     1      46.695   4.331  13.776  0.00  0.00    +0.000 C 
BRANCH  20  21
ATOM     21  N   UNL     1      47.027   5.629  14.374  0.00  0.00    +0.000 NA
ATOM     22  H   UNL     1      46.676   6.367  13.763  0.00  0.00    +0.000 HD
ATOM     23  H   UNL     1      48.039   5.745  14.396  0.00  0.00    +0.000 HD
ENDBRANCH  20  21
ENDBRANCH  15  20
ENDBRANCH  14  17
ENDBRANCH   1  14
TORSDOF 6
ENDMDL
MODEL 5
REMARK VINA RESULT:    -5.963      4.616      8.634
REMARK INTER + INTRA:          -8.106
REMARK INTER:                  -7.633
REMARK INTRA:                  -0.473
REMARK UNBOUND:                -0.400
REMARK  Name = 
REMARK  6 active torsions:
REMARK  status: ('A' for Active; 'I' for Inactive)
REMARK    1  A    between atoms: N_1  and  C_2
REMARK    2  A    between atoms: C_2  and  C_3
REMARK    3  A    between atoms: C_5  and  C_6
REMARK    4  A    between atoms: C_6  and  N_7
REMARK    5  A    between atoms: C_12  and  C_13
REMARK    6  A    between atoms: C_13  and  O_15
REMARK                            x       y       z     vdW  Elec       q    Type
REMARK                         _______ _______ _______ _____ _____    ______ ____
ROOT
ATOM      1  N   UNL     1      47.765   5.631  14.493  0.00  0.00    +0.000 N 
ATOM      2  C   UNL     1      48.470   6.802  14.378  0.00  0.00    +0.000 A 
ATOM      3  C   UNL     1      49.041   7.075  15.599  0.00  0.00    +0.000 A 
ATOM      4  C   UNL     1      48.679   6.031  16.492  0.00  0.00    +0.000 A 
ATOM      5  C   UNL     1      48.931   5.786  17.857  0.00  0.00    +0.000 A 
ATOM      6  C   UNL     1      48.417   4.628  18.459  0.00  0.00    +0.000 A 
ATOM      7  C   UNL     1      47.728   3.683  17.700  0.00  0.00    +0.000 A 
ATOM      8  C   UNL     1      47.485   3.901  16.341  0.00  0.00    +0.000 A 
ATOM      9  C   UNL     1      47.933   5.101  15.762  0.00  0.00    +0.000 A 
ENDROOT
BRANCH   6  10
ATOM     10  C   UNL     1      48.665   4.428  19.909  0.00  0.00    +0.000 C 
ATOM     11  O   UNL     1      49.099   5.304  20.637  0.00  0.00    +0.000 OA
BRANCH  10  12
ATOM     12  O   UNL     1      48.312   3.203  20.355  0.00  0.00    +0.000 OA
ATOM     13  H   UNL     1      47.394   3.132  20.679  0.00  0.00    +0.000 HD
ENDBRANCH  10  12
ENDBRANCH   6  10
BRANCH   1  14
ATOM     14  C   UNL     1      46.964   5.061  13.418  0.00  0.00    +0.000 C 
BRANCH  14  17
ATOM     15  C   UNL     1      44.462   4.273  11.843  0.00  0.00    +0.000 C 
ATOM     16  C   UNL     1      44.403   5.016  13.169  0.00  0.00    +0.000 C 
ATOM     17  C   UNL     1      45.671   5.848  13.114  0.00  0.00    +0.000 C 
ATOM     18  C   UNL     1      45.634   6.283  11.651  0.00  0.00    +0.000 C 
ATOM     19  O   UNL     1      44.987   5.233  10.906  0.00  0.00    +0.000 OA
BRANCH  15  20
ATOM     20  C   UNL     1      43.133   3.681  11.377  0.00  0.00    +0.000 C 
BRANCH  20  21
ATOM     21  N   UNL     1      43.039   2.241  11.639  0.00  0.00    +0.000 NA
ATOM     22  H   UNL     1      42.264   2.078  12.283  0.00  0.00    +0.000 HD
ATOM     23  H   UNL     1      43.876   1.929  12.130  0.00  0.00    +0.000 HD
ENDBRANCH  20  21
ENDBRANCH  15  20
ENDBRANCH  14  17
ENDBRANCH   1  14
TORSDOF 6
ENDMDL
MODEL 6
REMARK VINA RESULT:    -5.960      2.455      6.709
REMARK INTER + INTRA:          -8.101
REMARK INTER:                  -7.730
REMARK INTRA:                  -0.371
REMARK UNBOUND:                -0.400
REMARK  Name = 
REMARK  6 active torsions:
REMARK  status: ('A' for Active; 'I' for Inactive)
REMARK    1  A    between atoms: N_1  and  C_2
REMARK    2  A    between atoms: C_2  and  C_3
REMARK    3  A    between atoms: C_5  and  C_6
REMARK    4  A    between atoms: C_6  and  N_7
REMARK    5  A    between atoms: C_12  and  C_13
REMARK    6  A    between atoms: C_13  and  O_15
REMARK                            x       y       z     vdW  Elec       q    Type
REMARK                         _______ _______ _______ _____ _____    ______ ____
ROOT
ATOM      1  N   UNL     1      45.438   4.795  11.113  0.00  0.00    +0.000 N 
ATOM      2  C   UNL     1      44.718   3.987  11.956  0.00  0.00    +0.000 A 
ATOM      3  C   UNL     1      45.191   4.176  13.233  0.00  0.00    +0.000 A 
ATOM      4  C   UNL     1      46.233   5.140  13.172  0.00  0.00    +0.000 A 
ATOM      5  C   UNL     1      47.098   5.700  14.134  0.00  0.00    +0.000 A 
ATOM      6  C   UNL     1      48.045   6.657  13.739  0.00  0.00    +0.000 A 
ATOM      7  C   UNL     1      48.084   7.112  12.422  0.00  0.00    +0.000 A 
ATOM      8  C   UNL     1      47.221   6.580  11.459  0.00  0.00    +0.000 A 
ATOM      9  C   UNL     1      46.329   5.565  11.844  0.00  0.00    +0.000 A 
ENDROOT
BRANCH   6  10
ATOM     10  C   UNL     1      48.968   7.191  14.773  0.00  0.00    +0.000 C 
ATOM     11  O   UNL     1      48.584   7.697  15.812  0.00  0.00    +0.000 OA
BRANCH  10  12
ATOM     12  O   UNL     1      50.274   7.011  14.477  0.00  0.00    +0.000 OA
ATOM     13  H   UNL     1      50.480   6.175  14.016  0.00  0.00    +0.000 HD
ENDBRANCH  10  12
ENDBRANCH   6  10
BRANCH   1  14
ATOM     14  C   UNL     1      45.266   4.812   9.667  0.00  0.00    +0.000 C 
BRANCH  14  17
ATOM     15  C   UNL     1      46.474   2.647   7.873  0.00  0.00    +0.000 C 
ATOM     16  C   UNL     1      45.600   2.329   9.076  0.00  0.00    +0.000 C 
ATOM     17  C   UNL     1      44.653   3.516   9.094  0.00  0.00    +0.000 C 
ATOM     18  C   UNL     1      44.388   3.659   7.597  0.00  0.00    +0.000 C 
ATOM     19  O   UNL     1      45.575   3.222   6.906  0.00  0.00    +0.000 OA
BRANCH  15  20
ATOM     20  C   UNL     1      47.246   1.458   7.306  0.00  0.00    +0.000 C 
BRANCH  20  21
ATOM     21  N   UNL     1      48.371   1.873   6.460  0.00  0.00    +0.000 NA
ATOM     22  H   UNL     1      49.151   2.135   7.064  0.00  0.00    +0.000 HD
ATOM     23  H   UNL     1      48.119   2.719   5.951  0.00  0.00    +0.000 HD
ENDBRANCH  20  21
ENDBRANCH  15  20
ENDBRANCH  14  17
ENDBRANCH   1  14
TORSDOF 6
ENDMDL
MODEL 7
REMARK VINA RESULT:    -5.702      4.312      5.897
REMARK INTER + INTRA:          -7.769
REMARK INTER:                  -7.490
REMARK INTRA:                  -0.279
REMARK UNBOUND:                -0.400
REMARK  Name = 
REMARK  6 active torsions:
REMARK  status: ('A' for Active; 'I' for Inactive)
REMARK    1  A    between atoms: N_1  and  C_2
REMARK    2  A    between atoms: C_2  and  C_3
REMARK    3  A    between atoms: C_5  and  C_6
REMARK    4  A    between atoms: C_6  and  N_7
REMARK    5  A    between atoms: C_12  and  C_13
REMARK    6  A    between atoms: C_13  and  O_15
REMARK                            x       y       z     vdW  Elec       q    Type
REMARK                         _______ _______ _______ _____ _____    ______ ____
ROOT
ATOM      1  N   UNL     1      47.539   5.861  14.203  0.00  0.00    +0.000 N 
ATOM      2  C   UNL     1      47.570   7.170  13.794  0.00  0.00    +0.000 A 
ATOM      3  C   UNL     1      46.797   7.279  12.662  0.00  0.00    +0.000 A 
ATOM      4  C   UNL     1      46.267   5.993  12.372  0.00  0.00    +0.000 A 
ATOM      5  C   UNL     1      45.451   5.487  11.340  0.00  0.00    +0.000 A 
ATOM      6  C   UNL     1      45.095   4.130  11.341  0.00  0.00    +0.000 A 
ATOM      7  C   UNL     1      45.477   3.300  12.395  0.00  0.00    +0.000 A 
ATOM      8  C   UNL     1      46.271   3.790  13.436  0.00  0.00    +0.000 A 
ATOM      9  C   UNL     1      46.691   5.131  13.387  0.00  0.00    +0.000 A 
ENDROOT
BRANCH   6  10
ATOM     10  C   UNL     1      44.273   3.624  10.213  0.00  0.00    +0.000 C 
ATOM     11  O   UNL     1      44.086   4.257   9.189  0.00  0.00    +0.000 OA
BRANCH  10  12
ATOM     12  O   UNL     1      43.799   2.375  10.407  0.00  0.00    +0.000 OA
ATOM     13  H   UNL     1      44.479   1.675  10.429  0.00  0.00    +0.000 HD
ENDBRANCH  10  12
ENDBRANCH   6  10
BRANCH   1  14
ATOM     14  C   UNL     1      48.304   5.350  15.333  0.00  0.00    +0.000 C 
BRANCH  14  17
ATOM     15  C   UNL     1      48.872   4.592  18.243  0.00  0.00    +0.000 C 
ATOM     16  C   UNL     1      47.520   5.105  17.773  0.00  0.00    +0.000 C 
ATOM     17  C   UNL     1      47.458   4.562  16.356  0.00  0.00    +0.000 C 
ATOM     18  C   UNL     1      48.045   3.170  16.585  0.00  0.00    +0.000 C 
ATOM     19  O   UNL     1      48.985   3.274  17.673  0.00  0.00    +0.000 OA
BRANCH  15  20
ATOM     20  C   UNL     1      49.066   4.582  19.758  0.00  0.00    +0.000 C 
BRANCH  20  21
ATOM     21  N   UNL     1      48.361   3.470  20.405  0.00  0.00    +0.000 NA
ATOM     22  H   UNL     1      48.588   2.609  19.906  0.00  0.00    +0.000 HD
ATOM     23  H   UNL     1      47.356   3.596  20.297  0.00  0.00    +0.000 HD
ENDBRANCH  20  21
ENDBRANCH  15  20
ENDBRANCH  14  17
ENDBRANCH   1  14
TORSDOF 6
ENDMDL
MODEL 8
REMARK VINA RESULT:    -5.659      3.314      5.124
REMARK INTER + INTRA:          -7.712
REMARK INTER:                  -7.190
REMARK INTRA:                  -0.522
REMARK UNBOUND:                -0.400
REMARK  Name = 
REMARK  6 active torsions:
REMARK  status: ('A' for Active; 'I' for Inactive)
REMARK    1  A    between atoms: N_1  and  C_2
REMARK    2  A    between atoms: C_2  and  C_3
REMARK    3  A    between atoms: C_5  and  C_6
REMARK    4  A    between atoms: C_6  and  N_7
REMARK    5  A    between atoms: C_12  and  C_13
REMARK    6  A    between atoms: C_13  and  O_15
REMARK                            x       y       z     vdW  Elec       q    Type
REMARK                         _______ _______ _______ _____ _____    ______ ____
ROOT
ATOM      1  N   UNL     1      47.237   6.671  13.278  0.00  0.00    +0.000 N 
ATOM      2  C   UNL     1      47.682   5.937  14.349  0.00  0.00    +0.000 A 
ATOM      3  C   UNL     1      47.095   4.695  14.286  0.00  0.00    +0.000 A 
ATOM      4  C   UNL     1      46.269   4.663  13.130  0.00  0.00    +0.000 A 
ATOM      5  C   UNL     1      45.411   3.693  12.575  0.00  0.00    +0.000 A 
ATOM      6  C   UNL     1      44.717   3.979  11.390  0.00  0.00    +0.000 A 
ATOM      7  C   UNL     1      44.930   5.184  10.719  0.00  0.00    +0.000 A 
ATOM      8  C   UNL     1      45.792   6.149  11.247  0.00  0.00    +0.000 A 
ATOM      9  C   UNL     1      46.422   5.888  12.476  0.00  0.00    +0.000 A 
ENDROOT
BRANCH   6  10
ATOM     10  C   UNL     1      43.788   2.950  10.859  0.00  0.00    +0.000 C 
ATOM     11  O   UNL     1      43.015   2.325  11.563  0.00  0.00    +0.000 OA
BRANCH  10  12
ATOM     12  O   UNL     1      43.842   2.812   9.517  0.00  0.00    +0.000 OA
ATOM     13  H   UNL     1      44.707   3.019   9.116  0.00  0.00    +0.000 HD
ENDBRANCH  10  12
ENDBRANCH   6  10
BRANCH   1  14
ATOM     14  C   UNL     1      47.590   8.066  13.052  0.00  0.00    +0.000 C 
BRANCH  14  17
ATOM     15  C   UNL     1      50.578   8.602  12.670  0.00  0.00    +0.000 C 
ATOM     16  C   UNL     1      49.790   7.652  11.782  0.00  0.00    +0.000 C 
ATOM     17  C   UNL     1      48.419   8.303  11.772  0.00  0.00    +0.000 C 
ATOM     18  C   UNL     1      48.828   9.770  11.657  0.00  0.00    +0.000 C 
ATOM     19  O   UNL     1      50.099   9.915  12.322  0.00  0.00    +0.000 OA
BRANCH  15  20
ATOM     20  C   UNL     1      52.096   8.492  12.544  0.00  0.00    +0.000 C 
BRANCH  20  21
ATOM     21  N   UNL     1      52.503   7.639  11.422  0.00  0.00    +0.000 NA
ATOM     22  H   UNL     1      51.888   7.829  10.630  0.00  0.00    +0.000 HD
ATOM     23  H   UNL     1      52.348   6.661  11.664  0.00  0.00    +0.000 HD
ENDBRANCH  20  21
ENDBRANCH  15  20
ENDBRANCH  14  17
ENDBRANCH   1  14
TORSDOF 6
ENDMDL
MODEL 9
REMARK VINA RESULT:    -5.493      4.587      6.473
REMARK INTER + INTRA:          -7.498
REMARK INTER:                  -7.035
REMARK INTRA:                  -0.462
REMARK UNBOUND:                -0.400
REMARK  Name = 
REMARK  6 active torsions:
REMARK  status: ('A' for Active; 'I' for Inactive)
REMARK    1  A    between atoms: N_1  and  C_2
REMARK    2  A    between atoms: C_2  and  C_3
REMARK    3  A    between atoms: C_5  and  C_6
REMARK    4  A    between atoms: C_6  and  N_7
REMARK    5  A    between atoms: C_12  and  C_13
REMARK    6  A    between atoms: C_13  and  O_15
REMARK                            x       y       z     vdW  Elec       q    Type
REMARK                         _______ _______ _______ _____ _____    ______ ____
ROOT
ATOM      1  N   UNL     1      46.748   5.074  13.845  0.00  0.00    +0.000 N 
ATOM      2  C   UNL     1      46.208   3.973  13.229  0.00  0.00    +0.000 A 
ATOM      3  C   UNL     1      45.342   4.413  12.256  0.00  0.00    +0.000 A 
ATOM      4  C   UNL     1      45.358   5.834  12.270  0.00  0.00    +0.000 A 
ATOM      5  C   UNL     1      44.666   6.822  11.541  0.00  0.00    +0.000 A 
ATOM      6  C   UNL     1      44.916   8.177  11.802  0.00  0.00    +0.000 A 
ATOM      7  C   UNL     1      45.899   8.551  12.718  0.00  0.00    +0.000 A 
ATOM      8  C   UNL     1      46.607   7.583  13.436  0.00  0.00    +0.000 A 
ATOM      9  C   UNL     1      46.295   6.229  13.228  0.00  0.00    +0.000 A 
ENDROOT
BRANCH   6  10
ATOM     10  C   UNL     1      44.135   9.188  11.046  0.00  0.00    +0.000 C 
ATOM     11  O   UNL     1      44.601  10.252  10.679  0.00  0.00    +0.000 OA
BRANCH  10  12
ATOM     12  O   UNL     1      42.876   8.793  10.754  0.00  0.00    +0.000 OA
ATOM     13  H   UNL     1      42.285   8.703  11.525  0.00  0.00    +0.000 HD
ENDBRANCH  10  12
ENDBRANCH   6  10
BRANCH   1  14
ATOM     14  C   UNL     1      47.659   4.999  14.979  0.00  0.00    +0.000 C 
BRANCH  14  17
ATOM     15  C   UNL     1      48.723   4.577  17.817  0.00  0.00    +0.000 C 
ATOM     16  C   UNL     1      47.240   4.693  17.500  0.00  0.00    +0.000 C 
ATOM     17  C   UNL     1      47.170   4.075  16.115  0.00  0.00    +0.000 C 
ATOM     18  C   UNL     1      48.127   2.900  16.305  0.00  0.00    +0.000 C 
ATOM     19  O   UNL     1      49.119   3.305  17.270  0.00  0.00    +0.000 OA
BRANCH  15  20
ATOM     20  C   UNL     1      49.076   4.702  19.298  0.00  0.00    +0.000 C 
BRANCH  20  21
ATOM     21  N   UNL     1      48.496   3.622  20.104  0.00  0.00    +0.000 NA
ATOM     22  H   UNL     1      47.504   3.819  20.244  0.00  0.00    +0.000 HD
ATOM     23  H   UNL     1      48.913   3.630  21.033  0.00  0.00    +0.000 HD
ENDBRANCH  20  21
ENDBRANCH  15  20
ENDBRANCH  14  17
ENDBRANCH   1  14
TORSDOF 6
ENDMDL
