MODEL 1
REMARK VINA RESULT:    -8.513      0.000      0.000
REMARK INTER + INTRA:         -13.223
REMARK INTER:                 -12.245
REMARK INTRA:                  -0.978
REMARK UNBOUND:                -0.978
REMARK  Name = 
REMARK  8 active torsions:
REMARK  status: ('A' for Active; 'I' for Inactive)
REMARK    1  A    between atoms: N_1  and  C_2
REMARK    2  A    between atoms: C_2  and  C_3
REMARK    3  A    between atoms: C_6  and  O_7
REMARK    4  A    between atoms: O_7  and  C_8
REMARK    5  A    between atoms: C_8  and  C_9
REMARK    6  A    between atoms: C_12  and  C_13
REMARK    7  A    between atoms: C_13  and  N_14
REMARK    8  A    between atoms: C_15  and  C_17
REMARK                            x       y       z     vdW  Elec       q    Type
REMARK                         _______ _______ _______ _____ _____    ______ ____
ROOT
ATOM      1  C   UNL     1      44.940   4.959  11.765  0.00  0.00    +0.000 A 
ATOM      2  C   UNL     1      45.657   4.473  12.866  0.00  0.00    +0.000 A 
ATOM      3  C   UNL     1      46.698   5.220  13.424  0.00  0.00    +0.000 A 
ATOM      4  C   UNL     1      47.026   6.481  12.907  0.00  0.00    +0.000 A 
ATOM      5  C   UNL     1      46.330   6.951  11.786  0.00  0.00    +0.000 A 
ATOM      6  C   UNL     1      45.288   6.205  11.228  0.00  0.00    +0.000 A 
ENDROOT
BRANCH   1   7
ATOM      7  C   UNL     1      43.819   4.147  11.163  0.00  0.00    +0.000 C 
BRANCH   7   8
ATOM      8  O   UNL     1      43.768   4.340   9.747  0.00  0.00    +0.000 OA
BRANCH   8  12
ATOM      9  C   UNL     1      46.493   1.964   7.750  0.00  0.00    +0.000 A 
ATOM     10  C   UNL     1      46.473   3.321   7.435  0.00  0.00    +0.000 A 
ATOM     11  C   UNL     1      45.565   4.157   8.079  0.00  0.00    +0.000 A 
ATOM     12  C   UNL     1      44.686   3.630   9.018  0.00  0.00    +0.000 A 
ATOM     13  C   UNL     1      44.754   2.259   9.250  0.00  0.00    +0.000 A 
ATOM     14  N   UNL     1      45.633   1.419   8.646  0.00  0.00    +0.000 NA
BRANCH   9  15
ATOM     15  C   UNL     1      47.541   1.068   7.126  0.00  0.00    +0.000 C 
BRANCH  15  16
ATOM     16  N   UNL     1      48.351   1.789   6.136  0.00  0.00    +0.000 NA
ATOM     17  H   UNL     1      49.014   1.141   5.717  0.00  0.00    +0.000 HD
ATOM     18  H   UNL     1      48.910   2.477   6.642  0.00  0.00    +0.000 HD
ENDBRANCH  15  16
ENDBRANCH   9  15
ENDBRANCH   8  12
ENDBRANCH   7   8
ENDBRANCH   1   7
BRANCH   4  19
ATOM     19  C   UNL     1      48.104   7.319  13.543  0.00  0.00    +0.000 C 
BRANCH  19  20
ATOM     20  N   UNL     1      48.000   7.329  14.979  0.00  0.00    +0.000 N 
ATOM     21  C   UNL     1      49.071   6.974  15.763  0.00  0.00    +0.000 C 
ATOM     22  O   UNL     1      50.165   6.689  15.286  0.00  0.00    +0.000 OA
ATOM     23  H   UNL     1      47.068   7.333  15.374  0.00  0.00    +0.000 HD
BRANCH  21  24
ATOM     24  C   UNL     1      48.856   7.013  17.216  0.00  0.00    +0.000 A 
ATOM     25  C   UNL     1      48.619   8.227  17.845  0.00  0.00    +0.000 A 
ATOM     26  S   UNL     1      48.348   8.088  19.523  0.00  0.00    +0.000 S 
ATOM     27  C   UNL     1      48.587   6.403  19.476  0.00  0.00    +0.000 A 
ATOM     28  N   UNL     1      48.518   5.656  20.611  0.00  0.00    +0.000 NA
ATOM     29  C   UNL     1      48.745   4.397  20.434  0.00  0.00    +0.000 A 
ATOM     30  N   UNL     1      49.032   3.818  19.225  0.00  0.00    +0.000 N 
ATOM     31  C   UNL     1      49.082   4.527  18.050  0.00  0.00    +0.000 A 
ATOM     32  O   UNL     1      49.291   3.969  16.979  0.00  0.00    +0.000 OA
ATOM     33  C   UNL     1      48.848   5.953  18.195  0.00  0.00    +0.000 A 
ATOM     34  H   UNL     1      49.189   2.823  19.151  0.00  0.00    +0.000 HD
ENDBRANCH  21  24
ENDBRANCH  19  20
ENDBRANCH   4  19
TORSDOF 8
ENDMDL
MODEL 2
REMARK VINA RESULT:    -8.138      1.540      2.326
REMARK INTER + INTRA:         -12.684
REMARK INTER:                 -11.969
REMARK INTRA:                  -0.715
REMARK UNBOUND:                -0.978
REMARK  Name = 
REMARK  8 active torsions:
REMARK  status: ('A' for Active; 'I' for Inactive)
REMARK    1  A    between atoms: N_1  and  C_2
REMARK    2  A    between atoms: C_2  and  C_3
REMARK    3  A    between atoms: C_6  and  O_7
REMARK    4  A    between atoms: O_7  and  C_8
REMARK    5  A    between atoms: C_8  and  C_9
REMARK    6  A    between atoms: C_12  and  C_13
REMARK    7  A    between atoms: C_13  and  N_14
REMARK    8  A    between atoms: C_15  and  C_17
REMARK                            x       y       z     vdW  Elec       q    Type
REMARK                         _______ _______ _______ _____ _____    ______ ____
ROOT
ATOM      1  C   UNL     1      44.872   5.025  11.262  0.00  0.00    +0.000 A 
ATOM      2  C   UNL     1      45.457   6.257  10.944  0.00  0.00    +0.000 A 
ATOM      3  C   UNL     1      46.452   6.806  11.758  0.00  0.00    +0.000 A 
ATOM      4  C   UNL     1      46.899   6.119  12.895  0.00  0.00    +0.000 A 
ATOM      5  C   UNL     1      46.290   4.903  13.231  0.00  0.00    +0.000 A 
ATOM      6  C   UNL     1      45.296   4.354  12.417  0.00  0.00    +0.000 A 
ENDROOT
BRANCH   1   7
ATOM      7  C   UNL     1      43.795   4.439  10.382  0.00  0.00    +0.000 C 
BRANCH   7   8
ATOM      8  O   UNL     1      44.093   3.076  10.071  0.00  0.00    +0.000 OA
BRANCH   8  12
ATOM      9  C   UNL     1      46.581   2.746   6.792  0.00  0.00    +0.000 A 
ATOM     10  C   UNL     1      46.484   1.643   7.637  0.00  0.00    +0.000 A 
ATOM     11  C   UNL     1      45.663   1.713   8.759  0.00  0.00    +0.000 A 
ATOM     12  C   UNL     1      44.958   2.881   9.027  0.00  0.00    +0.000 A 
ATOM     13  C   UNL     1      45.136   3.944   8.146  0.00  0.00    +0.000 A 
ATOM     14  N   UNL     1      45.922   3.905   7.040  0.00  0.00    +0.000 NA
BRANCH   9  15
ATOM     15  C   UNL     1      47.395   2.643   5.520  0.00  0.00    +0.000 C 
BRANCH  15  16
ATOM     16  N   UNL     1      48.572   1.782   5.698  0.00  0.00    +0.000 NA
ATOM     17  H   UNL     1      48.606   1.467   6.664  0.00  0.00    +0.000 HD
ATOM     18  H   UNL     1      49.399   2.365   5.562  0.00  0.00    +0.000 HD
ENDBRANCH  15  16
ENDBRANCH   9  15
ENDBRANCH   8  12
ENDBRANCH   7   8
ENDBRANCH   1   7
BRANCH   4  19
ATOM     19  C   UNL     1      48.015   6.674  13.742  0.00  0.00    +0.000 C 
BRANCH  19  20
ATOM     20  N   UNL     1      47.933   6.216  15.105  0.00  0.00    +0.000 N 
ATOM     21  C   UNL     1      48.993   6.370  15.964  0.00  0.00    +0.000 C 
ATOM     22  O   UNL     1      50.026   6.946  15.631  0.00  0.00    +0.000 OA
ATOM     23  H   UNL     1      47.202   5.550  15.325  0.00  0.00    +0.000 HD
BRANCH  21  24
ATOM     24  C   UNL     1      48.806   5.864  17.330  0.00  0.00    +0.000 A 
ATOM     25  C   UNL     1      49.069   4.530  17.613  0.00  0.00    +0.000 A 
ATOM     26  S   UNL     1      48.842   4.121  19.252  0.00  0.00    +0.000 S 
ATOM     27  C   UNL     1      48.335   5.701  19.633  0.00  0.00    +0.000 A 
ATOM     28  N   UNL     1      47.960   6.028  20.899  0.00  0.00    +0.000 NA
ATOM     29  C   UNL     1      47.574   7.252  21.040  0.00  0.00    +0.000 A 
ATOM     30  N   UNL     1      47.533   8.179  20.030  0.00  0.00    +0.000 N 
ATOM     31  C   UNL     1      47.930   7.902  18.745  0.00  0.00    +0.000 A 
ATOM     32  O   UNL     1      47.928   8.769  17.878  0.00  0.00    +0.000 OA
ATOM     33  C   UNL     1      48.361   6.532  18.529  0.00  0.00    +0.000 A 
ATOM     34  H   UNL     1      47.232   9.126  20.208  0.00  0.00    +0.000 HD
ENDBRANCH  21  24
ENDBRANCH  19  20
ENDBRANCH   4  19
TORSDOF 8
ENDMDL
MODEL 3
REMARK VINA RESULT:    -8.128      1.568      1.885
REMARK INTER + INTRA:         -12.670
REMARK INTER:                 -12.110
REMARK INTRA:                  -0.559
REMARK UNBOUND:                -0.978
REMARK  Name = 
REMARK  8 active torsions:
REMARK  status: ('A' for Active; 'I' for Inactive)
REMARK    1  A    between atoms: N_1  and  C_2
REMARK    2  A    between atoms: C_2  and  C_3
REMARK    3  A    between atoms: C_6  and  O_7
REMARK    4  A    between atoms: O_7  and  C_8
REMARK    5  A    between atoms: C_8  and  C_9
REMARK    6  A    between atoms: C_12  and  C_13
REMARK    7  A    between atoms: C_13  and  N_14
REMARK    8  A    between atoms: C_15  and  C_17
REMARK                            x       y       z     vdW  Elec       q    Type
REMARK                         _______ _______ _______ _____ _____    ______ ____
ROOT
ATOM      1  C   UNL     1      44.693   5.797  11.228  0.00  0.00    +0.000 A 
ATOM      2  C   UNL     1      45.733   5.163  11.920  0.00  0.00    +0.000 A 
ATOM      3  C   UNL     1      46.630   5.903  12.695  0.00  0.00    +0.000 A 
ATOM      4  C   UNL     1      46.489   7.292  12.813  0.00  0.00    +0.000 A 
ATOM      5  C   UNL     1      45.470   7.930  12.095  0.00  0.00    +0.000 A 
ATOM      6  C   UNL     1      44.572   7.190  11.321  0.00  0.00    +0.000 A 
ENDROOT
BRANCH   1   7
ATOM      7  C   UNL     1      43.729   4.994  10.389  0.00  0.00    +0.000 C 
BRANCH   7   8
ATOM      8  O   UNL     1      44.121   3.620  10.358  0.00  0.00    +0.000 OA
BRANCH   8  12
ATOM      9  C   UNL     1      46.479   2.795   7.069  0.00  0.00    +0.000 A 
ATOM     10  C   UNL     1      46.196   1.742   7.936  0.00  0.00    +0.000 A 
ATOM     11  C   UNL     1      45.411   1.977   9.062  0.00  0.00    +0.000 A 
ATOM     12  C   UNL     1      44.927   3.256   9.312  0.00  0.00    +0.000 A 
ATOM     13  C   UNL     1      45.282   4.255   8.410  0.00  0.00    +0.000 A 
ATOM     14  N   UNL     1      46.038   4.057   7.300  0.00  0.00    +0.000 NA
BRANCH   9  15
ATOM     15  C   UNL     1      47.249   2.526   5.794  0.00  0.00    +0.000 C 
BRANCH  15  16
ATOM     16  N   UNL     1      48.431   1.690   6.041  0.00  0.00    +0.000 NA
ATOM     17  H   UNL     1      48.763   1.860   6.987  0.00  0.00    +0.000 HD
ATOM     18  H   UNL     1      49.171   2.017   5.419  0.00  0.00    +0.000 HD
ENDBRANCH  15  16
ENDBRANCH   9  15
ENDBRANCH   8  12
ENDBRANCH   7   8
ENDBRANCH   1   7
BRANCH   4  19
ATOM     19  C   UNL     1      47.414   8.089  13.697  0.00  0.00    +0.000 C 
BRANCH  19  20
ATOM     20  N   UNL     1      47.769   7.367  14.891  0.00  0.00    +0.000 N 
ATOM     21  C   UNL     1      49.014   6.803  15.027  0.00  0.00    +0.000 C 
ATOM     22  O   UNL     1      49.887   6.931  14.173  0.00  0.00    +0.000 OA
ATOM     23  H   UNL     1      47.010   7.059  15.488  0.00  0.00    +0.000 HD
BRANCH  21  24
ATOM     24  C   UNL     1      49.271   6.085  16.283  0.00  0.00    +0.000 A 
ATOM     25  C   UNL     1      50.291   6.511  17.123  0.00  0.00    +0.000 A 
ATOM     26  S   UNL     1      50.424   5.594  18.555  0.00  0.00    +0.000 S 
ATOM     27  C   UNL     1      49.155   4.564  18.079  0.00  0.00    +0.000 A 
ATOM     28  N   UNL     1      48.769   3.523  18.864  0.00  0.00    +0.000 NA
ATOM     29  C   UNL     1      47.814   2.809  18.369  0.00  0.00    +0.000 A 
ATOM     30  N   UNL     1      47.207   3.045  17.162  0.00  0.00    +0.000 N 
ATOM     31  C   UNL     1      47.543   4.102  16.352  0.00  0.00    +0.000 A 
ATOM     32  O   UNL     1      46.945   4.313  15.302  0.00  0.00    +0.000 OA
ATOM     33  C   UNL     1      48.625   4.929  16.856  0.00  0.00    +0.000 A 
ATOM     34  H   UNL     1      46.455   2.456  16.836  0.00  0.00    +0.000 HD
ENDBRANCH  21  24
ENDBRANCH  19  20
ENDBRANCH   4  19
TORSDOF 8
ENDMDL
MODEL 4
REMARK VINA RESULT:    -7.173      2.911      8.837
REMARK INTER + INTRA:         -11.296
REMARK INTER:                 -10.020
REMARK INTRA:                  -1.276
REMARK UNBOUND:                -0.978
REMARK  Name = 
REMARK  8 active torsions:
REMARK  status: ('A' for Active; 'I' for Inactive)
REMARK    1  A    between atoms: N_1  and  C_2
REMARK    2  A    between atoms: C_2  and  C_3
REMARK    3  A    between atoms: C_6  and  O_7
REMARK    4  A    between atoms: O_7  and  C_8
REMARK    5  A    between atoms: C_8  and  C_9
REMARK    6  A    between atoms: C_12  and  C_13
REMARK    7  A    between atoms: C_13  and  N_14
REMARK    8  A    between atoms: C_15  and  C_17
REMARK                            x       y       z     vdW  Elec       q    Type
REMARK                         _______ _______ _______ _____ _____    ______ ____
ROOT
ATOM      1  C   UNL     1      49.602   8.305  15.511  0.00  0.00    +0.000 A 
ATOM      2  C   UNL     1      50.131   7.595  14.425  0.00  0.00    +0.000 A 
ATOM      3  C   UNL     1      49.406   7.464  13.238  0.00  0.00    +0.000 A 
ATOM      4  C   UNL     1      48.146   8.063  13.104  0.00  0.00    +0.000 A 
ATOM      5  C   UNL     1      47.603   8.743  14.202  0.00  0.00    +0.000 A 
ATOM      6  C   UNL     1      48.329   8.876  15.389  0.00  0.00    +0.000 A 
ENDROOT
BRANCH   1   7
ATOM      7  C   UNL     1      50.387   8.440  16.793  0.00  0.00    +0.000 C 
BRANCH   7   8
ATOM      8  O   UNL     1      49.737   7.735  17.853  0.00  0.00    +0.000 OA
BRANCH   8  12
ATOM      9  C   UNL     1      50.006   3.637  17.413  0.00  0.00    +0.000 A 
ATOM     10  C   UNL     1      48.733   4.183  17.566  0.00  0.00    +0.000 A 
ATOM     11  C   UNL     1      48.597   5.560  17.725  0.00  0.00    +0.000 A 
ATOM     12  C   UNL     1      49.728   6.370  17.739  0.00  0.00    +0.000 A 
ATOM     13  C   UNL     1      50.961   5.737  17.609  0.00  0.00    +0.000 A 
ATOM     14  N   UNL     1      51.127   4.400  17.444  0.00  0.00    +0.000 NA
BRANCH   9  15
ATOM     15  C   UNL     1      50.154   2.155  17.143  0.00  0.00    +0.000 C 
BRANCH  15  16
ATOM     16  N   UNL     1      49.405   1.744  15.948  0.00  0.00    +0.000 NA
ATOM     17  H   UNL     1      49.953   1.056  15.437  0.00  0.00    +0.000 HD
ATOM     18  H   UNL     1      49.335   2.559  15.338  0.00  0.00    +0.000 HD
ENDBRANCH  15  16
ENDBRANCH   9  15
ENDBRANCH   8  12
ENDBRANCH   7   8
ENDBRANCH   1   7
BRANCH   4  19
ATOM     19  C   UNL     1      47.386   7.979  11.806  0.00  0.00    +0.000 C 
BRANCH  19  20
ATOM     20  N   UNL     1      46.741   6.702  11.642  0.00  0.00    +0.000 N 
ATOM     21  C   UNL     1      45.372   6.609  11.577  0.00  0.00    +0.000 C 
ATOM     22  O   UNL     1      44.648   7.600  11.601  0.00  0.00    +0.000 OA
ATOM     23  H   UNL     1      47.291   5.877  11.851  0.00  0.00    +0.000 HD
BRANCH  21  24
ATOM     24  C   UNL     1      44.817   5.258  11.415  0.00  0.00    +0.000 A 
ATOM     25  C   UNL     1      44.088   4.684  12.447  0.00  0.00    +0.000 A 
ATOM     26  S   UNL     1      43.481   3.135  12.076  0.00  0.00    +0.000 S 
ATOM     27  C   UNL     1      44.213   3.156  10.540  0.00  0.00    +0.000 A 
ATOM     28  N   UNL     1      44.101   2.093   9.698  0.00  0.00    +0.000 NA
ATOM     29  C   UNL     1      44.727   2.233   8.578  0.00  0.00    +0.000 A 
ATOM     30  N   UNL     1      45.451   3.342   8.221  0.00  0.00    +0.000 N 
ATOM     31  C   UNL     1      45.566   4.449   9.025  0.00  0.00    +0.000 A 
ATOM     32  O   UNL     1      46.180   5.444   8.654  0.00  0.00    +0.000 OA
ATOM     33  C   UNL     1      44.892   4.337  10.307  0.00  0.00    +0.000 A 
ATOM     34  H   UNL     1      45.909   3.396   7.323  0.00  0.00    +0.000 HD
ENDBRANCH  21  24
ENDBRANCH  19  20
ENDBRANCH   4  19
TORSDOF 8
ENDMDL
MODEL 5
REMARK VINA RESULT:    -7.152      4.913      8.085
REMARK INTER + INTRA:         -11.265
REMARK INTER:                 -10.188
REMARK INTRA:                  -1.077
REMARK UNBOUND:                -0.978
REMARK  Name = 
REMARK  8 active torsions:
REMARK  status: ('A' for Active; 'I' for Inactive)
REMARK    1  A    between atoms: N_1  and  C_2
REMARK    2  A    between atoms: C_2  and  C_3
REMARK    3  A    between atoms: C_6  and  O_7
REMARK    4  A    between atoms: O_7  and  C_8
REMARK    5  A    between atoms: C_8  and  C_9
REMARK    6  A    between atoms: C_12  and  C_13
REMARK    7  A    between atoms: C_13  and  N_14
REMARK    8  A    between atoms: C_15  and  C_17
REMARK                            x       y       z     vdW  Elec       q    Type
REMARK                         _______ _______ _______ _____ _____    ______ ____
ROOT
ATOM      1  C   UNL     1      50.939   8.653  11.169  0.00  0.00    +0.000 A 
ATOM      2  C   UNL     1      50.166   9.806  11.349  0.00  0.00    +0.000 A 
ATOM      3  C   UNL     1      48.848   9.717  11.808  0.00  0.00    +0.000 A 
ATOM      4  C   UNL     1      48.286   8.472  12.120  0.00  0.00    +0.000 A 
ATOM      5  C   UNL     1      49.049   7.316  11.908  0.00  0.00    +0.000 A 
ATOM      6  C   UNL     1      50.367   7.405  11.451  0.00  0.00    +0.000 A 
ENDROOT
BRANCH   1   7
ATOM      7  C   UNL     1      52.360   8.753  10.670  0.00  0.00    +0.000 C 
BRANCH   7   8
ATOM      8  O   UNL     1      52.390   8.728   9.241  0.00  0.00    +0.000 OA
BRANCH   8  12
ATOM      9  C   UNL     1      53.617   5.295   7.301  0.00  0.00    +0.000 A 
ATOM     10  C   UNL     1      53.965   5.433   8.643  0.00  0.00    +0.000 A 
ATOM     11  C   UNL     1      53.578   6.578   9.334  0.00  0.00    +0.000 A 
ATOM     12  C   UNL     1      52.860   7.572   8.677  0.00  0.00    +0.000 A 
ATOM     13  C   UNL     1      52.581   7.365   7.329  0.00  0.00    +0.000 A 
ATOM     14  N   UNL     1      52.935   6.258   6.630  0.00  0.00    +0.000 NA
BRANCH   9  15
ATOM     15  C   UNL     1      53.949   4.011   6.571  0.00  0.00    +0.000 C 
BRANCH  15  16
ATOM     16  N   UNL     1      52.956   2.963   6.838  0.00  0.00    +0.000 NA
ATOM     17  H   UNL     1      52.318   2.905   6.048  0.00  0.00    +0.000 HD
ATOM     18  H   UNL     1      52.393   3.272   7.632  0.00  0.00    +0.000 HD
ENDBRANCH  15  16
ENDBRANCH   9  15
ENDBRANCH   8  12
ENDBRANCH   7   8
ENDBRANCH   1   7
BRANCH   4  19
ATOM     19  C   UNL     1      46.889   8.373  12.674  0.00  0.00    +0.000 C 
BRANCH  19  20
ATOM     20  N   UNL     1      46.329   7.060  12.486  0.00  0.00    +0.000 N 
ATOM     21  C   UNL     1      45.215   6.876  11.705  0.00  0.00    +0.000 C 
ATOM     22  O   UNL     1      44.684   7.801  11.095  0.00  0.00    +0.000 OA
ATOM     23  H   UNL     1      46.602   6.343  13.148  0.00  0.00    +0.000 HD
BRANCH  21  24
ATOM     24  C   UNL     1      44.722   5.497  11.584  0.00  0.00    +0.000 A 
ATOM     25  C   UNL     1      44.019   4.923  12.634  0.00  0.00    +0.000 A 
ATOM     26  S   UNL     1      43.484   3.336  12.311  0.00  0.00    +0.000 S 
ATOM     27  C   UNL     1      44.217   3.343  10.774  0.00  0.00    +0.000 A 
ATOM     28  N   UNL     1      44.155   2.251   9.966  0.00  0.00    +0.000 NA
ATOM     29  C   UNL     1      44.776   2.385   8.841  0.00  0.00    +0.000 A 
ATOM     30  N   UNL     1      45.449   3.515   8.451  0.00  0.00    +0.000 N 
ATOM     31  C   UNL     1      45.511   4.650   9.221  0.00  0.00    +0.000 A 
ATOM     32  O   UNL     1      46.079   5.660   8.819  0.00  0.00    +0.000 OA
ATOM     33  C   UNL     1      44.841   4.547  10.505  0.00  0.00    +0.000 A 
ATOM     34  H   UNL     1      45.905   3.561   7.552  0.00  0.00    +0.000 HD
ENDBRANCH  21  24
ENDBRANCH  19  20
ENDBRANCH   4  19
TORSDOF 8
ENDMDL
MODEL 6
REMARK VINA RESULT:    -7.041      3.645      5.033
REMARK INTER + INTRA:         -11.106
REMARK INTER:                 -10.464
REMARK INTRA:                  -0.642
REMARK UNBOUND:                -0.978
REMARK  Name = 
REMARK  8 active torsions:
REMARK  status: ('A' for Active; 'I' for Inactive)
REMARK    1  A    between atoms: N_1  and  C_2
REMARK    2  A    between atoms: C_2  and  C_3
REMARK    3  A    between atoms: C_6  and  O_7
REMARK    4  A    between atoms: O_7  and  C_8
REMARK    5  A    between atoms: C_8  and  C_9
REMARK    6  A    between atoms: C_12  and  C_13
REMARK    7  A    between atoms: C_13  and  N_14
REMARK    8  A    between atoms: C_15  and  C_17
REMARK                            x       y       z     vdW  Elec       q    Type
REMARK                         _______ _______ _______ _____ _____    ______ ____
ROOT
ATOM      1  C   UNL     1      44.729   5.105  11.481  0.00  0.00    +0.000 A 
ATOM      2  C   UNL     1      45.461   6.257  11.164  0.00  0.00    +0.000 A 
ATOM      3  C   UNL     1      46.509   6.684  11.984  0.00  0.00    +0.000 A 
ATOM      4  C   UNL     1      46.863   5.953  13.125  0.00  0.00    +0.000 A 
ATOM      5  C   UNL     1      46.110   4.820  13.460  0.00  0.00    +0.000 A 
ATOM      6  C   UNL     1      45.062   4.391  12.640  0.00  0.00    +0.000 A 
ENDROOT
BRANCH   1   7
ATOM      7  C   UNL     1      43.595   4.649  10.595  0.00  0.00    +0.000 C 
BRANCH   7   8
ATOM      8  O   UNL     1      43.762   3.275  10.239  0.00  0.00    +0.000 OA
BRANCH   8  12
ATOM      9  C   UNL     1      46.437   2.774   7.133  0.00  0.00    +0.000 A 
ATOM     10  C   UNL     1      46.255   1.700   8.002  0.00  0.00    +0.000 A 
ATOM     11  C   UNL     1      45.369   1.829   9.068  0.00  0.00    +0.000 A 
ATOM     12  C   UNL     1      44.684   3.024   9.257  0.00  0.00    +0.000 A 
ATOM     13  C   UNL     1      44.947   4.054   8.358  0.00  0.00    +0.000 A 
ATOM     14  N   UNL     1      45.798   3.958   7.306  0.00  0.00    +0.000 NA
BRANCH   9  15
ATOM     15  C   UNL     1      47.324   2.608   5.918  0.00  0.00    +0.000 C 
BRANCH  15  16
ATOM     16  N   UNL     1      48.740   2.500   6.292  0.00  0.00    +0.000 NA
ATOM     17  H   UNL     1      49.259   3.249   5.839  0.00  0.00    +0.000 HD
ATOM     18  H   UNL     1      49.095   1.630   5.892  0.00  0.00    +0.000 HD
ENDBRANCH  15  16
ENDBRANCH   9  15
ENDBRANCH   8  12
ENDBRANCH   7   8
ENDBRANCH   1   7
BRANCH   4  19
ATOM     19  C   UNL     1      48.032   6.372  13.979  0.00  0.00    +0.000 C 
BRANCH  19  20
ATOM     20  N   UNL     1      49.092   6.947  13.192  0.00  0.00    +0.000 N 
ATOM     21  C   UNL     1      49.859   7.972  13.689  0.00  0.00    +0.000 C 
ATOM     22  O   UNL     1      49.715   8.402  14.830  0.00  0.00    +0.000 OA
ATOM     23  H   UNL     1      49.074   6.771  12.195  0.00  0.00    +0.000 HD
BRANCH  21  24
ATOM     24  C   UNL     1      50.911   8.489  12.803  0.00  0.00    +0.000 A 
ATOM     25  C   UNL     1      50.574   8.984  11.550  0.00  0.00    +0.000 A 
ATOM     26  S   UNL     1      51.906   9.583  10.671  0.00  0.00    +0.000 S 
ATOM     27  C   UNL     1      52.988   9.156  11.914  0.00  0.00    +0.000 A 
ATOM     28  N   UNL     1      54.323   9.379  11.784  0.00  0.00    +0.000 NA
ATOM     29  C   UNL     1      55.029   8.983  12.790  0.00  0.00    +0.000 A 
ATOM     30  N   UNL     1      54.520   8.387  13.915  0.00  0.00    +0.000 N 
ATOM     31  C   UNL     1      53.176   8.171  14.102  0.00  0.00    +0.000 A 
ATOM     32  O   UNL     1      52.750   7.682  15.143  0.00  0.00    +0.000 OA
ATOM     33  C   UNL     1      52.338   8.585  12.992  0.00  0.00    +0.000 A 
ATOM     34  H   UNL     1      55.124   8.111  14.675  0.00  0.00    +0.000 HD
ENDBRANCH  21  24
ENDBRANCH  19  20
ENDBRANCH   4  19
TORSDOF 8
ENDMDL
MODEL 7
REMARK VINA RESULT:    -6.816      3.604      8.875
REMARK INTER + INTRA:         -10.781
REMARK INTER:                  -9.728
REMARK INTRA:                  -1.053
REMARK UNBOUND:                -0.978
REMARK  Name = 
REMARK  8 active torsions:
REMARK  status: ('A' for Active; 'I' for Inactive)
REMARK    1  A    between atoms: N_1  and  C_2
REMARK    2  A    between atoms: C_2  and  C_3
REMARK    3  A    between atoms: C_6  and  O_7
REMARK    4  A    between atoms: O_7  and  C_8
REMARK    5  A    between atoms: C_8  and  C_9
REMARK    6  A    between atoms: C_12  and  C_13
REMARK    7  A    between atoms: C_13  and  N_14
REMARK    8  A    between atoms: C_15  and  C_17
REMARK                            x       y       z     vdW  Elec       q    Type
REMARK                         _______ _______ _______ _____ _____    ______ ____
ROOT
ATOM      1  C   UNL     1      49.955   6.626  16.293  0.00  0.00    +0.000 A 
ATOM      2  C   UNL     1      50.696   7.412  15.401  0.00  0.00    +0.000 A 
ATOM      3  C   UNL     1      50.172   7.759  14.152  0.00  0.00    +0.000 A 
ATOM      4  C   UNL     1      48.886   7.347  13.781  0.00  0.00    +0.000 A 
ATOM      5  C   UNL     1      48.159   6.533  14.659  0.00  0.00    +0.000 A 
ATOM      6  C   UNL     1      48.681   6.187  15.909  0.00  0.00    +0.000 A 
ENDROOT
BRANCH   1   7
ATOM      7  C   UNL     1      50.525   6.250  17.639  0.00  0.00    +0.000 C 
BRANCH   7   8
ATOM      8  O   UNL     1      49.902   5.061  18.130  0.00  0.00    +0.000 OA
BRANCH   8  12
ATOM      9  C   UNL     1      52.323   1.742  17.706  0.00  0.00    +0.000 A 
ATOM     10  C   UNL     1      51.013   1.644  17.242  0.00  0.00    +0.000 A 
ATOM     11  C   UNL     1      50.160   2.736  17.372  0.00  0.00    +0.000 A 
ATOM     12  C   UNL     1      50.620   3.905  17.969  0.00  0.00    +0.000 A 
ATOM     13  C   UNL     1      51.933   3.906  18.430  0.00  0.00    +0.000 A 
ATOM     14  N   UNL     1      52.792   2.861  18.312  0.00  0.00    +0.000 NA
BRANCH   9  15
ATOM     15  C   UNL     1      53.283   0.593  17.481  0.00  0.00    +0.000 C 
BRANCH  15  16
ATOM     16  N   UNL     1      53.917   0.162  18.733  0.00  0.00    +0.000 NA
ATOM     17  H   UNL     1      53.518   0.693  19.504  0.00  0.00    +0.000 HD
ATOM     18  H   UNL     1      54.901   0.431  18.685  0.00  0.00    +0.000 HD
ENDBRANCH  15  16
ENDBRANCH   9  15
ENDBRANCH   8  12
ENDBRANCH   7   8
ENDBRANCH   1   7
BRANCH   4  19
ATOM     19  C   UNL     1      48.291   7.770  12.463  0.00  0.00    +0.000 C 
BRANCH  19  20
ATOM     20  N   UNL     1      47.565   6.697  11.833  0.00  0.00    +0.000 N 
ATOM     21  C   UNL     1      46.245   6.851  11.485  0.00  0.00    +0.000 C 
ATOM     22  O   UNL     1      45.647   7.912  11.642  0.00  0.00    +0.000 OA
ATOM     23  H   UNL     1      47.959   5.767  11.907  0.00  0.00    +0.000 HD
BRANCH  21  24
ATOM     24  C   UNL     1      45.598   5.693  10.853  0.00  0.00    +0.000 A 
ATOM     25  C   UNL     1      45.689   5.519   9.479  0.00  0.00    +0.000 A 
ATOM     26  S   UNL     1      44.920   4.104   8.917  0.00  0.00    +0.000 S 
ATOM     27  C   UNL     1      44.396   3.700  10.485  0.00  0.00    +0.000 A 
ATOM     28  N   UNL     1      43.646   2.587  10.707  0.00  0.00    +0.000 NA
ATOM     29  C   UNL     1      43.297   2.417  11.938  0.00  0.00    +0.000 A 
ATOM     30  N   UNL     1      43.632   3.257  12.968  0.00  0.00    +0.000 N 
ATOM     31  C   UNL     1      44.412   4.374  12.797  0.00  0.00    +0.000 A 
ATOM     32  O   UNL     1      44.736   5.076  13.749  0.00  0.00    +0.000 OA
ATOM     33  C   UNL     1      44.821   4.620  11.425  0.00  0.00    +0.000 A 
ATOM     34  H   UNL     1      43.337   3.062  13.913  0.00  0.00    +0.000 HD
ENDBRANCH  21  24
ENDBRANCH  19  20
ENDBRANCH   4  19
TORSDOF 8
ENDMDL
MODEL 8
REMARK VINA RESULT:    -6.663      4.880     10.155
REMARK INTER + INTRA:         -10.562
REMARK INTER:                  -9.681
REMARK INTRA:                  -0.881
REMARK UNBOUND:                -0.978
REMARK  Name = 
REMARK  8 active torsions:
REMARK  status: ('A' for Active; 'I' for Inactive)
REMARK    1  A    between atoms: N_1  and  C_2
REMARK    2  A    between atoms: C_2  and  C_3
REMARK    3  A    between atoms: C_6  and  O_7
REMARK    4  A    between atoms: O_7  and  C_8
REMARK    5  A    between atoms: C_8  and  C_9
REMARK    6  A    between atoms: C_12  and  C_13
REMARK    7  A    between atoms: C_13  and  N_14
REMARK    8  A    between atoms: C_15  and  C_17
REMARK                            x       y       z     vdW  Elec       q    Type
REMARK                         _______ _______ _______ _____ _____    ______ ____
ROOT
ATOM      1  C   UNL     1      51.515   3.273  17.747  0.00  0.00    +0.000 A 
ATOM      2  C   UNL     1      50.785   4.462  17.870  0.00  0.00    +0.000 A 
ATOM      3  C   UNL     1      49.423   4.498  17.560  0.00  0.00    +0.000 A 
ATOM      4  C   UNL     1      48.757   3.338  17.144  0.00  0.00    +0.000 A 
ATOM      5  C   UNL     1      49.495   2.157  16.989  0.00  0.00    +0.000 A 
ATOM      6  C   UNL     1      50.857   2.120  17.301  0.00  0.00    +0.000 A 
ENDROOT
BRANCH   1   7
ATOM      7  C   UNL     1      52.987   3.240  18.079  0.00  0.00    +0.000 C 
BRANCH   7   8
ATOM      8  O   UNL     1      53.609   2.102  17.476  0.00  0.00    +0.000 OA
BRANCH   8  12
ATOM      9  C   UNL     1      55.125  -0.787  20.008  0.00  0.00    +0.000 A 
ATOM     10  C   UNL     1      55.588   0.517  20.172  0.00  0.00    +0.000 A 
ATOM     11  C   UNL     1      55.109   1.521  19.335  0.00  0.00    +0.000 A 
ATOM     12  C   UNL     1      54.185   1.212  18.343  0.00  0.00    +0.000 A 
ATOM     13  C   UNL     1      53.799  -0.121  18.230  0.00  0.00    +0.000 A 
ATOM     14  N   UNL     1      54.240  -1.121  19.035  0.00  0.00    +0.000 NA
BRANCH   9  15
ATOM     15  C   UNL     1      55.567  -1.863  20.976  0.00  0.00    +0.000 C 
BRANCH  15  16
ATOM     16  N   UNL     1      54.844  -3.122  20.753  0.00  0.00    +0.000 NA
ATOM     17  H   UNL     1      54.196  -2.998  19.979  0.00  0.00    +0.000 HD
ATOM     18  H   UNL     1      54.268  -3.293  21.579  0.00  0.00    +0.000 HD
ENDBRANCH  15  16
ENDBRANCH   9  15
ENDBRANCH   8  12
ENDBRANCH   7   8
ENDBRANCH   1   7
BRANCH   4  19
ATOM     19  C   UNL     1      47.276   3.354  16.869  0.00  0.00    +0.000 C 
BRANCH  19  20
ATOM     20  N   UNL     1      46.915   4.389  15.935  0.00  0.00    +0.000 N 
ATOM     21  C   UNL     1      46.961   4.161  14.581  0.00  0.00    +0.000 C 
ATOM     22  O   UNL     1      47.255   3.065  14.113  0.00  0.00    +0.000 OA
ATOM     23  H   UNL     1      46.897   5.340  16.284  0.00  0.00    +0.000 HD
BRANCH  21  24
ATOM     24  C   UNL     1      46.577   5.285  13.717  0.00  0.00    +0.000 A 
ATOM     25  C   UNL     1      47.459   6.341  13.529  0.00  0.00    +0.000 A 
ATOM     26  S   UNL     1      46.874   7.538  12.464  0.00  0.00    +0.000 S 
ATOM     27  C   UNL     1      45.401   6.711  12.255  0.00  0.00    +0.000 A 
ATOM     28  N   UNL     1      44.420   7.220  11.464  0.00  0.00    +0.000 NA
ATOM     29  C   UNL     1      43.348   6.503  11.417  0.00  0.00    +0.000 A 
ATOM     30  N   UNL     1      43.169   5.320  12.087  0.00  0.00    +0.000 N 
ATOM     31  C   UNL     1      44.143   4.753  12.872  0.00  0.00    +0.000 A 
ATOM     32  O   UNL     1      43.969   3.668  13.416  0.00  0.00    +0.000 OA
ATOM     33  C   UNL     1      45.367   5.529  12.971  0.00  0.00    +0.000 A 
ATOM     34  H   UNL     1      42.310   4.799  11.999  0.00  0.00    +0.000 HD
ENDBRANCH  21  24
ENDBRANCH  19  20
ENDBRANCH   4  19
TORSDOF 8
ENDMDL
MODEL 9
REMARK VINA RESULT:    -6.603      2.413      3.165
REMARK INTER + INTRA:         -10.475
REMARK INTER:                  -9.445
REMARK INTRA:                  -1.030
REMARK UNBOUND:                -0.978
REMARK  Name = 
REMARK  8 active torsions:
REMARK  status: ('A' for Active; 'I' for Inactive)
REMARK    1  A    between atoms: N_1  and  C_2
REMARK    2  A    between atoms: C_2  and  C_3
REMARK    3  A    between atoms: C_6  and  O_7
REMARK    4  A    between atoms: O_7  and  C_8
REMARK    5  A    between atoms: C_8  and  C_9
REMARK    6  A    between atoms: C_12  and  C_13
REMARK    7  A    between atoms: C_13  and  N_14
REMARK    8  A    between atoms: C_15  and  C_17
REMARK                            x       y       z     vdW  Elec       q    Type
REMARK                         _______ _______ _______ _____ _____    ______ ____
ROOT
ATOM      1  C   UNL     1      45.968   6.806  12.696  0.00  0.00    +0.000 A 
ATOM      2  C   UNL     1      46.148   8.160  13.006  0.00  0.00    +0.000 A 
ATOM      3  C   UNL     1      47.175   8.565  13.865  0.00  0.00    +0.000 A 
ATOM      4  C   UNL     1      48.058   7.623  14.410  0.00  0.00    +0.000 A 
ATOM      5  C   UNL     1      47.856   6.266  14.126  0.00  0.00    +0.000 A 
ATOM      6  C   UNL     1      46.831   5.862  13.267  0.00  0.00    +0.000 A 
ENDROOT
BRANCH   1   7
ATOM      7  C   UNL     1      44.855   6.374  11.772  0.00  0.00    +0.000 C 
BRANCH   7   8
ATOM      8  O   UNL     1      44.760   4.948  11.740  0.00  0.00    +0.000 OA
BRANCH   8  12
ATOM      9  C   UNL     1      45.768   3.457   8.023  0.00  0.00    +0.000 A 
ATOM     10  C   UNL     1      45.218   2.568   8.942  0.00  0.00    +0.000 A 
ATOM     11  C   UNL     1      44.871   3.026  10.211  0.00  0.00    +0.000 A 
ATOM     12  C   UNL     1      45.084   4.358  10.546  0.00  0.00    +0.000 A 
ATOM     13  C   UNL     1      45.665   5.170   9.577  0.00  0.00    +0.000 A 
ATOM     14  N   UNL     1      46.007   4.757   8.330  0.00  0.00    +0.000 NA
BRANCH   9  15
ATOM     15  C   UNL     1      46.058   2.989   6.612  0.00  0.00    +0.000 C 
BRANCH  15  16
ATOM     16  N   UNL     1      46.835   3.982   5.860  0.00  0.00    +0.000 NA
ATOM     17  H   UNL     1      46.202   4.690   5.497  0.00  0.00    +0.000 HD
ATOM     18  H   UNL     1      47.227   3.509   5.045  0.00  0.00    +0.000 HD
ENDBRANCH  15  16
ENDBRANCH   9  15
ENDBRANCH   8  12
ENDBRANCH   7   8
ENDBRANCH   1   7
BRANCH   4  19
ATOM     19  C   UNL     1      49.205   8.058  15.285  0.00  0.00    +0.000 C 
BRANCH  19  20
ATOM     20  N   UNL     1      50.016   6.943  15.699  0.00  0.00    +0.000 N 
ATOM     21  C   UNL     1      50.426   6.817  17.004  0.00  0.00    +0.000 C 
ATOM     22  O   UNL     1      50.080   7.609  17.876  0.00  0.00    +0.000 OA
ATOM     23  H   UNL     1      50.493   6.423  14.971  0.00  0.00    +0.000 HD
BRANCH  21  24
ATOM     24  C   UNL     1      51.254   5.645  17.318  0.00  0.00    +0.000 A 
ATOM     25  C   UNL     1      52.587   5.817  17.668  0.00  0.00    +0.000 A 
ATOM     26  S   UNL     1      53.388   4.360  18.043  0.00  0.00    +0.000 S 
ATOM     27  C   UNL     1      51.996   3.442  17.704  0.00  0.00    +0.000 A 
ATOM     28  N   UNL     1      52.010   2.086  17.806  0.00  0.00    +0.000 NA
ATOM     29  C   UNL     1      50.895   1.517  17.494  0.00  0.00    +0.000 A 
ATOM     30  N   UNL     1      49.764   2.181  17.093  0.00  0.00    +0.000 N 
ATOM     31  C   UNL     1      49.694   3.550  17.005  0.00  0.00    +0.000 A 
ATOM     32  O   UNL     1      48.652   4.114  16.691  0.00  0.00    +0.000 OA
ATOM     33  C   UNL     1      50.930   4.239  17.331  0.00  0.00    +0.000 A 
ATOM     34  H   UNL     1      48.917   1.677  16.874  0.00  0.00    +0.000 HD
ENDBRANCH  21  24
ENDBRANCH  19  20
ENDBRANCH   4  19
TORSDOF 8
ENDMDL
