MODEL 1
REMARK VINA RESULT:    -8.366      0.000      0.000
REMARK INTER + INTRA:         -11.703
REMARK INTER:                 -10.811
REMARK INTRA:                  -0.892
REMARK UNBOUND:                -0.892
REMARK  Name = 
REMARK  7 active torsions:
REMARK  status: ('A' for Active; 'I' for Inactive)
REMARK    1  A    between atoms: C_1  and  N_2
REMARK    2  A    between atoms: N_2  and  C_3
REMARK    3  A    between atoms: C_7  and  C_8
REMARK    4  A    between atoms: C_8  and  C_9
REMARK    5  A    between atoms: C_12  and  C_13
REMARK    6  A    between atoms: C_13  and  N_14
REMARK    7  A    between atoms: C_15  and  C_17
REMARK                            x       y       z     vdW  Elec       q    Type
REMARK                         _______ _______ _______ _____ _____    ______ ____
ROOT
ATOM      1  C   UNL     1      44.499   5.848  11.487  0.00  0.00    +0.000 A 
ATOM      2  C   UNL     1      44.412   7.236  11.415  0.00  0.00    +0.000 A 
ATOM      3  C   UNL     1      45.345   8.006  12.108  0.00  0.00    +0.000 A 
ATOM      4  C   UNL     1      46.332   7.382  12.875  0.00  0.00    +0.000 A 
ATOM      5  C   UNL     1      46.315   5.992  12.918  0.00  0.00    +0.000 A 
ATOM      6  N   UNL     1      45.426   5.219  12.252  0.00  0.00    +0.000 NA
ENDROOT
BRANCH   1   7
ATOM      7  C   UNL     1      43.633   4.980  10.600  0.00  0.00    +0.000 C 
BRANCH   7  14
ATOM      8  C   UNL     1      47.749   2.527   6.253  0.00  0.00    +0.000 C 
ATOM      9  N   UNL     1      46.790   1.791   7.069  0.00  0.00    +0.000 N 
ATOM     10  C   UNL     1      47.172   0.460   7.518  0.00  0.00    +0.000 C 
ATOM     11  C   UNL     1      46.002   2.564   7.931  0.00  0.00    +0.000 A 
ATOM     12  C   UNL     1      45.075   1.962   8.787  0.00  0.00    +0.000 A 
ATOM     13  C   UNL     1      44.296   2.727   9.657  0.00  0.00    +0.000 A 
ATOM     14  C   UNL     1      44.437   4.109   9.668  0.00  0.00    +0.000 A 
ATOM     15  C   UNL     1      45.359   4.643   8.776  0.00  0.00    +0.000 A 
ATOM     16  N   UNL     1      46.120   3.908   7.919  0.00  0.00    +0.000 NA
ENDBRANCH   7  14
ENDBRANCH   1   7
BRANCH   4  17
ATOM     17  C   UNL     1      47.405   8.166  13.574  0.00  0.00    +0.000 C 
BRANCH  17  18
ATOM     18  N   UNL     1      47.777   7.551  14.829  0.00  0.00    +0.000 N 
ATOM     19  C   UNL     1      49.019   7.000  15.016  0.00  0.00    +0.000 C 
ATOM     20  O   UNL     1      49.883   7.028  14.144  0.00  0.00    +0.000 OA
ATOM     21  H   UNL     1      47.024   7.300  15.461  0.00  0.00    +0.000 HD
BRANCH  19  22
ATOM     22  C   UNL     1      49.285   6.425  16.343  0.00  0.00    +0.000 A 
ATOM     23  C   UNL     1      50.141   7.075  17.221  0.00  0.00    +0.000 A 
ATOM     24  S   UNL     1      50.300   6.294  18.730  0.00  0.00    +0.000 S 
ATOM     25  C   UNL     1      49.268   5.029  18.243  0.00  0.00    +0.000 A 
ATOM     26  N   UNL     1      48.997   3.985  19.072  0.00  0.00    +0.000 NA
ATOM     27  C   UNL     1      48.227   3.086  18.569  0.00  0.00    +0.000 A 
ATOM     28  N   UNL     1      47.696   3.134  17.305  0.00  0.00    +0.000 N 
ATOM     29  C   UNL     1      47.918   4.181  16.442  0.00  0.00    +0.000 A 
ATOM     30  O   UNL     1      47.393   4.223  15.335  0.00  0.00    +0.000 OA
ATOM     31  C   UNL     1      48.793   5.214  16.960  0.00  0.00    +0.000 A 
ATOM     32  H   UNL     1      47.089   2.402  16.968  0.00  0.00    +0.000 HD
ENDBRANCH  19  22
ENDBRANCH  17  18
ENDBRANCH   4  17
TORSDOF 5
ENDMDL
MODEL 2
REMARK VINA RESULT:    -7.848      1.537      1.828
REMARK INTER + INTRA:         -11.034
REMARK INTER:                 -10.041
REMARK INTRA:                  -0.993
REMARK UNBOUND:                -0.892
REMARK  Name = 
REMARK  7 active torsions:
REMARK  status: ('A' for Active; 'I' for Inactive)
REMARK    1  A    between atoms: C_1  and  N_2
REMARK    2  A    between atoms: N_2  and  C_3
REMARK    3  A    between atoms: C_7  and  C_8
REMARK    4  A    between atoms: C_8  and  C_9
REMARK    5  A    between atoms: C_12  and  C_13
REMARK    6  A    between atoms: C_13  and  N_14
REMARK    7  A    between atoms: C_15  and  C_17
REMARK                            x       y       z     vdW  Elec       q    Type
REMARK                         _______ _______ _______ _____ _____    ______ ____
ROOT
ATOM      1  C   UNL     1      45.053   6.140  11.440  0.00  0.00    +0.000 A 
ATOM      2  C   UNL     1      46.148   5.642  12.140  0.00  0.00    +0.000 A 
ATOM      3  C   UNL     1      46.935   6.525  12.877  0.00  0.00    +0.000 A 
ATOM      4  C   UNL     1      46.631   7.889  12.886  0.00  0.00    +0.000 A 
ATOM      5  C   UNL     1      45.541   8.298  12.125  0.00  0.00    +0.000 A 
ATOM      6  N   UNL     1      44.757   7.464  11.405  0.00  0.00    +0.000 NA
ENDROOT
BRANCH   1   7
ATOM      7  C   UNL     1      44.065   5.196  10.790  0.00  0.00    +0.000 C 
BRANCH   7  14
ATOM      8  C   UNL     1      47.467   2.467   6.011  0.00  0.00    +0.000 C 
ATOM      9  N   UNL     1      46.626   1.788   6.990  0.00  0.00    +0.000 N 
ATOM     10  C   UNL     1      47.048   0.470   7.439  0.00  0.00    +0.000 C 
ATOM     11  C   UNL     1      45.983   2.615   7.920  0.00  0.00    +0.000 A 
ATOM     12  C   UNL     1      45.181   2.071   8.928  0.00  0.00    +0.000 A 
ATOM     13  C   UNL     1      44.549   2.890   9.865  0.00  0.00    +0.000 A 
ATOM     14  C   UNL     1      44.711   4.267   9.792  0.00  0.00    +0.000 A 
ATOM     15  C   UNL     1      45.503   4.742   8.752  0.00  0.00    +0.000 A 
ATOM     16  N   UNL     1      46.118   3.955   7.829  0.00  0.00    +0.000 NA
ENDBRANCH   7  14
ENDBRANCH   1   7
BRANCH   4  17
ATOM     17  C   UNL     1      47.400   8.866  13.728  0.00  0.00    +0.000 C 
BRANCH  17  18
ATOM     18  N   UNL     1      47.562   8.385  15.082  0.00  0.00    +0.000 N 
ATOM     19  C   UNL     1      48.423   8.994  15.960  0.00  0.00    +0.000 C 
ATOM     20  O   UNL     1      49.072   9.989  15.653  0.00  0.00    +0.000 OA
ATOM     21  H   UNL     1      47.236   7.446  15.280  0.00  0.00    +0.000 HD
BRANCH  19  22
ATOM     22  C   UNL     1      48.482   8.425  17.315  0.00  0.00    +0.000 A 
ATOM     23  C   UNL     1      48.302   9.247  18.420  0.00  0.00    +0.000 A 
ATOM     24  S   UNL     1      48.358   8.416  19.909  0.00  0.00    +0.000 S 
ATOM     25  C   UNL     1      48.677   6.934  19.131  0.00  0.00    +0.000 A 
ATOM     26  N   UNL     1      48.870   5.793  19.846  0.00  0.00    +0.000 NA
ATOM     27  C   UNL     1      49.130   4.753  19.136  0.00  0.00    +0.000 A 
ATOM     28  N   UNL     1      49.213   4.746  17.767  0.00  0.00    +0.000 N 
ATOM     29  C   UNL     1      48.999   5.867  17.000  0.00  0.00    +0.000 A 
ATOM     30  O   UNL     1      49.033   5.823  15.776  0.00  0.00    +0.000 OA
ATOM     31  C   UNL     1      48.716   7.070  17.758  0.00  0.00    +0.000 A 
ATOM     32  H   UNL     1      49.412   3.894  17.263  0.00  0.00    +0.000 HD
ENDBRANCH  19  22
ENDBRANCH  17  18
ENDBRANCH   4  17
TORSDOF 5
ENDMDL
MODEL 3
REMARK VINA RESULT:    -7.059      3.887      5.261
REMARK INTER + INTRA:         -10.014
REMARK INTER:                  -8.901
REMARK INTRA:                  -1.113
REMARK UNBOUND:                -0.892
REMARK  Name = 
REMARK  7 active torsions:
REMARK  status: ('A' for Active; 'I' for Inactive)
REMARK    1  A    between atoms: C_1  and  N_2
REMARK    2  A    between atoms: N_2  and  C_3
REMARK    3  A    between atoms: C_7  and  C_8
REMARK    4  A    between atoms: C_8  and  C_9
REMARK    5  A    between atoms: C_12  and  C_13
REMARK    6  A    between atoms: C_13  and  N_14
REMARK    7  A    between atoms: C_15  and  C_17
REMARK                            x       y       z     vdW  Elec       q    Type
REMARK                         _______ _______ _______ _____ _____    ______ ____
ROOT
ATOM      1  C   UNL     1      44.347   6.123  11.572  0.00  0.00    +0.000 A 
ATOM      2  C   UNL     1      44.114   7.455  11.240  0.00  0.00    +0.000 A 
ATOM      3  C   UNL     1      44.933   8.440  11.789  0.00  0.00    +0.000 A 
ATOM      4  C   UNL     1      45.954   8.084  12.674  0.00  0.00    +0.000 A 
ATOM      5  C   UNL     1      46.085   6.733  12.977  0.00  0.00    +0.000 A 
ATOM      6  N   UNL     1      45.309   5.755  12.456  0.00  0.00    +0.000 NA
ENDROOT
BRANCH   1   7
ATOM      7  C   UNL     1      43.612   5.014  10.852  0.00  0.00    +0.000 C 
BRANCH   7  14
ATOM      8  C   UNL     1      46.769   0.421   7.566  0.00  0.00    +0.000 C 
ATOM      9  N   UNL     1      46.897   1.864   7.402  0.00  0.00    +0.000 N 
ATOM     10  C   UNL     1      47.147   2.368   6.060  0.00  0.00    +0.000 C 
ATOM     11  C   UNL     1      46.105   2.648   8.251  0.00  0.00    +0.000 A 
ATOM     12  C   UNL     1      46.117   4.043   8.157  0.00  0.00    +0.000 A 
ATOM     13  C   UNL     1      45.320   4.827   8.993  0.00  0.00    +0.000 A 
ATOM     14  C   UNL     1      44.507   4.215   9.938  0.00  0.00    +0.000 A 
ATOM     15  C   UNL     1      44.560   2.827   9.992  0.00  0.00    +0.000 A 
ATOM     16  N   UNL     1      45.337   2.052   9.188  0.00  0.00    +0.000 NA
ENDBRANCH   7  14
ENDBRANCH   1   7
BRANCH   4  17
ATOM     17  C   UNL     1      46.911   9.100  13.229  0.00  0.00    +0.000 C 
BRANCH  17  18
ATOM     18  N   UNL     1      48.039   9.301  12.346  0.00  0.00    +0.000 N 
ATOM     19  C   UNL     1      49.086  10.114  12.697  0.00  0.00    +0.000 C 
ATOM     20  O   UNL     1      49.135  10.684  13.783  0.00  0.00    +0.000 OA
ATOM     21  H   UNL     1      47.913   9.049  11.372  0.00  0.00    +0.000 HD
BRANCH  19  22
ATOM     22  C   UNL     1      50.184  10.220  11.724  0.00  0.00    +0.000 A 
ATOM     23  C   UNL     1      50.590  11.467  11.270  0.00  0.00    +0.000 A 
ATOM     24  S   UNL     1      51.902  11.408  10.181  0.00  0.00    +0.000 S 
ATOM     25  C   UNL     1      51.941   9.705  10.238  0.00  0.00    +0.000 A 
ATOM     26  N   UNL     1      52.833   8.998   9.493  0.00  0.00    +0.000 NA
ATOM     27  C   UNL     1      52.735   7.721   9.609  0.00  0.00    +0.000 A 
ATOM     28  N   UNL     1      51.823   7.079  10.408  0.00  0.00    +0.000 N 
ATOM     29  C   UNL     1      50.921   7.751  11.199  0.00  0.00    +0.000 A 
ATOM     30  O   UNL     1      50.149   7.155  11.941  0.00  0.00    +0.000 OA
ATOM     31  C   UNL     1      50.983   9.196  11.092  0.00  0.00    +0.000 A 
ATOM     32  H   UNL     1      51.800   6.072  10.465  0.00  0.00    +0.000 HD
ENDBRANCH  19  22
ENDBRANCH  17  18
ENDBRANCH   4  17
TORSDOF 5
ENDMDL
MODEL 4
REMARK VINA RESULT:    -7.031      3.758      8.715
REMARK INTER + INTRA:          -9.978
REMARK INTER:                  -8.921
REMARK INTRA:                  -1.057
REMARK UNBOUND:                -0.892
REMARK  Name = 
REMARK  7 active torsions:
REMARK  status: ('A' for Active; 'I' for Inactive)
REMARK    1  A    between atoms: C_1  and  N_2
REMARK    2  A    between atoms: N_2  and  C_3
REMARK    3  A    between atoms: C_7  and  C_8
REMARK    4  A    between atoms: C_8  and  C_9
REMARK    5  A    between atoms: C_12  and  C_13
REMARK    6  A    between atoms: C_13  and  N_14
REMARK    7  A    between atoms: C_15  and  C_17
REMARK                            x       y       z     vdW  Elec       q    Type
REMARK                         _______ _______ _______ _____ _____    ______ ____
ROOT
ATOM      1  C   UNL     1      48.929   5.222  17.236  0.00  0.00    +0.000 A 
ATOM      2  C   UNL     1      47.937   4.625  16.463  0.00  0.00    +0.000 A 
ATOM      3  C   UNL     1      47.616   5.185  15.228  0.00  0.00    +0.000 A 
ATOM      4  C   UNL     1      48.272   6.340  14.795  0.00  0.00    +0.000 A 
ATOM      5  C   UNL     1      49.221   6.887  15.652  0.00  0.00    +0.000 A 
ATOM      6  N   UNL     1      49.556   6.362  16.853  0.00  0.00    +0.000 NA
ENDROOT
BRANCH   1   7
ATOM      7  C   UNL     1      49.441   4.539  18.485  0.00  0.00    +0.000 C 
BRANCH   7  14
ATOM      8  C   UNL     1      55.356   1.945  18.108  0.00  0.00    +0.000 C 
ATOM      9  N   UNL     1      54.107   1.357  17.638  0.00  0.00    +0.000 N 
ATOM     10  C   UNL     1      53.966  -0.088  17.733  0.00  0.00    +0.000 C 
ATOM     11  C   UNL     1      52.957   2.134  17.829  0.00  0.00    +0.000 A 
ATOM     12  C   UNL     1      51.699   1.655  17.452  0.00  0.00    +0.000 A 
ATOM     13  C   UNL     1      50.548   2.421  17.653  0.00  0.00    +0.000 A 
ATOM     14  C   UNL     1      50.654   3.679  18.229  0.00  0.00    +0.000 A 
ATOM     15  C   UNL     1      51.936   4.102  18.559  0.00  0.00    +0.000 A 
ATOM     16  N   UNL     1      53.065   3.369  18.363  0.00  0.00    +0.000 NA
ENDBRANCH   7  14
ENDBRANCH   1   7
BRANCH   4  17
ATOM     17  C   UNL     1      48.018   6.934  13.439  0.00  0.00    +0.000 C 
BRANCH  17  18
ATOM     18  N   UNL     1      47.303   6.013  12.584  0.00  0.00    +0.000 N 
ATOM     19  C   UNL     1      46.286   6.437  11.766  0.00  0.00    +0.000 C 
ATOM     20  O   UNL     1      45.954   7.617  11.697  0.00  0.00    +0.000 OA
ATOM     21  H   UNL     1      47.386   5.026  12.798  0.00  0.00    +0.000 HD
BRANCH  19  22
ATOM     22  C   UNL     1      45.651   5.410  10.928  0.00  0.00    +0.000 A 
ATOM     23  C   UNL     1      45.729   5.499   9.545  0.00  0.00    +0.000 A 
ATOM     24  S   UNL     1      44.978   4.202   8.730  0.00  0.00    +0.000 S 
ATOM     25  C   UNL     1      44.476   3.500  10.200  0.00  0.00    +0.000 A 
ATOM     26  N   UNL     1      43.741   2.356  10.216  0.00  0.00    +0.000 NA
ATOM     27  C   UNL     1      43.405   1.951  11.390  0.00  0.00    +0.000 A 
ATOM     28  N   UNL     1      43.740   2.587  12.558  0.00  0.00    +0.000 N 
ATOM     29  C   UNL     1      44.505   3.729  12.593  0.00  0.00    +0.000 A 
ATOM     30  O   UNL     1      44.831   4.251  13.653  0.00  0.00    +0.000 OA
ATOM     31  C   UNL     1      44.896   4.233  11.291  0.00  0.00    +0.000 A 
ATOM     32  H   UNL     1      43.456   2.216  13.452  0.00  0.00    +0.000 HD
ENDBRANCH  19  22
ENDBRANCH  17  18
ENDBRANCH   4  17
TORSDOF 5
ENDMDL
MODEL 5
REMARK VINA RESULT:    -6.995      3.596      4.780
REMARK INTER + INTRA:          -9.932
REMARK INTER:                  -8.765
REMARK INTRA:                  -1.167
REMARK UNBOUND:                -0.892
REMARK  Name = 
REMARK  7 active torsions:
REMARK  status: ('A' for Active; 'I' for Inactive)
REMARK    1  A    between atoms: C_1  and  N_2
REMARK    2  A    between atoms: N_2  and  C_3
REMARK    3  A    between atoms: C_7  and  C_8
REMARK    4  A    between atoms: C_8  and  C_9
REMARK    5  A    between atoms: C_12  and  C_13
REMARK    6  A    between atoms: C_13  and  N_14
REMARK    7  A    between atoms: C_15  and  C_17
REMARK                            x       y       z     vdW  Elec       q    Type
REMARK                         _______ _______ _______ _____ _____    ______ ____
ROOT
ATOM      1  C   UNL     1      44.630   5.933  11.554  0.00  0.00    +0.000 A 
ATOM      2  C   UNL     1      44.548   7.312  11.390  0.00  0.00    +0.000 A 
ATOM      3  C   UNL     1      45.430   8.128  12.097  0.00  0.00    +0.000 A 
ATOM      4  C   UNL     1      46.362   7.559  12.968  0.00  0.00    +0.000 A 
ATOM      5  C   UNL     1      46.342   6.174  13.096  0.00  0.00    +0.000 A 
ATOM      6  N   UNL     1      45.502   5.357  12.420  0.00  0.00    +0.000 NA
ENDROOT
BRANCH   1   7
ATOM      7  C   UNL     1      43.828   5.007  10.666  0.00  0.00    +0.000 C 
BRANCH   7  14
ATOM      8  C   UNL     1      46.854   0.265   7.470  0.00  0.00    +0.000 C 
ATOM      9  N   UNL     1      47.003   1.700   7.261  0.00  0.00    +0.000 N 
ATOM     10  C   UNL     1      47.240   2.160   5.900  0.00  0.00    +0.000 C 
ATOM     11  C   UNL     1      46.239   2.522   8.098  0.00  0.00    +0.000 A 
ATOM     12  C   UNL     1      46.273   3.913   7.963  0.00  0.00    +0.000 A 
ATOM     13  C   UNL     1      45.502   4.735   8.787  0.00  0.00    +0.000 A 
ATOM     14  C   UNL     1      44.694   4.165   9.762  0.00  0.00    +0.000 A 
ATOM     15  C   UNL     1      44.725   2.779   9.857  0.00  0.00    +0.000 A 
ATOM     16  N   UNL     1      45.476   1.967   9.064  0.00  0.00    +0.000 NA
ENDBRANCH   7  14
ENDBRANCH   1   7
BRANCH   4  17
ATOM     17  C   UNL     1      47.383   8.389  13.689  0.00  0.00    +0.000 C 
BRANCH  17  18
ATOM     18  N   UNL     1      48.723   8.098  13.228  0.00  0.00    +0.000 N 
ATOM     19  C   UNL     1      49.258   8.730  12.135  0.00  0.00    +0.000 C 
ATOM     20  O   UNL     1      48.642   9.593  11.514  0.00  0.00    +0.000 OA
ATOM     21  H   UNL     1      49.148   7.239  13.559  0.00  0.00    +0.000 HD
BRANCH  19  22
ATOM     22  C   UNL     1      50.636   8.364  11.779  0.00  0.00    +0.000 A 
ATOM     23  C   UNL     1      50.890   7.689  10.592  0.00  0.00    +0.000 A 
ATOM     24  S   UNL     1      52.545   7.383  10.317  0.00  0.00    +0.000 S 
ATOM     25  C   UNL     1      52.979   8.097  11.802  0.00  0.00    +0.000 A 
ATOM     26  N   UNL     1      54.277   8.139  12.208  0.00  0.00    +0.000 NA
ATOM     27  C   UNL     1      54.460   8.680  13.361  0.00  0.00    +0.000 A 
ATOM     28  N   UNL     1      53.460   9.188  14.150  0.00  0.00    +0.000 N 
ATOM     29  C   UNL     1      52.139   9.193  13.770  0.00  0.00    +0.000 A 
ATOM     30  O   UNL     1      51.271   9.696  14.474  0.00  0.00    +0.000 OA
ATOM     31  C   UNL     1      51.879   8.580  12.482  0.00  0.00    +0.000 A 
ATOM     32  H   UNL     1      53.667   9.610  15.044  0.00  0.00    +0.000 HD
ENDBRANCH  19  22
ENDBRANCH  17  18
ENDBRANCH   4  17
TORSDOF 5
ENDMDL
MODEL 6
REMARK VINA RESULT:    -6.752      1.833      2.653
REMARK INTER + INTRA:          -9.617
REMARK INTER:                  -9.088
REMARK INTRA:                  -0.529
REMARK UNBOUND:                -0.892
REMARK  Name = 
REMARK  7 active torsions:
REMARK  status: ('A' for Active; 'I' for Inactive)
REMARK    1  A    between atoms: C_1  and  N_2
REMARK    2  A    between atoms: N_2  and  C_3
REMARK    3  A    between atoms: C_7  and  C_8
REMARK    4  A    between atoms: C_8  and  C_9
REMARK    5  A    between atoms: C_12  and  C_13
REMARK    6  A    between atoms: C_13  and  N_14
REMARK    7  A    between atoms: C_15  and  C_17
REMARK                            x       y       z     vdW  Elec       q    Type
REMARK                         _______ _______ _______ _____ _____    ______ ____
ROOT
ATOM      1  C   UNL     1      45.626   5.575  11.807  0.00  0.00    +0.000 A 
ATOM      2  C   UNL     1      45.971   4.921  12.986  0.00  0.00    +0.000 A 
ATOM      3  C   UNL     1      46.860   5.539  13.864  0.00  0.00    +0.000 A 
ATOM      4  C   UNL     1      47.405   6.784  13.543  0.00  0.00    +0.000 A 
ATOM      5  C   UNL     1      47.032   7.342  12.325  0.00  0.00    +0.000 A 
ATOM      6  N   UNL     1      46.168   6.768  11.456  0.00  0.00    +0.000 NA
ENDROOT
BRANCH   1   7
ATOM      7  C   UNL     1      44.523   5.032  10.925  0.00  0.00    +0.000 C 
BRANCH   7  14
ATOM      8  C   UNL     1      47.231   2.649   5.554  0.00  0.00    +0.000 C 
ATOM      9  N   UNL     1      46.590   1.894   6.625  0.00  0.00    +0.000 N 
ATOM     10  C   UNL     1      47.139   0.585   6.946  0.00  0.00    +0.000 C 
ATOM     11  C   UNL     1      46.069   2.654   7.680  0.00  0.00    +0.000 A 
ATOM     12  C   UNL     1      45.466   2.035   8.779  0.00  0.00    +0.000 A 
ATOM     13  C   UNL     1      44.957   2.788   9.838  0.00  0.00    +0.000 A 
ATOM     14  C   UNL     1      45.042   4.173   9.799  0.00  0.00    +0.000 A 
ATOM     15  C   UNL     1      45.633   4.723   8.667  0.00  0.00    +0.000 A 
ATOM     16  N   UNL     1      46.127   4.001   7.626  0.00  0.00    +0.000 NA
ENDBRANCH   7  14
ENDBRANCH   1   7
BRANCH   4  17
ATOM     17  C   UNL     1      48.304   7.524  14.492  0.00  0.00    +0.000 C 
BRANCH  17  18
ATOM     18  N   UNL     1      48.421   6.833  15.757  0.00  0.00    +0.000 N 
ATOM     19  C   UNL     1      49.633   6.388  16.220  0.00  0.00    +0.000 C 
ATOM     20  O   UNL     1      50.677   6.580  15.604  0.00  0.00    +0.000 OA
ATOM     21  H   UNL     1      47.569   6.454  16.155  0.00  0.00    +0.000 HD
BRANCH  19  22
ATOM     22  C   UNL     1      49.625   5.720  17.530  0.00  0.00    +0.000 A 
ATOM     23  C   UNL     1      48.636   4.792  17.828  0.00  0.00    +0.000 A 
ATOM     24  S   UNL     1      48.804   4.083  19.371  0.00  0.00    +0.000 S 
ATOM     25  C   UNL     1      50.176   5.031  19.716  0.00  0.00    +0.000 A 
ATOM     26  N   UNL     1      50.809   4.939  20.917  0.00  0.00    +0.000 NA
ATOM     27  C   UNL     1      51.813   5.731  21.056  0.00  0.00    +0.000 A 
ATOM     28  N   UNL     1      52.249   6.611  20.099  0.00  0.00    +0.000 N 
ATOM     29  C   UNL     1      51.659   6.720  18.862  0.00  0.00    +0.000 A 
ATOM     30  O   UNL     1      52.097   7.481  18.006  0.00  0.00    +0.000 OA
ATOM     31  C   UNL     1      50.512   5.856  18.662  0.00  0.00    +0.000 A 
ATOM     32  H   UNL     1      53.050   7.203  20.262  0.00  0.00    +0.000 HD
ENDBRANCH  19  22
ENDBRANCH  17  18
ENDBRANCH   4  17
TORSDOF 5
ENDMDL
MODEL 7
REMARK VINA RESULT:    -6.508      5.242      7.199
REMARK INTER + INTRA:          -9.302
REMARK INTER:                  -8.379
REMARK INTRA:                  -0.924
REMARK UNBOUND:                -0.892
REMARK  Name = 
REMARK  7 active torsions:
REMARK  status: ('A' for Active; 'I' for Inactive)
REMARK    1  A    between atoms: C_1  and  N_2
REMARK    2  A    between atoms: N_2  and  C_3
REMARK    3  A    between atoms: C_7  and  C_8
REMARK    4  A    between atoms: C_8  and  C_9
REMARK    5  A    between atoms: C_12  and  C_13
REMARK    6  A    between atoms: C_13  and  N_14
REMARK    7  A    between atoms: C_15  and  C_17
REMARK                            x       y       z     vdW  Elec       q    Type
REMARK                         _______ _______ _______ _____ _____    ______ ____
ROOT
ATOM      1  C   UNL     1      47.195   7.532  12.677  0.00  0.00    +0.000 A 
ATOM      2  C   UNL     1      47.445   8.799  12.159  0.00  0.00    +0.000 A 
ATOM      3  C   UNL     1      48.764   9.184  11.926  0.00  0.00    +0.000 A 
ATOM      4  C   UNL     1      49.810   8.310  12.233  0.00  0.00    +0.000 A 
ATOM      5  C   UNL     1      49.465   7.080  12.783  0.00  0.00    +0.000 A 
ATOM      6  N   UNL     1      48.194   6.678  13.016  0.00  0.00    +0.000 NA
ENDROOT
BRANCH   1   7
ATOM      7  C   UNL     1      45.780   7.004  12.762  0.00  0.00    +0.000 C 
BRANCH   7  14
ATOM      8  C   UNL     1      45.382   3.398   7.404  0.00  0.00    +0.000 C 
ATOM      9  N   UNL     1      44.763   3.124   8.697  0.00  0.00    +0.000 N 
ATOM     10  C   UNL     1      44.647   1.732   9.104  0.00  0.00    +0.000 C 
ATOM     11  C   UNL     1      44.995   4.075   9.698  0.00  0.00    +0.000 A 
ATOM     12  C   UNL     1      44.484   3.897  10.987  0.00  0.00    +0.000 A 
ATOM     13  C   UNL     1      44.724   4.836  11.992  0.00  0.00    +0.000 A 
ATOM     14  C   UNL     1      45.476   5.968  11.708  0.00  0.00    +0.000 A 
ATOM     15  C   UNL     1      45.935   6.093  10.402  0.00  0.00    +0.000 A 
ATOM     16  N   UNL     1      45.702   5.189   9.412  0.00  0.00    +0.000 NA
ENDBRANCH   7  14
ENDBRANCH   1   7
BRANCH   4  17
ATOM     17  C   UNL     1      51.240   8.648  11.926  0.00  0.00    +0.000 C 
BRANCH  17  18
ATOM     18  N   UNL     1      51.596   8.270  10.576  0.00  0.00    +0.000 N 
ATOM     19  C   UNL     1      52.705   8.786   9.956  0.00  0.00    +0.000 C 
ATOM     20  O   UNL     1      53.465   9.567  10.523  0.00  0.00    +0.000 OA
ATOM     21  H   UNL     1      50.873   7.834  10.014  0.00  0.00    +0.000 HD
BRANCH  19  22
ATOM     22  C   UNL     1      52.972   8.307   8.592  0.00  0.00    +0.000 A 
ATOM     23  C   UNL     1      52.884   9.185   7.520  0.00  0.00    +0.000 A 
ATOM     24  S   UNL     1      53.268   8.474   6.018  0.00  0.00    +0.000 S 
ATOM     25  C   UNL     1      53.516   6.951   6.742  0.00  0.00    +0.000 A 
ATOM     26  N   UNL     1      53.846   5.864   5.994  0.00  0.00    +0.000 NA
ATOM     27  C   UNL     1      53.975   4.773   6.663  0.00  0.00    +0.000 A 
ATOM     28  N   UNL     1      53.807   4.667   8.020  0.00  0.00    +0.000 N 
ATOM     29  C   UNL     1      53.501   5.742   8.820  0.00  0.00    +0.000 A 
ATOM     30  O   UNL     1      53.403   5.630  10.037  0.00  0.00    +0.000 OA
ATOM     31  C   UNL     1      53.331   6.994   8.109  0.00  0.00    +0.000 A 
ATOM     32  H   UNL     1      53.931   3.783   8.492  0.00  0.00    +0.000 HD
ENDBRANCH  19  22
ENDBRANCH  17  18
ENDBRANCH   4  17
TORSDOF 5
ENDMDL
MODEL 8
REMARK VINA RESULT:    -6.485      3.496      8.990
REMARK INTER + INTRA:          -9.272
REMARK INTER:                  -8.336
REMARK INTRA:                  -0.936
REMARK UNBOUND:                -0.892
REMARK  Name = 
REMARK  7 active torsions:
REMARK  status: ('A' for Active; 'I' for Inactive)
REMARK    1  A    between atoms: C_1  and  N_2
REMARK    2  A    between atoms: N_2  and  C_3
REMARK    3  A    between atoms: C_7  and  C_8
REMARK    4  A    between atoms: C_8  and  C_9
REMARK    5  A    between atoms: C_12  and  C_13
REMARK    6  A    between atoms: C_13  and  N_14
REMARK    7  A    between atoms: C_15  and  C_17
REMARK                            x       y       z     vdW  Elec       q    Type
REMARK                         _______ _______ _______ _____ _____    ______ ____
ROOT
ATOM      1  C   UNL     1      49.420   7.290  15.953  0.00  0.00    +0.000 A 
ATOM      2  C   UNL     1      49.465   8.517  15.297  0.00  0.00    +0.000 A 
ATOM      3  C   UNL     1      48.818   8.648  14.069  0.00  0.00    +0.000 A 
ATOM      4  C   UNL     1      48.160   7.552  13.507  0.00  0.00    +0.000 A 
ATOM      5  C   UNL     1      48.203   6.357  14.217  0.00  0.00    +0.000 A 
ATOM      6  N   UNL     1      48.817   6.202  15.412  0.00  0.00    +0.000 NA
ENDROOT
BRANCH   1   7
ATOM      7  C   UNL     1      49.938   7.159  17.368  0.00  0.00    +0.000 C 
BRANCH   7  14
ATOM      8  C   UNL     1      55.318   3.565  17.353  0.00  0.00    +0.000 C 
ATOM      9  N   UNL     1      54.019   3.201  17.907  0.00  0.00    +0.000 N 
ATOM     10  C   UNL     1      54.007   2.376  19.106  0.00  0.00    +0.000 C 
ATOM     11  C   UNL     1      53.007   4.159  17.770  0.00  0.00    +0.000 A 
ATOM     12  C   UNL     1      51.732   3.934  18.297  0.00  0.00    +0.000 A 
ATOM     13  C   UNL     1      50.723   4.892  18.174  0.00  0.00    +0.000 A 
ATOM     14  C   UNL     1      50.986   6.084  17.513  0.00  0.00    +0.000 A 
ATOM     15  C   UNL     1      52.268   6.233  16.995  0.00  0.00    +0.000 A 
ATOM     16  N   UNL     1      53.257   5.305  17.102  0.00  0.00    +0.000 NA
ENDBRANCH   7  14
ENDBRANCH   1   7
BRANCH   4  17
ATOM     17  C   UNL     1      47.383   7.666  12.227  0.00  0.00    +0.000 C 
BRANCH  17  18
ATOM     18  N   UNL     1      46.712   6.426  11.904  0.00  0.00    +0.000 N 
ATOM     19  C   UNL     1      45.349   6.368  11.753  0.00  0.00    +0.000 C 
ATOM     20  O   UNL     1      44.639   7.364  11.853  0.00  0.00    +0.000 OA
ATOM     21  H   UNL     1      47.230   5.568  12.056  0.00  0.00    +0.000 HD
BRANCH  19  22
ATOM     22  C   UNL     1      44.788   5.055  11.403  0.00  0.00    +0.000 A 
ATOM     23  C   UNL     1      44.018   4.362  12.327  0.00  0.00    +0.000 A 
ATOM     24  S   UNL     1      43.410   2.879  11.740  0.00  0.00    +0.000 S 
ATOM     25  C   UNL     1      44.200   3.087  10.245  0.00  0.00    +0.000 A 
ATOM     26  N   UNL     1      44.118   2.141   9.271  0.00  0.00    +0.000 NA
ATOM     27  C   UNL     1      44.784   2.411   8.204  0.00  0.00    +0.000 A 
ATOM     28  N   UNL     1      45.528   3.549   8.017  0.00  0.00    +0.000 N 
ATOM     29  C   UNL     1      45.618   4.545   8.961  0.00  0.00    +0.000 A 
ATOM     30  O   UNL     1      46.250   5.573   8.751  0.00  0.00    +0.000 OA
ATOM     31  C   UNL     1      44.894   4.279  10.189  0.00  0.00    +0.000 A 
ATOM     32  H   UNL     1      46.023   3.710   7.153  0.00  0.00    +0.000 HD
ENDBRANCH  19  22
ENDBRANCH  17  18
ENDBRANCH   4  17
TORSDOF 5
ENDMDL
MODEL 9
REMARK VINA RESULT:    -6.401      2.705      4.331
REMARK INTER + INTRA:          -9.165
REMARK INTER:                  -8.260
REMARK INTRA:                  -0.905
REMARK UNBOUND:                -0.892
REMARK  Name = 
REMARK  7 active torsions:
REMARK  status: ('A' for Active; 'I' for Inactive)
REMARK    1  A    between atoms: C_1  and  N_2
REMARK    2  A    between atoms: N_2  and  C_3
REMARK    3  A    between atoms: C_7  and  C_8
REMARK    4  A    between atoms: C_8  and  C_9
REMARK    5  A    between atoms: C_12  and  C_13
REMARK    6  A    between atoms: C_13  and  N_14
REMARK    7  A    between atoms: C_15  and  C_17
REMARK                            x       y       z     vdW  Elec       q    Type
REMARK                         _______ _______ _______ _____ _____    ______ ____
ROOT
ATOM      1  C   UNL     1      47.633   7.996  13.527  0.00  0.00    +0.000 A 
ATOM      2  C   UNL     1      48.072   6.733  13.913  0.00  0.00    +0.000 A 
ATOM      3  C   UNL     1      48.652   6.576  15.171  0.00  0.00    +0.000 A 
ATOM      4  C   UNL     1      48.805   7.683  16.010  0.00  0.00    +0.000 A 
ATOM      5  C   UNL     1      48.373   8.911  15.522  0.00  0.00    +0.000 A 
ATOM      6  N   UNL     1      47.802   9.091  14.309  0.00  0.00    +0.000 NA
ENDROOT
BRANCH   1   7
ATOM      7  C   UNL     1      46.827   8.171  12.259  0.00  0.00    +0.000 C 
BRANCH   7  14
ATOM      8  C   UNL     1      44.292   2.826   9.639  0.00  0.00    +0.000 C 
ATOM      9  N   UNL     1      43.856   3.500  10.856  0.00  0.00    +0.000 N 
ATOM     10  C   UNL     1      43.349   2.670  11.939  0.00  0.00    +0.000 C 
ATOM     11  C   UNL     1      44.570   4.654  11.204  0.00  0.00    +0.000 A 
ATOM     12  C   UNL     1      44.264   5.360  12.371  0.00  0.00    +0.000 A 
ATOM     13  C   UNL     1      44.981   6.504  12.728  0.00  0.00    +0.000 A 
ATOM     14  C   UNL     1      46.009   6.953  11.910  0.00  0.00    +0.000 A 
ATOM     15  C   UNL     1      46.245   6.216  10.755  0.00  0.00    +0.000 A 
ATOM     16  N   UNL     1      45.550   5.105  10.392  0.00  0.00    +0.000 NA
ENDBRANCH   7  14
ENDBRANCH   1   7
BRANCH   4  17
ATOM     17  C   UNL     1      49.351   7.551  17.403  0.00  0.00    +0.000 C 
BRANCH  17  18
ATOM     18  N   UNL     1      50.293   6.457  17.501  0.00  0.00    +0.000 N 
ATOM     19  C   UNL     1      50.852   6.098  18.701  0.00  0.00    +0.000 C 
ATOM     20  O   UNL     1      50.560   6.663  19.751  0.00  0.00    +0.000 OA
ATOM     21  H   UNL     1      50.728   6.145  16.639  0.00  0.00    +0.000 HD
BRANCH  19  22
ATOM     22  C   UNL     1      51.778   4.956  18.674  0.00  0.00    +0.000 A 
ATOM     23  C   UNL     1      53.040   5.074  19.240  0.00  0.00    +0.000 A 
ATOM     24  S   UNL     1      53.964   3.642  19.159  0.00  0.00    +0.000 S 
ATOM     25  C   UNL     1      52.727   2.828  18.316  0.00  0.00    +0.000 A 
ATOM     26  N   UNL     1      52.888   1.541  17.905  0.00  0.00    +0.000 NA
ATOM     27  C   UNL     1      51.888   1.058  17.254  0.00  0.00    +0.000 A 
ATOM     28  N   UNL     1      50.734   1.745  16.978  0.00  0.00    +0.000 N 
ATOM     29  C   UNL     1      50.515   3.036  17.396  0.00  0.00    +0.000 A 
ATOM     30  O   UNL     1      49.456   3.611  17.177  0.00  0.00    +0.000 OA
ATOM     31  C   UNL     1      51.621   3.630  18.122  0.00  0.00    +0.000 A 
ATOM     32  H   UNL     1      49.979   1.309  16.470  0.00  0.00    +0.000 HD
ENDBRANCH  19  22
ENDBRANCH  17  18
ENDBRANCH   4  17
TORSDOF 5
ENDMDL
