MODEL 1
REMARK VINA RESULT:    -8.205      0.000      0.000
REMARK INTER + INTRA:         -14.903
REMARK INTER:                 -13.482
REMARK INTRA:                  -1.422
REMARK UNBOUND:                -1.422
REMARK  Name = 
REMARK  12 active torsions:
REMARK  status: ('A' for Active; 'I' for Inactive)
REMARK    1  A    between atoms: C_2  and  C_25
REMARK    2  A    between atoms: N_3  and  C_4
REMARK    3  A    between atoms: C_4  and  C_5
REMARK    4  A    between atoms: C_8  and  C_9
REMARK    5  A    between atoms: C_9  and  C_10
REMARK    6  A    between atoms: C_10  and  O_11
REMARK    7  A    between atoms: C_10  and  C_12
REMARK    8  A    between atoms: C_12  and  O_13
REMARK    9  A    between atoms: C_14  and  C_15
REMARK   10  A    between atoms: C_15  and  N_16
REMARK   11  A    between atoms: N_16  and  C_17
REMARK   12  A    between atoms: C_17  and  C_18
REMARK                            x       y       z     vdW  Elec       q    Type
REMARK                         _______ _______ _______ _____ _____    ______ ____
ROOT
ATOM      1  C   UNL     1      46.469   5.132  13.655  0.00  0.00    +0.000 A 
ATOM      2  C   UNL     1      46.938   6.435  13.615  0.00  0.00    +0.000 A 
ATOM      3  N   UNL     1      46.369   7.427  12.886  0.00  0.00    +0.000 NA
ATOM      4  C   UNL     1      45.265   7.120  12.140  0.00  0.00    +0.000 A 
ATOM      5  C   UNL     1      44.694   5.839  12.137  0.00  0.00    +0.000 A 
ATOM      6  C   UNL     1      45.322   4.851  12.913  0.00  0.00    +0.000 A 
ENDROOT
BRANCH   1   7
ATOM      7  C   UNL     1      47.136   4.070  14.476  0.00  0.00    +0.000 C 
BRANCH   7  10
ATOM      8  O   UNL     1      46.393   3.278  17.083  0.00  0.00    +0.000 OA
ATOM      9  C   UNL     1      47.253   4.142  16.942  0.00  0.00    +0.000 C 
ATOM     10  N   UNL     1      47.652   4.598  15.713  0.00  0.00    +0.000 N 
ATOM     11  H   UNL     1      48.437   5.234  15.647  0.00  0.00    +0.000 HD
BRANCH   9  12
ATOM     12  C   UNL     1      47.898   4.770  18.101  0.00  0.00    +0.000 A 
ATOM     13  C   UNL     1      47.167   5.605  18.935  0.00  0.00    +0.000 A 
ATOM     14  S   UNL     1      48.075   6.229  20.237  0.00  0.00    +0.000 S 
ATOM     15  C   UNL     1      49.466   5.375  19.751  0.00  0.00    +0.000 A 
ATOM     16  N   UNL     1      50.617   5.441  20.472  0.00  0.00    +0.000 NA
ATOM     17  C   UNL     1      51.577   4.710  20.013  0.00  0.00    +0.000 A 
ATOM     18  N   UNL     1      51.496   3.930  18.888  0.00  0.00    +0.000 N 
ATOM     19  C   UNL     1      50.381   3.891  18.090  0.00  0.00    +0.000 A 
ATOM     20  O   UNL     1      50.386   3.284  17.021  0.00  0.00    +0.000 OA
ATOM     21  C   UNL     1      49.251   4.652  18.592  0.00  0.00    +0.000 A 
ATOM     22  H   UNL     1      52.296   3.409  18.564  0.00  0.00    +0.000 HD
ENDBRANCH   9  12
ENDBRANCH   7  10
ENDBRANCH   1   7
BRANCH   4  23
ATOM     23  C   UNL     1      44.647   8.281  11.384  0.00  0.00    +0.000 C 
BRANCH  23  24
ATOM     24  C   UNL     1      44.902   9.693  11.945  0.00  0.00    +0.000 C 
BRANCH  24  25
ATOM     25  O   UNL     1      46.251  10.113  11.721  0.00  0.00    +0.000 OA
ATOM     26  H   UNL     1      46.212  11.076  11.536  0.00  0.00    +0.000 HD
ENDBRANCH  24  25
BRANCH  24  27
ATOM     27  C   UNL     1      43.915  10.767  11.453  0.00  0.00    +0.000 C 
BRANCH  27  28
ATOM     28  O   UNL     1      42.678  10.780  12.154  0.00  0.00    +0.000 OA
ATOM     29  H   UNL     1      42.882  10.867  13.106  0.00  0.00    +0.000 HD
ENDBRANCH  27  28
ENDBRANCH  24  27
ENDBRANCH  23  24
ENDBRANCH   4  23
BRANCH   5  30
ATOM     30  C   UNL     1      43.511   5.435  11.289  0.00  0.00    +0.000 C 
BRANCH  30  31
ATOM     31  N   UNL     1      43.885   5.029   9.933  0.00  0.00    +0.000 NA
ATOM     32  H   UNL     1      44.776   5.460   9.685  0.00  0.00    +0.000 HD
BRANCH  31  33
ATOM     33  C   UNL     1      44.053   3.568   9.892  0.00  0.00    +0.000 C 
BRANCH  33  34
ATOM     34  C   UNL     1      45.101   3.116   8.898  0.00  0.00    +0.000 A 
ATOM     35  C   UNL     1      45.672   4.028   8.012  0.00  0.00    +0.000 A 
ATOM     36  C   UNL     1      46.624   3.575   7.104  0.00  0.00    +0.000 A 
ATOM     37  C   UNL     1      46.976   2.231   7.100  0.00  0.00    +0.000 A 
ATOM     38  C   UNL     1      46.357   1.390   8.008  0.00  0.00    +0.000 A 
ATOM     39  N   UNL     1      45.434   1.799   8.905  0.00  0.00    +0.000 NA
ENDBRANCH  33  34
ENDBRANCH  31  33
ENDBRANCH  30  31
ENDBRANCH   5  30
TORSDOF 12
ENDMDL
MODEL 2
REMARK VINA RESULT:    -8.111      2.459      3.561
REMARK INTER + INTRA:         -14.748
REMARK INTER:                 -12.934
REMARK INTRA:                  -1.814
REMARK UNBOUND:                -1.422
REMARK  Name = 
REMARK  12 active torsions:
REMARK  status: ('A' for Active; 'I' for Inactive)
REMARK    1  A    between atoms: C_2  and  C_25
REMARK    2  A    between atoms: N_3  and  C_4
REMARK    3  A    between atoms: C_4  and  C_5
REMARK    4  A    between atoms: C_8  and  C_9
REMARK    5  A    between atoms: C_9  and  C_10
REMARK    6  A    between atoms: C_10  and  O_11
REMARK    7  A    between atoms: C_10  and  C_12
REMARK    8  A    between atoms: C_12  and  O_13
REMARK    9  A    between atoms: C_14  and  C_15
REMARK   10  A    between atoms: C_15  and  N_16
REMARK   11  A    between atoms: N_16  and  C_17
REMARK   12  A    between atoms: C_17  and  C_18
REMARK                            x       y       z     vdW  Elec       q    Type
REMARK                         _______ _______ _______ _____ _____    ______ ____
ROOT
ATOM      1  C   UNL     1      47.182   7.411  12.401  0.00  0.00    +0.000 A 
ATOM      2  C   UNL     1      46.080   8.062  12.928  0.00  0.00    +0.000 A 
ATOM      3  N   UNL     1      44.801   7.832  12.539  0.00  0.00    +0.000 NA
ATOM      4  C   UNL     1      44.587   6.900  11.561  0.00  0.00    +0.000 A 
ATOM      5  C   UNL     1      45.633   6.163  10.986  0.00  0.00    +0.000 A 
ATOM      6  C   UNL     1      46.938   6.441  11.429  0.00  0.00    +0.000 A 
ENDROOT
BRANCH   1   7
ATOM      7  C   UNL     1      48.578   7.704  12.863  0.00  0.00    +0.000 C 
BRANCH   7  10
ATOM      8  O   UNL     1      48.428   8.525  15.561  0.00  0.00    +0.000 OA
ATOM      9  C   UNL     1      48.808   7.386  15.301  0.00  0.00    +0.000 C 
ATOM     10  N   UNL     1      48.931   6.920  14.019  0.00  0.00    +0.000 N 
ATOM     11  H   UNL     1      49.147   5.943  13.861  0.00  0.00    +0.000 HD
BRANCH   9  12
ATOM     12  C   UNL     1      49.186   6.449  16.365  0.00  0.00    +0.000 A 
ATOM     13  C   UNL     1      50.230   6.760  17.226  0.00  0.00    +0.000 A 
ATOM     14  S   UNL     1      50.515   5.563  18.408  0.00  0.00    +0.000 S 
ATOM     15  C   UNL     1      49.230   4.606  17.831  0.00  0.00    +0.000 A 
ATOM     16  N   UNL     1      48.903   3.433  18.437  0.00  0.00    +0.000 NA
ATOM     17  C   UNL     1      47.882   2.833  17.922  0.00  0.00    +0.000 A 
ATOM     18  N   UNL     1      47.167   3.293  16.845  0.00  0.00    +0.000 N 
ATOM     19  C   UNL     1      47.507   4.431  16.159  0.00  0.00    +0.000 A 
ATOM     20  O   UNL     1      46.925   4.744  15.123  0.00  0.00    +0.000 OA
ATOM     21  C   UNL     1      48.614   5.174  16.731  0.00  0.00    +0.000 A 
ATOM     22  H   UNL     1      46.399   2.757  16.471  0.00  0.00    +0.000 HD
ENDBRANCH   9  12
ENDBRANCH   7  10
ENDBRANCH   1   7
BRANCH   4  23
ATOM     23  C   UNL     1      43.134   6.653  11.203  0.00  0.00    +0.000 C 
BRANCH  23  24
ATOM     24  C   UNL     1      42.423   5.497  11.932  0.00  0.00    +0.000 C 
BRANCH  24  25
ATOM     25  O   UNL     1      42.208   4.380  11.064  0.00  0.00    +0.000 OA
ATOM     26  H   UNL     1      42.431   3.580  11.585  0.00  0.00    +0.000 HD
ENDBRANCH  24  25
BRANCH  24  27
ATOM     27  C   UNL     1      43.107   5.042  13.233  0.00  0.00    +0.000 C 
BRANCH  27  28
ATOM     28  O   UNL     1      43.785   3.796  13.126  0.00  0.00    +0.000 OA
ATOM     29  H   UNL     1      44.694   3.928  13.461  0.00  0.00    +0.000 HD
ENDBRANCH  27  28
ENDBRANCH  24  27
ENDBRANCH  23  24
ENDBRANCH   4  23
BRANCH   5  30
ATOM     30  C   UNL     1      45.458   5.165   9.867  0.00  0.00    +0.000 C 
BRANCH  30  31
ATOM     31  N   UNL     1      45.142   3.816  10.340  0.00  0.00    +0.000 NA
ATOM     32  H   UNL     1      44.444   3.873  11.083  0.00  0.00    +0.000 HD
BRANCH  31  33
ATOM     33  C   UNL     1      44.570   3.033   9.232  0.00  0.00    +0.000 C 
BRANCH  33  34
ATOM     34  C   UNL     1      45.581   2.692   8.160  0.00  0.00    +0.000 A 
ATOM     35  C   UNL     1      46.276   1.485   8.204  0.00  0.00    +0.000 A 
ATOM     36  C   UNL     1      47.208   1.210   7.208  0.00  0.00    +0.000 A 
ATOM     37  C   UNL     1      47.424   2.143   6.201  0.00  0.00    +0.000 A 
ATOM     38  C   UNL     1      46.698   3.321   6.234  0.00  0.00    +0.000 A 
ATOM     39  N   UNL     1      45.784   3.615   7.184  0.00  0.00    +0.000 NA
ENDBRANCH  33  34
ENDBRANCH  31  33
ENDBRANCH  30  31
ENDBRANCH   5  30
TORSDOF 12
ENDMDL
MODEL 3
REMARK VINA RESULT:    -7.636      2.571      3.474
REMARK INTER + INTRA:         -13.967
REMARK INTER:                 -12.478
REMARK INTRA:                  -1.489
REMARK UNBOUND:                -1.422
REMARK  Name = 
REMARK  12 active torsions:
REMARK  status: ('A' for Active; 'I' for Inactive)
REMARK    1  A    between atoms: C_2  and  C_25
REMARK    2  A    between atoms: N_3  and  C_4
REMARK    3  A    between atoms: C_4  and  C_5
REMARK    4  A    between atoms: C_8  and  C_9
REMARK    5  A    between atoms: C_9  and  C_10
REMARK    6  A    between atoms: C_10  and  O_11
REMARK    7  A    between atoms: C_10  and  C_12
REMARK    8  A    between atoms: C_12  and  O_13
REMARK    9  A    between atoms: C_14  and  C_15
REMARK   10  A    between atoms: C_15  and  N_16
REMARK   11  A    between atoms: N_16  and  C_17
REMARK   12  A    between atoms: C_17  and  C_18
REMARK                            x       y       z     vdW  Elec       q    Type
REMARK                         _______ _______ _______ _____ _____    ______ ____
ROOT
ATOM      1  C   UNL     1      47.523   4.149  16.032  0.00  0.00    +0.000 A 
ATOM      2  C   UNL     1      48.099   5.391  15.822  0.00  0.00    +0.000 A 
ATOM      3  N   UNL     1      47.978   6.102  14.673  0.00  0.00    +0.000 NA
ATOM      4  C   UNL     1      47.245   5.555  13.655  0.00  0.00    +0.000 A 
ATOM      5  C   UNL     1      46.597   4.317  13.780  0.00  0.00    +0.000 A 
ATOM      6  C   UNL     1      46.753   3.626  14.993  0.00  0.00    +0.000 A 
ENDROOT
BRANCH   1   7
ATOM      7  C   UNL     1      47.689   3.401  17.321  0.00  0.00    +0.000 C 
BRANCH   7  10
ATOM      8  O   UNL     1      49.449   1.584  16.067  0.00  0.00    +0.000 OA
ATOM      9  C   UNL     1      49.872   2.304  16.967  0.00  0.00    +0.000 C 
ATOM     10  N   UNL     1      49.078   3.193  17.641  0.00  0.00    +0.000 N 
ATOM     11  H   UNL     1      49.497   3.836  18.301  0.00  0.00    +0.000 HD
BRANCH   9  12
ATOM     12  C   UNL     1      51.272   2.234  17.402  0.00  0.00    +0.000 A 
ATOM     13  C   UNL     1      51.887   1.000  17.567  0.00  0.00    +0.000 A 
ATOM     14  S   UNL     1      53.517   1.114  18.059  0.00  0.00    +0.000 S 
ATOM     15  C   UNL     1      53.465   2.817  18.033  0.00  0.00    +0.000 A 
ATOM     16  N   UNL     1      54.568   3.556  18.324  0.00  0.00    +0.000 NA
ATOM     17  C   UNL     1      54.398   4.832  18.224  0.00  0.00    +0.000 A 
ATOM     18  N   UNL     1      53.218   5.437  17.873  0.00  0.00    +0.000 N 
ATOM     19  C   UNL     1      52.063   4.734  17.643  0.00  0.00    +0.000 A 
ATOM     20  O   UNL     1      50.994   5.313  17.458  0.00  0.00    +0.000 OA
ATOM     21  C   UNL     1      52.213   3.291  17.688  0.00  0.00    +0.000 A 
ATOM     22  H   UNL     1      53.143   6.442  17.846  0.00  0.00    +0.000 HD
ENDBRANCH   9  12
ENDBRANCH   7  10
ENDBRANCH   1   7
BRANCH   4  23
ATOM     23  C   UNL     1      47.108   6.417  12.415  0.00  0.00    +0.000 C 
BRANCH  23  24
ATOM     24  C   UNL     1      45.962   7.446  12.405  0.00  0.00    +0.000 C 
BRANCH  24  25
ATOM     25  O   UNL     1      44.817   6.966  13.116  0.00  0.00    +0.000 OA
ATOM     26  H   UNL     1      44.938   7.242  14.050  0.00  0.00    +0.000 HD
ENDBRANCH  24  25
BRANCH  24  27
ATOM     27  C   UNL     1      46.354   8.849  12.901  0.00  0.00    +0.000 C 
BRANCH  27  28
ATOM     28  O   UNL     1      46.757   8.888  14.264  0.00  0.00    +0.000 OA
ATOM     29  H   UNL     1      47.294   9.696  14.388  0.00  0.00    +0.000 HD
ENDBRANCH  27  28
ENDBRANCH  24  27
ENDBRANCH  23  24
ENDBRANCH   4  23
BRANCH   5  30
ATOM     30  C   UNL     1      45.824   3.645  12.670  0.00  0.00    +0.000 C 
BRANCH  30  31
ATOM     31  N   UNL     1      44.376   3.666  12.880  0.00  0.00    +0.000 NA
ATOM     32  H   UNL     1      44.156   4.288  13.660  0.00  0.00    +0.000 HD
BRANCH  31  33
ATOM     33  C   UNL     1      43.717   4.192  11.673  0.00  0.00    +0.000 C 
BRANCH  33  34
ATOM     34  C   UNL     1      44.402   3.774  10.391  0.00  0.00    +0.000 A 
ATOM     35  C   UNL     1      45.101   4.708   9.629  0.00  0.00    +0.000 A 
ATOM     36  C   UNL     1      45.709   4.292   8.448  0.00  0.00    +0.000 A 
ATOM     37  C   UNL     1      45.600   2.962   8.059  0.00  0.00    +0.000 A 
ATOM     38  C   UNL     1      44.882   2.100   8.869  0.00  0.00    +0.000 A 
ATOM     39  N   UNL     1      44.285   2.472  10.022  0.00  0.00    +0.000 NA
ENDBRANCH  33  34
ENDBRANCH  31  33
ENDBRANCH  30  31
ENDBRANCH   5  30
TORSDOF 12
ENDMDL
MODEL 4
REMARK VINA RESULT:    -7.634      2.559      3.298
REMARK INTER + INTRA:         -13.964
REMARK INTER:                 -12.425
REMARK INTRA:                  -1.539
REMARK UNBOUND:                -1.422
REMARK  Name = 
REMARK  12 active torsions:
REMARK  status: ('A' for Active; 'I' for Inactive)
REMARK    1  A    between atoms: C_2  and  C_25
REMARK    2  A    between atoms: N_3  and  C_4
REMARK    3  A    between atoms: C_4  and  C_5
REMARK    4  A    between atoms: C_8  and  C_9
REMARK    5  A    between atoms: C_9  and  C_10
REMARK    6  A    between atoms: C_10  and  O_11
REMARK    7  A    between atoms: C_10  and  C_12
REMARK    8  A    between atoms: C_12  and  O_13
REMARK    9  A    between atoms: C_14  and  C_15
REMARK   10  A    between atoms: C_15  and  N_16
REMARK   11  A    between atoms: N_16  and  C_17
REMARK   12  A    between atoms: C_17  and  C_18
REMARK                            x       y       z     vdW  Elec       q    Type
REMARK                         _______ _______ _______ _____ _____    ______ ____
ROOT
ATOM      1  C   UNL     1      47.056   4.736  14.587  0.00  0.00    +0.000 A 
ATOM      2  C   UNL     1      47.518   5.884  13.964  0.00  0.00    +0.000 A 
ATOM      3  N   UNL     1      47.039   6.357  12.787  0.00  0.00    +0.000 NA
ATOM      4  C   UNL     1      46.040   5.653  12.173  0.00  0.00    +0.000 A 
ATOM      5  C   UNL     1      45.483   4.496  12.737  0.00  0.00    +0.000 A 
ATOM      6  C   UNL     1      46.015   4.053  13.959  0.00  0.00    +0.000 A 
ENDROOT
BRANCH   1   7
ATOM      7  C   UNL     1      47.621   4.254  15.889  0.00  0.00    +0.000 C 
BRANCH   7  10
ATOM      8  O   UNL     1      49.640   5.932  16.928  0.00  0.00    +0.000 OA
ATOM      9  C   UNL     1      48.497   6.028  17.366  0.00  0.00    +0.000 C 
ATOM     10  N   UNL     1      47.468   5.235  16.932  0.00  0.00    +0.000 N 
ATOM     11  H   UNL     1      46.524   5.424  17.247  0.00  0.00    +0.000 HD
BRANCH   9  12
ATOM     12  C   UNL     1      48.164   6.995  18.418  0.00  0.00    +0.000 A 
ATOM     13  C   UNL     1      48.057   6.577  19.737  0.00  0.00    +0.000 A 
ATOM     14  S   UNL     1      47.682   7.839  20.822  0.00  0.00    +0.000 S 
ATOM     15  C   UNL     1      47.685   8.994  19.569  0.00  0.00    +0.000 A 
ATOM     16  N   UNL     1      47.465  10.310  19.829  0.00  0.00    +0.000 NA
ATOM     17  C   UNL     1      47.539  11.078  18.793  0.00  0.00    +0.000 A 
ATOM     18  N   UNL     1      47.798  10.645  17.518  0.00  0.00    +0.000 N 
ATOM     19  C   UNL     1      47.953   9.320  17.199  0.00  0.00    +0.000 A 
ATOM     20  O   UNL     1      48.054   8.956  16.030  0.00  0.00    +0.000 OA
ATOM     21  C   UNL     1      47.934   8.419  18.336  0.00  0.00    +0.000 A 
ATOM     22  H   UNL     1      47.808  11.295  16.746  0.00  0.00    +0.000 HD
ENDBRANCH   9  12
ENDBRANCH   7  10
ENDBRANCH   1   7
BRANCH   4  23
ATOM     23  C   UNL     1      45.515   6.258  10.884  0.00  0.00    +0.000 C 
BRANCH  23  24
ATOM     24  C   UNL     1      44.510   7.417  11.017  0.00  0.00    +0.000 C 
BRANCH  24  25
ATOM     25  O   UNL     1      43.338   7.019  11.733  0.00  0.00    +0.000 OA
ATOM     26  H   UNL     1      43.580   6.206  12.227  0.00  0.00    +0.000 HD
ENDBRANCH  24  25
BRANCH  24  27
ATOM     27  C   UNL     1      45.095   8.708  11.618  0.00  0.00    +0.000 C 
BRANCH  27  28
ATOM     28  O   UNL     1      44.993   8.783  13.035  0.00  0.00    +0.000 OA
ATOM     29  H   UNL     1      44.151   8.357  13.290  0.00  0.00    +0.000 HD
ENDBRANCH  27  28
ENDBRANCH  24  27
ENDBRANCH  23  24
ENDBRANCH   4  23
BRANCH   5  30
ATOM     30  C   UNL     1      44.420   3.653  12.074  0.00  0.00    +0.000 C 
BRANCH  30  31
ATOM     31  N   UNL     1      44.966   2.648  11.161  0.00  0.00    +0.000 NA
ATOM     32  H   UNL     1      44.717   1.716  11.495  0.00  0.00    +0.000 HD
BRANCH  31  33
ATOM     33  C   UNL     1      44.375   2.830   9.825  0.00  0.00    +0.000 C 
BRANCH  33  34
ATOM     34  C   UNL     1      45.368   2.629   8.702  0.00  0.00    +0.000 A 
ATOM     35  C   UNL     1      45.640   3.663   7.808  0.00  0.00    +0.000 A 
ATOM     36  C   UNL     1      46.550   3.438   6.779  0.00  0.00    +0.000 A 
ATOM     37  C   UNL     1      47.157   2.193   6.666  0.00  0.00    +0.000 A 
ATOM     38  C   UNL     1      46.826   1.218   7.591  0.00  0.00    +0.000 A 
ATOM     39  N   UNL     1      45.952   1.406   8.603  0.00  0.00    +0.000 NA
ENDBRANCH  33  34
ENDBRANCH  31  33
ENDBRANCH  30  31
ENDBRANCH   5  30
TORSDOF 12
ENDMDL
MODEL 5
REMARK VINA RESULT:    -7.586      1.994      2.670
REMARK INTER + INTRA:         -13.886
REMARK INTER:                 -12.361
REMARK INTRA:                  -1.525
REMARK UNBOUND:                -1.422
REMARK  Name = 
REMARK  12 active torsions:
REMARK  status: ('A' for Active; 'I' for Inactive)
REMARK    1  A    between atoms: C_2  and  C_25
REMARK    2  A    between atoms: N_3  and  C_4
REMARK    3  A    between atoms: C_4  and  C_5
REMARK    4  A    between atoms: C_8  and  C_9
REMARK    5  A    between atoms: C_9  and  C_10
REMARK    6  A    between atoms: C_10  and  O_11
REMARK    7  A    between atoms: C_10  and  C_12
REMARK    8  A    between atoms: C_12  and  O_13
REMARK    9  A    between atoms: C_14  and  C_15
REMARK   10  A    between atoms: C_15  and  N_16
REMARK   11  A    between atoms: N_16  and  C_17
REMARK   12  A    between atoms: C_17  and  C_18
REMARK                            x       y       z     vdW  Elec       q    Type
REMARK                         _______ _______ _______ _____ _____    ______ ____
ROOT
ATOM      1  C   UNL     1      47.169   5.088  14.587  0.00  0.00    +0.000 A 
ATOM      2  C   UNL     1      47.906   6.254  14.706  0.00  0.00    +0.000 A 
ATOM      3  N   UNL     1      47.936   7.235  13.770  0.00  0.00    +0.000 NA
ATOM      4  C   UNL     1      47.194   7.059  12.634  0.00  0.00    +0.000 A 
ATOM      5  C   UNL     1      46.389   5.928  12.432  0.00  0.00    +0.000 A 
ATOM      6  C   UNL     1      46.394   4.945  13.436  0.00  0.00    +0.000 A 
ENDROOT
BRANCH   1   7
ATOM      7  C   UNL     1      47.172   4.031  15.651  0.00  0.00    +0.000 C 
BRANCH   7  10
ATOM      8  O   UNL     1      47.821   4.667  18.324  0.00  0.00    +0.000 OA
ATOM      9  C   UNL     1      48.693   4.216  17.587  0.00  0.00    +0.000 C 
ATOM     10  N   UNL     1      48.465   3.905  16.273  0.00  0.00    +0.000 N 
ATOM     11  H   UNL     1      49.187   3.439  15.737  0.00  0.00    +0.000 HD
BRANCH   9  12
ATOM     12  C   UNL     1      50.063   4.004  18.070  0.00  0.00    +0.000 A 
ATOM     13  C   UNL     1      50.644   4.922  18.934  0.00  0.00    +0.000 A 
ATOM     14  S   UNL     1      52.230   4.503  19.403  0.00  0.00    +0.000 S 
ATOM     15  C   UNL     1      52.179   3.062  18.495  0.00  0.00    +0.000 A 
ATOM     16  N   UNL     1      53.229   2.199  18.492  0.00  0.00    +0.000 NA
ATOM     17  C   UNL     1      53.038   1.128  17.796  0.00  0.00    +0.000 A 
ATOM     18  N   UNL     1      51.895   0.849  17.091  0.00  0.00    +0.000 N 
ATOM     19  C   UNL     1      50.841   1.723  17.007  0.00  0.00    +0.000 A 
ATOM     20  O   UNL     1      49.889   1.500  16.264  0.00  0.00    +0.000 OA
ATOM     21  C   UNL     1      50.983   2.920  17.817  0.00  0.00    +0.000 A 
ATOM     22  H   UNL     1      51.823   0.007  16.540  0.00  0.00    +0.000 HD
ENDBRANCH   9  12
ENDBRANCH   7  10
ENDBRANCH   1   7
BRANCH   4  23
ATOM     23  C   UNL     1      47.231   8.210  11.647  0.00  0.00    +0.000 C 
BRANCH  23  24
ATOM     24  C   UNL     1      46.641   9.552  12.119  0.00  0.00    +0.000 C 
BRANCH  24  25
ATOM     25  O   UNL     1      45.681   9.368  13.163  0.00  0.00    +0.000 OA
ATOM     26  H   UNL     1      44.807   9.585  12.774  0.00  0.00    +0.000 HD
ENDBRANCH  24  25
BRANCH  24  27
ATOM     27  C   UNL     1      47.687  10.603  12.531  0.00  0.00    +0.000 C 
BRANCH  27  28
ATOM     28  O   UNL     1      48.175  10.445  13.858  0.00  0.00    +0.000 OA
ATOM     29  H   UNL     1      48.125  11.319  14.293  0.00  0.00    +0.000 HD
ENDBRANCH  27  28
ENDBRANCH  24  27
ENDBRANCH  23  24
ENDBRANCH   4  23
BRANCH   5  30
ATOM     30  C   UNL     1      45.597   5.659  11.175  0.00  0.00    +0.000 C 
BRANCH  30  31
ATOM     31  N   UNL     1      44.720   4.492  11.284  0.00  0.00    +0.000 NA
ATOM     32  H   UNL     1      43.969   4.693  11.943  0.00  0.00    +0.000 HD
BRANCH  31  33
ATOM     33  C   UNL     1      44.117   4.212   9.970  0.00  0.00    +0.000 C 
BRANCH  33  34
ATOM     34  C   UNL     1      45.066   3.525   9.013  0.00  0.00    +0.000 A 
ATOM     35  C   UNL     1      45.285   2.152   9.100  0.00  0.00    +0.000 A 
ATOM     36  C   UNL     1      46.174   1.556   8.211  0.00  0.00    +0.000 A 
ATOM     37  C   UNL     1      46.822   2.342   7.266  0.00  0.00    +0.000 A 
ATOM     38  C   UNL     1      46.554   3.700   7.250  0.00  0.00    +0.000 A 
ATOM     39  N   UNL     1      45.694   4.307   8.096  0.00  0.00    +0.000 NA
ENDBRANCH  33  34
ENDBRANCH  31  33
ENDBRANCH  30  31
ENDBRANCH   5  30
TORSDOF 12
ENDMDL
MODEL 6
REMARK VINA RESULT:    -7.340      3.440      6.750
REMARK INTER + INTRA:         -13.482
REMARK INTER:                 -11.152
REMARK INTRA:                  -2.329
REMARK UNBOUND:                -1.422
REMARK  Name = 
REMARK  12 active torsions:
REMARK  status: ('A' for Active; 'I' for Inactive)
REMARK    1  A    between atoms: C_2  and  C_25
REMARK    2  A    between atoms: N_3  and  C_4
REMARK    3  A    between atoms: C_4  and  C_5
REMARK    4  A    between atoms: C_8  and  C_9
REMARK    5  A    between atoms: C_9  and  C_10
REMARK    6  A    between atoms: C_10  and  O_11
REMARK    7  A    between atoms: C_10  and  C_12
REMARK    8  A    between atoms: C_12  and  O_13
REMARK    9  A    between atoms: C_14  and  C_15
REMARK   10  A    between atoms: C_15  and  N_16
REMARK   11  A    between atoms: N_16  and  C_17
REMARK   12  A    between atoms: C_17  and  C_18
REMARK                            x       y       z     vdW  Elec       q    Type
REMARK                         _______ _______ _______ _____ _____    ______ ____
ROOT
ATOM      1  C   UNL     1      45.578   7.477  12.502  0.00  0.00    +0.000 A 
ATOM      2  C   UNL     1      44.871   6.953  11.433  0.00  0.00    +0.000 A 
ATOM      3  N   UNL     1      44.740   5.627  11.183  0.00  0.00    +0.000 NA
ATOM      4  C   UNL     1      45.350   4.751  12.039  0.00  0.00    +0.000 A 
ATOM      5  C   UNL     1      46.062   5.180  13.168  0.00  0.00    +0.000 A 
ATOM      6  C   UNL     1      46.163   6.565  13.380  0.00  0.00    +0.000 A 
ENDROOT
BRANCH   1   7
ATOM      7  C   UNL     1      45.695   8.954  12.734  0.00  0.00    +0.000 C 
BRANCH   7  10
ATOM      8  O   UNL     1      48.313   9.570  11.876  0.00  0.00    +0.000 OA
ATOM      9  C   UNL     1      48.058   9.584  13.077  0.00  0.00    +0.000 C 
ATOM     10  N   UNL     1      46.820   9.274  13.575  0.00  0.00    +0.000 N 
ATOM     11  H   UNL     1      46.632   9.402  14.562  0.00  0.00    +0.000 HD
BRANCH   9  12
ATOM     12  C   UNL     1      49.087   9.913  14.070  0.00  0.00    +0.000 A 
ATOM     13  C   UNL     1      49.309  11.235  14.428  0.00  0.00    +0.000 A 
ATOM     14  S   UNL     1      50.528  11.425  15.607  0.00  0.00    +0.000 S 
ATOM     15  C   UNL     1      50.774   9.741  15.704  0.00  0.00    +0.000 A 
ATOM     16  N   UNL     1      51.677   9.215  16.574  0.00  0.00    +0.000 NA
ATOM     17  C   UNL     1      51.729   7.925  16.573  0.00  0.00    +0.000 A 
ATOM     18  N   UNL     1      50.969   7.113  15.769  0.00  0.00    +0.000 N 
ATOM     19  C   UNL     1      50.101   7.603  14.828  0.00  0.00    +0.000 A 
ATOM     20  O   UNL     1      49.533   6.853  14.036  0.00  0.00    +0.000 OA
ATOM     21  C   UNL     1      49.963   9.048  14.825  0.00  0.00    +0.000 A 
ATOM     22  H   UNL     1      51.084   6.111  15.794  0.00  0.00    +0.000 HD
ENDBRANCH   9  12
ENDBRANCH   7  10
ENDBRANCH   1   7
BRANCH   4  23
ATOM     23  C   UNL     1      45.128   3.282  11.734  0.00  0.00    +0.000 C 
BRANCH  23  24
ATOM     24  C   UNL     1      43.939   2.931  10.820  0.00  0.00    +0.000 C 
BRANCH  24  25
ATOM     25  O   UNL     1      42.752   3.629  11.209  0.00  0.00    +0.000 OA
ATOM     26  H   UNL     1      42.570   4.280  10.497  0.00  0.00    +0.000 HD
ENDBRANCH  24  25
BRANCH  24  27
ATOM     27  C   UNL     1      44.207   3.122   9.316  0.00  0.00    +0.000 C 
BRANCH  27  28
ATOM     28  O   UNL     1      43.790   4.384   8.811  0.00  0.00    +0.000 OA
ATOM     29  H   UNL     1      44.597   4.904   8.623  0.00  0.00    +0.000 HD
ENDBRANCH  27  28
ENDBRANCH  24  27
ENDBRANCH  23  24
ENDBRANCH   4  23
BRANCH   5  30
ATOM     30  C   UNL     1      46.799   4.258  14.111  0.00  0.00    +0.000 C 
BRANCH  30  31
ATOM     31  N   UNL     1      47.489   4.968  15.190  0.00  0.00    +0.000 NA
ATOM     32  H   UNL     1      47.001   5.843  15.386  0.00  0.00    +0.000 HD
BRANCH  31  33
ATOM     33  C   UNL     1      47.462   4.144  16.410  0.00  0.00    +0.000 C 
BRANCH  33  34
ATOM     34  C   UNL     1      48.830   3.643  16.820  0.00  0.00    +0.000 A 
ATOM     35  C   UNL     1      49.116   2.279  16.801  0.00  0.00    +0.000 A 
ATOM     36  C   UNL     1      50.380   1.853  17.197  0.00  0.00    +0.000 A 
ATOM     37  C   UNL     1      51.319   2.793  17.604  0.00  0.00    +0.000 A 
ATOM     38  C   UNL     1      50.953   4.128  17.600  0.00  0.00    +0.000 A 
ATOM     39  N   UNL     1      49.736   4.573  17.217  0.00  0.00    +0.000 NA
ENDBRANCH  33  34
ENDBRANCH  31  33
ENDBRANCH  30  31
ENDBRANCH   5  30
TORSDOF 12
ENDMDL
MODEL 7
REMARK VINA RESULT:    -7.204      2.123      2.937
REMARK INTER + INTRA:         -13.258
REMARK INTER:                 -12.109
REMARK INTRA:                  -1.149
REMARK UNBOUND:                -1.422
REMARK  Name = 
REMARK  12 active torsions:
REMARK  status: ('A' for Active; 'I' for Inactive)
REMARK    1  A    between atoms: C_2  and  C_25
REMARK    2  A    between atoms: N_3  and  C_4
REMARK    3  A    between atoms: C_4  and  C_5
REMARK    4  A    between atoms: C_8  and  C_9
REMARK    5  A    between atoms: C_9  and  C_10
REMARK    6  A    between atoms: C_10  and  O_11
REMARK    7  A    between atoms: C_10  and  C_12
REMARK    8  A    between atoms: C_12  and  O_13
REMARK    9  A    between atoms: C_14  and  C_15
REMARK   10  A    between atoms: C_15  and  N_16
REMARK   11  A    between atoms: N_16  and  C_17
REMARK   12  A    between atoms: C_17  and  C_18
REMARK                            x       y       z     vdW  Elec       q    Type
REMARK                         _______ _______ _______ _____ _____    ______ ____
ROOT
ATOM      1  C   UNL     1      48.065   7.967  12.816  0.00  0.00    +0.000 A 
ATOM      2  C   UNL     1      47.229   9.048  13.042  0.00  0.00    +0.000 A 
ATOM      3  N   UNL     1      45.985   9.171  12.518  0.00  0.00    +0.000 NA
ATOM      4  C   UNL     1      45.528   8.166  11.710  0.00  0.00    +0.000 A 
ATOM      5  C   UNL     1      46.285   7.015  11.445  0.00  0.00    +0.000 A 
ATOM      6  C   UNL     1      47.566   6.939  12.017  0.00  0.00    +0.000 A 
ENDROOT
BRANCH   1   7
ATOM      7  C   UNL     1      49.435   7.879  13.419  0.00  0.00    +0.000 C 
BRANCH   7  10
ATOM      8  O   UNL     1      48.867   8.600  16.089  0.00  0.00    +0.000 OA
ATOM      9  C   UNL     1      49.146   7.432  15.830  0.00  0.00    +0.000 C 
ATOM     10  N   UNL     1      49.458   7.008  14.566  0.00  0.00    +0.000 N 
ATOM     11  H   UNL     1      49.577   6.018  14.386  0.00  0.00    +0.000 HD
BRANCH   9  12
ATOM     12  C   UNL     1      49.192   6.409  16.881  0.00  0.00    +0.000 A 
ATOM     13  C   UNL     1      49.944   6.625  18.028  0.00  0.00    +0.000 A 
ATOM     14  S   UNL     1      49.865   5.338  19.145  0.00  0.00    +0.000 S 
ATOM     15  C   UNL     1      48.793   4.465  18.149  0.00  0.00    +0.000 A 
ATOM     16  N   UNL     1      48.294   3.263  18.542  0.00  0.00    +0.000 NA
ATOM     17  C   UNL     1      47.461   2.733  17.709  0.00  0.00    +0.000 A 
ATOM     18  N   UNL     1      47.092   3.291  16.512  0.00  0.00    +0.000 N 
ATOM     19  C   UNL     1      47.626   4.465  16.044  0.00  0.00    +0.000 A 
ATOM     20  O   UNL     1      47.373   4.870  14.911  0.00  0.00    +0.000 OA
ATOM     21  C   UNL     1      48.528   5.130  16.966  0.00  0.00    +0.000 A 
ATOM     22  H   UNL     1      46.461   2.808  15.891  0.00  0.00    +0.000 HD
ENDBRANCH   9  12
ENDBRANCH   7  10
ENDBRANCH   1   7
BRANCH   4  23
ATOM     23  C   UNL     1      44.113   8.339  11.192  0.00  0.00    +0.000 C 
BRANCH  23  24
ATOM     24  C   UNL     1      43.593   9.782  11.053  0.00  0.00    +0.000 C 
BRANCH  24  25
ATOM     25  O   UNL     1      44.487  10.592  10.283  0.00  0.00    +0.000 OA
ATOM     26  H   UNL     1      44.084  11.485  10.243  0.00  0.00    +0.000 HD
ENDBRANCH  24  25
BRANCH  24  27
ATOM     27  C   UNL     1      42.159   9.897  10.507  0.00  0.00    +0.000 C 
BRANCH  27  28
ATOM     28  O   UNL     1      41.189   9.199  11.278  0.00  0.00    +0.000 OA
ATOM     29  H   UNL     1      41.580   9.033  12.158  0.00  0.00    +0.000 HD
ENDBRANCH  27  28
ENDBRANCH  24  27
ENDBRANCH  23  24
ENDBRANCH   4  23
BRANCH   5  30
ATOM     30  C   UNL     1      45.850   5.905  10.518  0.00  0.00    +0.000 C 
BRANCH  30  31
ATOM     31  N   UNL     1      44.790   5.066  11.079  0.00  0.00    +0.000 NA
ATOM     32  H   UNL     1      44.133   5.651  11.595  0.00  0.00    +0.000 HD
BRANCH  31  33
ATOM     33  C   UNL     1      44.059   4.408   9.984  0.00  0.00    +0.000 C 
BRANCH  33  34
ATOM     34  C   UNL     1      44.959   3.630   9.050  0.00  0.00    +0.000 A 
ATOM     35  C   UNL     1      45.166   2.265   9.244  0.00  0.00    +0.000 A 
ATOM     36  C   UNL     1      46.010   1.584   8.372  0.00  0.00    +0.000 A 
ATOM     37  C   UNL     1      46.626   2.279   7.338  0.00  0.00    +0.000 A 
ATOM     38  C   UNL     1      46.372   3.634   7.219  0.00  0.00    +0.000 A 
ATOM     39  N   UNL     1      45.555   4.323   8.045  0.00  0.00    +0.000 NA
ENDBRANCH  33  34
ENDBRANCH  31  33
ENDBRANCH  30  31
ENDBRANCH   5  30
TORSDOF 12
ENDMDL
MODEL 8
REMARK VINA RESULT:    -7.050      2.299      2.938
REMARK INTER + INTRA:         -13.006
REMARK INTER:                 -11.575
REMARK INTRA:                  -1.430
REMARK UNBOUND:                -1.422
REMARK  Name = 
REMARK  12 active torsions:
REMARK  status: ('A' for Active; 'I' for Inactive)
REMARK    1  A    between atoms: C_2  and  C_25
REMARK    2  A    between atoms: N_3  and  C_4
REMARK    3  A    between atoms: C_4  and  C_5
REMARK    4  A    between atoms: C_8  and  C_9
REMARK    5  A    between atoms: C_9  and  C_10
REMARK    6  A    between atoms: C_10  and  O_11
REMARK    7  A    between atoms: C_10  and  C_12
REMARK    8  A    between atoms: C_12  and  O_13
REMARK    9  A    between atoms: C_14  and  C_15
REMARK   10  A    between atoms: C_15  and  N_16
REMARK   11  A    between atoms: N_16  and  C_17
REMARK   12  A    between atoms: C_17  and  C_18
REMARK                            x       y       z     vdW  Elec       q    Type
REMARK                         _______ _______ _______ _____ _____    ______ ____
ROOT
ATOM      1  C   UNL     1      47.117   6.955  13.210  0.00  0.00    +0.000 A 
ATOM      2  C   UNL     1      46.797   8.264  12.891  0.00  0.00    +0.000 A 
ATOM      3  N   UNL     1      45.706   8.627  12.173  0.00  0.00    +0.000 NA
ATOM      4  C   UNL     1      44.870   7.638  11.732  0.00  0.00    +0.000 A 
ATOM      5  C   UNL     1      45.089   6.285  12.030  0.00  0.00    +0.000 A 
ATOM      6  C   UNL     1      46.234   5.966  12.779  0.00  0.00    +0.000 A 
ENDROOT
BRANCH   1   7
ATOM      7  C   UNL     1      48.339   6.604  14.005  0.00  0.00    +0.000 C 
BRANCH   7  10
ATOM      8  O   UNL     1      50.182   6.029  16.066  0.00  0.00    +0.000 OA
ATOM      9  C   UNL     1      49.040   6.371  16.362  0.00  0.00    +0.000 C 
ATOM     10  N   UNL     1      48.081   6.643  15.422  0.00  0.00    +0.000 N 
ATOM     11  H   UNL     1      47.189   7.023  15.714  0.00  0.00    +0.000 HD
BRANCH   9  12
ATOM     12  C   UNL     1      48.617   6.483  17.762  0.00  0.00    +0.000 A 
ATOM     13  C   UNL     1      48.714   5.385  18.607  0.00  0.00    +0.000 A 
ATOM     14  S   UNL     1      48.195   5.706  20.200  0.00  0.00    +0.000 S 
ATOM     15  C   UNL     1      47.858   7.333  19.823  0.00  0.00    +0.000 A 
ATOM     16  N   UNL     1      47.406   8.193  20.775  0.00  0.00    +0.000 NA
ATOM     17  C   UNL     1      47.234   9.404  20.361  0.00  0.00    +0.000 A 
ATOM     18  N   UNL     1      47.458   9.829  19.076  0.00  0.00    +0.000 N 
ATOM     19  C   UNL     1      47.842   8.981  18.069  0.00  0.00    +0.000 A 
ATOM     20  O   UNL     1      47.909   9.368  16.904  0.00  0.00    +0.000 OA
ATOM     21  C   UNL     1      48.104   7.618  18.493  0.00  0.00    +0.000 A 
ATOM     22  H   UNL     1      47.270  10.784  18.810  0.00  0.00    +0.000 HD
ENDBRANCH   9  12
ENDBRANCH   7  10
ENDBRANCH   1   7
BRANCH   4  23
ATOM     23  C   UNL     1      43.643   8.110  10.976  0.00  0.00    +0.000 C 
BRANCH  23  24
ATOM     24  C   UNL     1      43.361   9.625  10.981  0.00  0.00    +0.000 C 
BRANCH  24  25
ATOM     25  O   UNL     1      44.234  10.325  10.090  0.00  0.00    +0.000 OA
ATOM     26  H   UNL     1      44.438  11.183  10.521  0.00  0.00    +0.000 HD
ENDBRANCH  24  25
BRANCH  24  27
ATOM     27  C   UNL     1      41.896  10.005  10.707  0.00  0.00    +0.000 C 
BRANCH  27  28
ATOM     28  O   UNL     1      40.951   9.219  11.422  0.00  0.00    +0.000 OA
ATOM     29  H   UNL     1      41.453   8.622  12.011  0.00  0.00    +0.000 HD
ENDBRANCH  27  28
ENDBRANCH  24  27
ENDBRANCH  23  24
ENDBRANCH   4  23
BRANCH   5  30
ATOM     30  C   UNL     1      44.230   5.151  11.522  0.00  0.00    +0.000 C 
BRANCH  30  31
ATOM     31  N   UNL     1      44.997   3.946  11.200  0.00  0.00    +0.000 NA
ATOM     32  H   UNL     1      45.017   3.330  12.013  0.00  0.00    +0.000 HD
BRANCH  31  33
ATOM     33  C   UNL     1      44.336   3.229  10.097  0.00  0.00    +0.000 C 
BRANCH  33  34
ATOM     34  C   UNL     1      45.270   2.904   8.952  0.00  0.00    +0.000 A 
ATOM     35  C   UNL     1      45.646   3.894   8.046  0.00  0.00    +0.000 A 
ATOM     36  C   UNL     1      46.497   3.557   6.998  0.00  0.00    +0.000 A 
ATOM     37  C   UNL     1      46.946   2.247   6.880  0.00  0.00    +0.000 A 
ATOM     38  C   UNL     1      46.521   1.323   7.819  0.00  0.00    +0.000 A 
ATOM     39  N   UNL     1      45.699   1.619   8.849  0.00  0.00    +0.000 NA
ENDBRANCH  33  34
ENDBRANCH  31  33
ENDBRANCH  30  31
ENDBRANCH   5  30
TORSDOF 12
ENDMDL
MODEL 9
REMARK VINA RESULT:    -6.977      3.374      6.150
REMARK INTER + INTRA:         -12.886
REMARK INTER:                 -10.642
REMARK INTRA:                  -2.244
REMARK UNBOUND:                -1.422
REMARK  Name = 
REMARK  12 active torsions:
REMARK  status: ('A' for Active; 'I' for Inactive)
REMARK    1  A    between atoms: C_2  and  C_25
REMARK    2  A    between atoms: N_3  and  C_4
REMARK    3  A    between atoms: C_4  and  C_5
REMARK    4  A    between atoms: C_8  and  C_9
REMARK    5  A    between atoms: C_9  and  C_10
REMARK    6  A    between atoms: C_10  and  O_11
REMARK    7  A    between atoms: C_10  and  C_12
REMARK    8  A    between atoms: C_12  and  O_13
REMARK    9  A    between atoms: C_14  and  C_15
REMARK   10  A    between atoms: C_15  and  N_16
REMARK   11  A    between atoms: N_16  and  C_17
REMARK   12  A    between atoms: C_17  and  C_18
REMARK                            x       y       z     vdW  Elec       q    Type
REMARK                         _______ _______ _______ _____ _____    ______ ____
ROOT
ATOM      1  C   UNL     1      47.547   6.966  12.456  0.00  0.00    +0.000 A 
ATOM      2  C   UNL     1      46.356   7.554  12.062  0.00  0.00    +0.000 A 
ATOM      3  N   UNL     1      45.139   6.974  12.200  0.00  0.00    +0.000 NA
ATOM      4  C   UNL     1      45.083   5.727  12.759  0.00  0.00    +0.000 A 
ATOM      5  C   UNL     1      46.228   5.060  13.220  0.00  0.00    +0.000 A 
ATOM      6  C   UNL     1      47.463   5.709  13.054  0.00  0.00    +0.000 A 
ENDROOT
BRANCH   1   7
ATOM      7  C   UNL     1      48.870   7.650  12.279  0.00  0.00    +0.000 C 
BRANCH   7  10
ATOM      8  O   UNL     1      49.732   9.509  14.222  0.00  0.00    +0.000 OA
ATOM      9  C   UNL     1      50.110   8.343  14.299  0.00  0.00    +0.000 C 
ATOM     10  N   UNL     1      49.756   7.387  13.384  0.00  0.00    +0.000 N 
ATOM     11  H   UNL     1      50.007   6.420  13.550  0.00  0.00    +0.000 HD
BRANCH   9  12
ATOM     12  C   UNL     1      51.000   7.902  15.379  0.00  0.00    +0.000 A 
ATOM     13  C   UNL     1      52.341   7.655  15.116  0.00  0.00    +0.000 A 
ATOM     14  S   UNL     1      53.225   7.169  16.492  0.00  0.00    +0.000 S 
ATOM     15  C   UNL     1      51.852   7.307  17.492  0.00  0.00    +0.000 A 
ATOM     16  N   UNL     1      51.932   7.062  18.827  0.00  0.00    +0.000 NA
ATOM     17  C   UNL     1      50.827   7.247  19.470  0.00  0.00    +0.000 A 
ATOM     18  N   UNL     1      49.645   7.639  18.895  0.00  0.00    +0.000 N 
ATOM     19  C   UNL     1      49.502   7.825  17.544  0.00  0.00    +0.000 A 
ATOM     20  O   UNL     1      48.401   8.049  17.047  0.00  0.00    +0.000 OA
ATOM     21  C   UNL     1      50.729   7.684  16.780  0.00  0.00    +0.000 A 
ATOM     22  H   UNL     1      48.808   7.732  19.450  0.00  0.00    +0.000 HD
ENDBRANCH   9  12
ENDBRANCH   7  10
ENDBRANCH   1   7
BRANCH   4  23
ATOM     23  C   UNL     1      43.690   5.151  12.929  0.00  0.00    +0.000 C 
BRANCH  23  24
ATOM     24  C   UNL     1      43.042   4.515  11.685  0.00  0.00    +0.000 C 
BRANCH  24  25
ATOM     25  O   UNL     1      43.195   5.344  10.530  0.00  0.00    +0.000 OA
ATOM     26  H   UNL     1      42.516   6.048  10.604  0.00  0.00    +0.000 HD
ENDBRANCH  24  25
BRANCH  24  27
ATOM     27  C   UNL     1      43.507   3.079  11.382  0.00  0.00    +0.000 C 
BRANCH  27  28
ATOM     28  O   UNL     1      43.440   2.202  12.500  0.00  0.00    +0.000 OA
ATOM     29  H   UNL     1      43.175   2.735  13.275  0.00  0.00    +0.000 HD
ENDBRANCH  27  28
ENDBRANCH  24  27
ENDBRANCH  23  24
ENDBRANCH   4  23
BRANCH   5  30
ATOM     30  C   UNL     1      46.228   3.663  13.792  0.00  0.00    +0.000 C 
BRANCH  30  31
ATOM     31  N   UNL     1      47.512   3.282  14.385  0.00  0.00    +0.000 NA
ATOM     32  H   UNL     1      48.241   3.908  14.043  0.00  0.00    +0.000 HD
BRANCH  31  33
ATOM     33  C   UNL     1      47.433   3.423  15.848  0.00  0.00    +0.000 C 
BRANCH  33  34
ATOM     34  C   UNL     1      48.750   3.160  16.544  0.00  0.00    +0.000 A 
ATOM     35  C   UNL     1      49.298   4.112  17.401  0.00  0.00    +0.000 A 
ATOM     36  C   UNL     1      50.518   3.840  18.014  0.00  0.00    +0.000 A 
ATOM     37  C   UNL     1      51.158   2.635  17.754  0.00  0.00    +0.000 A 
ATOM     38  C   UNL     1      50.549   1.746  16.884  0.00  0.00    +0.000 A 
ATOM     39  N   UNL     1      49.365   1.978  16.277  0.00  0.00    +0.000 NA
ENDBRANCH  33  34
ENDBRANCH  31  33
ENDBRANCH  30  31
ENDBRANCH   5  30
TORSDOF 12
ENDMDL
