MODEL 1
REMARK VINA RESULT:    -7.986      0.000      0.000
REMARK INTER + INTRA:         -11.515
REMARK INTER:                 -10.788
REMARK INTRA:                  -0.727
REMARK UNBOUND:                -0.727
REMARK  Name = 
REMARK  7 active torsions:
REMARK  status: ('A' for Active; 'I' for Inactive)
REMARK    1  A    between atoms: N_1  and  C_2
REMARK    2  A    between atoms: C_2  and  C_3
REMARK    3  A    between atoms: C_6  and  O_7
REMARK    4  A    between atoms: O_7  and  C_8
REMARK    5  A    between atoms: C_8  and  C_9
REMARK    6  A    between atoms: C_12  and  C_13
REMARK    7  A    between atoms: N_15  and  O_16
REMARK                            x       y       z     vdW  Elec       q    Type
REMARK                         _______ _______ _______ _____ _____    ______ ____
ROOT
ATOM      1  C   UNL     1      44.341   3.332   9.897  0.00  0.00    +0.000 A 
ATOM      2  C   UNL     1      44.829   4.410   9.144  0.00  0.00    +0.000 A 
ATOM      3  C   UNL     1      45.724   4.199   8.092  0.00  0.00    +0.000 A 
ATOM      4  C   UNL     1      46.141   2.903   7.777  0.00  0.00    +0.000 A 
ATOM      5  C   UNL     1      45.664   1.820   8.523  0.00  0.00    +0.000 A 
ATOM      6  C   UNL     1      44.773   2.036   9.580  0.00  0.00    +0.000 A 
ENDROOT
BRANCH   4   7
ATOM      7  C   UNL     1      47.080   2.673   6.638  0.00  0.00    +0.000 C 
ATOM      8  N   UNL     1      47.098   3.565   5.592  0.00  0.00    +0.000 N 
ATOM      9  N   UNL     1      47.867   1.632   6.674  0.00  0.00    +0.000 NA
ATOM     10  H   UNL     1      47.018   4.539   5.859  0.00  0.00    +0.000 HD
ATOM     11  H   UNL     1      47.919   3.391   5.016  0.00  0.00    +0.000 HD
BRANCH   9  12
ATOM     12  O   UNL     1      48.679   1.578   5.528  0.00  0.00    +0.000 OA
ATOM     13  H   UNL     1      48.870   0.624   5.463  0.00  0.00    +0.000 HD
ENDBRANCH   9  12
ENDBRANCH   4   7
BRANCH   1  14
ATOM     14  C   UNL     1      43.393   3.570  11.049  0.00  0.00    +0.000 C 
BRANCH  14  15
ATOM     15  O   UNL     1      44.086   3.398  12.285  0.00  0.00    +0.000 OA
BRANCH  15  19
ATOM     16  C   UNL     1      46.621   6.588  13.263  0.00  0.00    +0.000 A 
ATOM     17  C   UNL     1      47.109   5.276  13.348  0.00  0.00    +0.000 A 
ATOM     18  C   UNL     1      46.296   4.184  13.032  0.00  0.00    +0.000 A 
ATOM     19  C   UNL     1      44.975   4.383  12.629  0.00  0.00    +0.000 A 
ATOM     20  C   UNL     1      44.480   5.687  12.554  0.00  0.00    +0.000 A 
ATOM     21  C   UNL     1      45.292   6.782  12.867  0.00  0.00    +0.000 A 
BRANCH  16  22
ATOM     22  C   UNL     1      47.517   7.751  13.597  0.00  0.00    +0.000 C 
BRANCH  22  23
ATOM     23  N   UNL     1      46.747   8.893  14.079  0.00  0.00    +0.000 NA
ATOM     24  H   UNL     1      47.376   9.563  14.516  0.00  0.00    +0.000 HD
ATOM     25  H   UNL     1      46.111   8.572  14.808  0.00  0.00    +0.000 HD
ENDBRANCH  22  23
ENDBRANCH  16  22
ENDBRANCH  15  19
ENDBRANCH  14  15
ENDBRANCH   1  14
TORSDOF 7
ENDMDL
MODEL 2
REMARK VINA RESULT:    -7.961      2.179      6.599
REMARK INTER + INTRA:         -11.481
REMARK INTER:                 -10.708
REMARK INTRA:                  -0.772
REMARK UNBOUND:                -0.727
REMARK  Name = 
REMARK  7 active torsions:
REMARK  status: ('A' for Active; 'I' for Inactive)
REMARK    1  A    between atoms: N_1  and  C_2
REMARK    2  A    between atoms: C_2  and  C_3
REMARK    3  A    between atoms: C_6  and  O_7
REMARK    4  A    between atoms: O_7  and  C_8
REMARK    5  A    between atoms: C_8  and  C_9
REMARK    6  A    between atoms: C_12  and  C_13
REMARK    7  A    between atoms: N_15  and  O_16
REMARK                            x       y       z     vdW  Elec       q    Type
REMARK                         _______ _______ _______ _____ _____    ______ ____
ROOT
ATOM      1  C   UNL     1      44.596   4.770  11.845  0.00  0.00    +0.000 A 
ATOM      2  C   UNL     1      45.282   3.930  12.735  0.00  0.00    +0.000 A 
ATOM      3  C   UNL     1      46.406   4.391  13.427  0.00  0.00    +0.000 A 
ATOM      4  C   UNL     1      46.856   5.700  13.239  0.00  0.00    +0.000 A 
ATOM      5  C   UNL     1      46.182   6.545  12.351  0.00  0.00    +0.000 A 
ATOM      6  C   UNL     1      45.062   6.079  11.655  0.00  0.00    +0.000 A 
ENDROOT
BRANCH   4   7
ATOM      7  C   UNL     1      48.044   6.201  13.995  0.00  0.00    +0.000 C 
ATOM      8  N   UNL     1      48.004   6.224  15.369  0.00  0.00    +0.000 N 
ATOM      9  N   UNL     1      49.093   6.594  13.325  0.00  0.00    +0.000 NA
ATOM     10  H   UNL     1      47.563   5.419  15.798  0.00  0.00    +0.000 HD
ATOM     11  H   UNL     1      48.943   6.384  15.729  0.00  0.00    +0.000 HD
BRANCH   9  12
ATOM     12  O   UNL     1      50.108   7.027  14.196  0.00  0.00    +0.000 OA
ATOM     13  H   UNL     1      50.192   7.968  13.953  0.00  0.00    +0.000 HD
ENDBRANCH   9  12
ENDBRANCH   4   7
BRANCH   1  14
ATOM     14  C   UNL     1      43.397   4.257  11.081  0.00  0.00    +0.000 C 
BRANCH  14  15
ATOM     15  O   UNL     1      43.589   4.473   9.684  0.00  0.00    +0.000 OA
BRANCH  15  19
ATOM     16  C   UNL     1      46.562   2.308   7.674  0.00  0.00    +0.000 A 
ATOM     17  C   UNL     1      45.677   1.628   8.522  0.00  0.00    +0.000 A 
ATOM     18  C   UNL     1      44.672   2.313   9.212  0.00  0.00    +0.000 A 
ATOM     19  C   UNL     1      44.537   3.695   9.070  0.00  0.00    +0.000 A 
ATOM     20  C   UNL     1      45.423   4.379   8.237  0.00  0.00    +0.000 A 
ATOM     21  C   UNL     1      46.428   3.696   7.543  0.00  0.00    +0.000 A 
BRANCH  16  22
ATOM     22  C   UNL     1      47.630   1.550   6.931  0.00  0.00    +0.000 C 
BRANCH  22  23
ATOM     23  N   UNL     1      48.645   2.452   6.395  0.00  0.00    +0.000 NA
ATOM     24  H   UNL     1      49.492   1.924   6.197  0.00  0.00    +0.000 HD
ATOM     25  H   UNL     1      48.886   3.133   7.113  0.00  0.00    +0.000 HD
ENDBRANCH  22  23
ENDBRANCH  16  22
ENDBRANCH  15  19
ENDBRANCH  14  15
ENDBRANCH   1  14
TORSDOF 7
ENDMDL
MODEL 3
REMARK VINA RESULT:    -7.931      0.239      1.543
REMARK INTER + INTRA:         -11.440
REMARK INTER:                 -10.751
REMARK INTRA:                  -0.689
REMARK UNBOUND:                -0.727
REMARK  Name = 
REMARK  7 active torsions:
REMARK  status: ('A' for Active; 'I' for Inactive)
REMARK    1  A    between atoms: N_1  and  C_2
REMARK    2  A    between atoms: C_2  and  C_3
REMARK    3  A    between atoms: C_6  and  O_7
REMARK    4  A    between atoms: O_7  and  C_8
REMARK    5  A    between atoms: C_8  and  C_9
REMARK    6  A    between atoms: C_12  and  C_13
REMARK    7  A    between atoms: N_15  and  O_16
REMARK                            x       y       z     vdW  Elec       q    Type
REMARK                         _______ _______ _______ _____ _____    ______ ____
ROOT
ATOM      1  C   UNL     1      44.352   3.401  10.017  0.00  0.00    +0.000 A 
ATOM      2  C   UNL     1      44.741   2.096   9.681  0.00  0.00    +0.000 A 
ATOM      3  C   UNL     1      45.594   1.864   8.598  0.00  0.00    +0.000 A 
ATOM      4  C   UNL     1      46.072   2.936   7.840  0.00  0.00    +0.000 A 
ATOM      5  C   UNL     1      45.687   4.241   8.164  0.00  0.00    +0.000 A 
ATOM      6  C   UNL     1      44.828   4.470   9.244  0.00  0.00    +0.000 A 
ENDROOT
BRANCH   4   7
ATOM      7  C   UNL     1      47.001   2.691   6.696  0.00  0.00    +0.000 C 
ATOM      8  N   UNL     1      46.965   3.533   5.610  0.00  0.00    +0.000 N 
ATOM      9  N   UNL     1      47.830   1.685   6.766  0.00  0.00    +0.000 NA
ATOM     10  H   UNL     1      46.850   4.514   5.832  0.00  0.00    +0.000 HD
ATOM     11  H   UNL     1      47.784   3.365   5.028  0.00  0.00    +0.000 HD
BRANCH   9  12
ATOM     12  O   UNL     1      48.625   1.610   5.609  0.00  0.00    +0.000 OA
ATOM     13  H   UNL     1      49.525   1.622   5.984  0.00  0.00    +0.000 HD
ENDBRANCH   9  12
ENDBRANCH   4   7
BRANCH   1  14
ATOM     14  C   UNL     1      43.409   3.643  11.173  0.00  0.00    +0.000 C 
BRANCH  14  15
ATOM     15  O   UNL     1      44.141   3.638  12.399  0.00  0.00    +0.000 OA
BRANCH  15  19
ATOM     16  C   UNL     1      46.741   6.818  13.231  0.00  0.00    +0.000 A 
ATOM     17  C   UNL     1      45.430   7.097  12.820  0.00  0.00    +0.000 A 
ATOM     18  C   UNL     1      44.531   6.065  12.531  0.00  0.00    +0.000 A 
ATOM     19  C   UNL     1      44.930   4.733  12.644  0.00  0.00    +0.000 A 
ATOM     20  C   UNL     1      46.238   4.449  13.040  0.00  0.00    +0.000 A 
ATOM     21  C   UNL     1      47.139   5.479  13.332  0.00  0.00    +0.000 A 
BRANCH  16  22
ATOM     22  C   UNL     1      47.690   7.943  13.547  0.00  0.00    +0.000 C 
BRANCH  22  23
ATOM     23  N   UNL     1      47.092   8.895  14.477  0.00  0.00    +0.000 NA
ATOM     24  H   UNL     1      46.111   8.660  14.615  0.00  0.00    +0.000 HD
ATOM     25  H   UNL     1      47.113   9.821  14.052  0.00  0.00    +0.000 HD
ENDBRANCH  22  23
ENDBRANCH  16  22
ENDBRANCH  15  19
ENDBRANCH  14  15
ENDBRANCH   1  14
TORSDOF 7
ENDMDL
MODEL 4
REMARK VINA RESULT:    -7.785      2.193      6.616
REMARK INTER + INTRA:         -11.243
REMARK INTER:                 -10.650
REMARK INTRA:                  -0.593
REMARK UNBOUND:                -0.727
REMARK  Name = 
REMARK  7 active torsions:
REMARK  status: ('A' for Active; 'I' for Inactive)
REMARK    1  A    between atoms: N_1  and  C_2
REMARK    2  A    between atoms: C_2  and  C_3
REMARK    3  A    between atoms: C_6  and  O_7
REMARK    4  A    between atoms: O_7  and  C_8
REMARK    5  A    between atoms: C_8  and  C_9
REMARK    6  A    between atoms: C_12  and  C_13
REMARK    7  A    between atoms: N_15  and  O_16
REMARK                            x       y       z     vdW  Elec       q    Type
REMARK                         _______ _______ _______ _____ _____    ______ ____
ROOT
ATOM      1  C   UNL     1      44.695   5.211  11.483  0.00  0.00    +0.000 A 
ATOM      2  C   UNL     1      45.470   6.357  11.248  0.00  0.00    +0.000 A 
ATOM      3  C   UNL     1      46.537   6.682  12.091  0.00  0.00    +0.000 A 
ATOM      4  C   UNL     1      46.843   5.862  13.181  0.00  0.00    +0.000 A 
ATOM      5  C   UNL     1      46.075   4.719  13.427  0.00  0.00    +0.000 A 
ATOM      6  C   UNL     1      45.004   4.400  12.585  0.00  0.00    +0.000 A 
ENDROOT
BRANCH   4   7
ATOM      7  C   UNL     1      47.996   6.196  14.070  0.00  0.00    +0.000 C 
ATOM      8  N   UNL     1      47.861   6.042  15.430  0.00  0.00    +0.000 N 
ATOM      9  N   UNL     1      49.106   6.617  13.527  0.00  0.00    +0.000 NA
ATOM     10  H   UNL     1      47.356   5.213  15.719  0.00  0.00    +0.000 HD
ATOM     11  H   UNL     1      48.779   6.104  15.867  0.00  0.00    +0.000 HD
BRANCH   9  12
ATOM     12  O   UNL     1      50.076   6.878  14.510  0.00  0.00    +0.000 OA
ATOM     13  H   UNL     1      50.667   7.501  14.047  0.00  0.00    +0.000 HD
ENDBRANCH   9  12
ENDBRANCH   4   7
BRANCH   1  14
ATOM     14  C   UNL     1      43.528   4.879  10.582  0.00  0.00    +0.000 C 
BRANCH  14  15
ATOM     15  O   UNL     1      43.601   3.510  10.188  0.00  0.00    +0.000 OA
BRANCH  15  19
ATOM     16  C   UNL     1      46.511   2.298   7.427  0.00  0.00    +0.000 A 
ATOM     17  C   UNL     1      46.108   3.641   7.450  0.00  0.00    +0.000 A 
ATOM     18  C   UNL     1      45.139   4.086   8.355  0.00  0.00    +0.000 A 
ATOM     19  C   UNL     1      44.551   3.193   9.251  0.00  0.00    +0.000 A 
ATOM     20  C   UNL     1      44.939   1.852   9.225  0.00  0.00    +0.000 A 
ATOM     21  C   UNL     1      45.910   1.405   8.323  0.00  0.00    +0.000 A 
BRANCH  16  22
ATOM     22  C   UNL     1      47.565   1.841   6.453  0.00  0.00    +0.000 C 
BRANCH  22  23
ATOM     23  N   UNL     1      48.657   2.804   6.363  0.00  0.00    +0.000 NA
ATOM     24  H   UNL     1      48.828   3.028   5.385  0.00  0.00    +0.000 HD
ATOM     25  H   UNL     1      49.507   2.364   6.714  0.00  0.00    +0.000 HD
ENDBRANCH  22  23
ENDBRANCH  16  22
ENDBRANCH  15  19
ENDBRANCH  14  15
ENDBRANCH   1  14
TORSDOF 7
ENDMDL
MODEL 5
REMARK VINA RESULT:    -6.678      1.603      2.284
REMARK INTER + INTRA:          -9.747
REMARK INTER:                  -8.986
REMARK INTRA:                  -0.761
REMARK UNBOUND:                -0.727
REMARK  Name = 
REMARK  7 active torsions:
REMARK  status: ('A' for Active; 'I' for Inactive)
REMARK    1  A    between atoms: N_1  and  C_2
REMARK    2  A    between atoms: C_2  and  C_3
REMARK    3  A    between atoms: C_6  and  O_7
REMARK    4  A    between atoms: O_7  and  C_8
REMARK    5  A    between atoms: C_8  and  C_9
REMARK    6  A    between atoms: C_12  and  C_13
REMARK    7  A    between atoms: N_15  and  O_16
REMARK                            x       y       z     vdW  Elec       q    Type
REMARK                         _______ _______ _______ _____ _____    ______ ____
ROOT
ATOM      1  C   UNL     1      44.482   4.402   9.821  0.00  0.00    +0.000 A 
ATOM      2  C   UNL     1      44.219   3.057  10.119  0.00  0.00    +0.000 A 
ATOM      3  C   UNL     1      44.879   2.033   9.434  0.00  0.00    +0.000 A 
ATOM      4  C   UNL     1      45.814   2.343   8.442  0.00  0.00    +0.000 A 
ATOM      5  C   UNL     1      46.081   3.681   8.134  0.00  0.00    +0.000 A 
ATOM      6  C   UNL     1      45.414   4.703   8.817  0.00  0.00    +0.000 A 
ENDROOT
BRANCH   4   7
ATOM      7  C   UNL     1      46.536   1.250   7.724  0.00  0.00    +0.000 C 
ATOM      8  N   UNL     1      47.501   1.577   6.800  0.00  0.00    +0.000 N 
ATOM      9  N   UNL     1      46.236   0.011   8.004  0.00  0.00    +0.000 NA
ATOM     10  H   UNL     1      48.098   2.351   7.061  0.00  0.00    +0.000 HD
ATOM     11  H   UNL     1      48.034   0.743   6.563  0.00  0.00    +0.000 HD
BRANCH   9  12
ATOM     12  O   UNL     1      47.013  -0.877   7.239  0.00  0.00    +0.000 OA
ATOM     13  H   UNL     1      46.366  -1.573   7.022  0.00  0.00    +0.000 HD
ENDBRANCH   9  12
ENDBRANCH   4   7
BRANCH   1  14
ATOM     14  C   UNL     1      43.746   5.504  10.549  0.00  0.00    +0.000 C 
BRANCH  14  15
ATOM     15  O   UNL     1      43.918   5.348  11.957  0.00  0.00    +0.000 OA
BRANCH  15  19
ATOM     16  C   UNL     1      47.533   6.568  13.690  0.00  0.00    +0.000 A 
ATOM     17  C   UNL     1      46.775   7.498  12.964  0.00  0.00    +0.000 A 
ATOM     18  C   UNL     1      45.564   7.131  12.369  0.00  0.00    +0.000 A 
ATOM     19  C   UNL     1      45.091   5.824  12.485  0.00  0.00    +0.000 A 
ATOM     20  C   UNL     1      45.847   4.890  13.196  0.00  0.00    +0.000 A 
ATOM     21  C   UNL     1      47.058   5.255  13.795  0.00  0.00    +0.000 A 
BRANCH  16  22
ATOM     22  C   UNL     1      48.829   6.986  14.333  0.00  0.00    +0.000 C 
BRANCH  22  23
ATOM     23  N   UNL     1      49.918   7.015  13.362  0.00  0.00    +0.000 NA
ATOM     24  H   UNL     1      50.602   6.301  13.604  0.00  0.00    +0.000 HD
ATOM     25  H   UNL     1      50.395   7.913  13.436  0.00  0.00    +0.000 HD
ENDBRANCH  22  23
ENDBRANCH  16  22
ENDBRANCH  15  19
ENDBRANCH  14  15
ENDBRANCH   1  14
TORSDOF 7
ENDMDL
MODEL 6
REMARK VINA RESULT:    -5.539      4.219      8.476
REMARK INTER + INTRA:          -8.209
REMARK INTER:                  -7.716
REMARK INTRA:                  -0.494
REMARK UNBOUND:                -0.727
REMARK  Name = 
REMARK  7 active torsions:
REMARK  status: ('A' for Active; 'I' for Inactive)
REMARK    1  A    between atoms: N_1  and  C_2
REMARK    2  A    between atoms: C_2  and  C_3
REMARK    3  A    between atoms: C_6  and  O_7
REMARK    4  A    between atoms: O_7  and  C_8
REMARK    5  A    between atoms: C_8  and  C_9
REMARK    6  A    between atoms: C_12  and  C_13
REMARK    7  A    between atoms: N_15  and  O_16
REMARK                            x       y       z     vdW  Elec       q    Type
REMARK                         _______ _______ _______ _____ _____    ______ ____
ROOT
ATOM      1  C   UNL     1      47.816   5.658  14.895  0.00  0.00    +0.000 A 
ATOM      2  C   UNL     1      48.716   6.377  15.696  0.00  0.00    +0.000 A 
ATOM      3  C   UNL     1      49.032   5.937  16.985  0.00  0.00    +0.000 A 
ATOM      4  C   UNL     1      48.452   4.769  17.487  0.00  0.00    +0.000 A 
ATOM      5  C   UNL     1      47.552   4.046  16.699  0.00  0.00    +0.000 A 
ATOM      6  C   UNL     1      47.233   4.492  15.412  0.00  0.00    +0.000 A 
ENDROOT
BRANCH   4   7
ATOM      7  C   UNL     1      48.806   4.286  18.857  0.00  0.00    +0.000 C 
ATOM      8  N   UNL     1      48.222   3.136  19.334  0.00  0.00    +0.000 N 
ATOM      9  N   UNL     1      49.669   4.968  19.559  0.00  0.00    +0.000 NA
ATOM     10  H   UNL     1      48.129   2.390  18.655  0.00  0.00    +0.000 HD
ATOM     11  H   UNL     1      48.715   2.833  20.171  0.00  0.00    +0.000 HD
BRANCH   9  12
ATOM     12  O   UNL     1      49.880   4.368  20.812  0.00  0.00    +0.000 OA
ATOM     13  H   UNL     1      49.309   3.579  20.755  0.00  0.00    +0.000 HD
ENDBRANCH   9  12
ENDBRANCH   4   7
BRANCH   1  14
ATOM     14  C   UNL     1      47.461   6.152  13.512  0.00  0.00    +0.000 C 
BRANCH  14  15
ATOM     15  O   UNL     1      46.060   5.993  13.291  0.00  0.00    +0.000 OA
BRANCH  15  19
ATOM     16  C   UNL     1      44.904   3.577  10.068  0.00  0.00    +0.000 A 
ATOM     17  C   UNL     1      45.362   4.878   9.817  0.00  0.00    +0.000 A 
ATOM     18  C   UNL     1      45.756   5.717  10.864  0.00  0.00    +0.000 A 
ATOM     19  C   UNL     1      45.694   5.271  12.184  0.00  0.00    +0.000 A 
ATOM     20  C   UNL     1      45.227   3.980  12.442  0.00  0.00    +0.000 A 
ATOM     21  C   UNL     1      44.835   3.138  11.396  0.00  0.00    +0.000 A 
BRANCH  16  22
ATOM     22  C   UNL     1      44.495   2.685   8.925  0.00  0.00    +0.000 C 
BRANCH  22  23
ATOM     23  N   UNL     1      45.519   1.685   8.640  0.00  0.00    +0.000 NA
ATOM     24  H   UNL     1      46.022   1.950   7.796  0.00  0.00    +0.000 HD
ATOM     25  H   UNL     1      45.059   0.798   8.439  0.00  0.00    +0.000 HD
ENDBRANCH  22  23
ENDBRANCH  16  22
ENDBRANCH  15  19
ENDBRANCH  14  15
ENDBRANCH   1  14
TORSDOF 7
ENDMDL
MODEL 7
REMARK VINA RESULT:    -5.529      1.618      2.414
REMARK INTER + INTRA:          -8.195
REMARK INTER:                  -8.067
REMARK INTRA:                  -0.129
REMARK UNBOUND:                -0.727
REMARK  Name = 
REMARK  7 active torsions:
REMARK  status: ('A' for Active; 'I' for Inactive)
REMARK    1  A    between atoms: N_1  and  C_2
REMARK    2  A    between atoms: C_2  and  C_3
REMARK    3  A    between atoms: C_6  and  O_7
REMARK    4  A    between atoms: O_7  and  C_8
REMARK    5  A    between atoms: C_8  and  C_9
REMARK    6  A    between atoms: C_12  and  C_13
REMARK    7  A    between atoms: N_15  and  O_16
REMARK                            x       y       z     vdW  Elec       q    Type
REMARK                         _______ _______ _______ _____ _____    ______ ____
ROOT
ATOM      1  C   UNL     1      43.869   4.045  11.367  0.00  0.00    +0.000 A 
ATOM      2  C   UNL     1      44.796   2.993  11.342  0.00  0.00    +0.000 A 
ATOM      3  C   UNL     1      45.489   2.681  10.169  0.00  0.00    +0.000 A 
ATOM      4  C   UNL     1      45.264   3.421   9.005  0.00  0.00    +0.000 A 
ATOM      5  C   UNL     1      44.339   4.469   9.017  0.00  0.00    +0.000 A 
ATOM      6  C   UNL     1      43.642   4.775  10.191  0.00  0.00    +0.000 A 
ENDROOT
BRANCH   4   7
ATOM      7  C   UNL     1      46.020   3.103   7.756  0.00  0.00    +0.000 C 
ATOM      8  N   UNL     1      46.400   1.803   7.514  0.00  0.00    +0.000 N 
ATOM      9  N   UNL     1      46.290   4.070   6.923  0.00  0.00    +0.000 NA
ATOM     10  H   UNL     1      45.710   1.103   7.757  0.00  0.00    +0.000 HD
ATOM     11  H   UNL     1      46.709   1.719   6.548  0.00  0.00    +0.000 HD
BRANCH   9  12
ATOM     12  O   UNL     1      47.000   3.588   5.809  0.00  0.00    +0.000 OA
ATOM     13  H   UNL     1      47.874   3.398   6.197  0.00  0.00    +0.000 HD
ENDBRANCH   9  12
ENDBRANCH   4   7
BRANCH   1  14
ATOM     14  C   UNL     1      43.105   4.361  12.632  0.00  0.00    +0.000 C 
BRANCH  14  15
ATOM     15  O   UNL     1      43.493   5.645  13.119  0.00  0.00    +0.000 OA
BRANCH  15  19
ATOM     16  C   UNL     1      47.580   6.514  12.799  0.00  0.00    +0.000 A 
ATOM     17  C   UNL     1      46.659   7.281  12.072  0.00  0.00    +0.000 A 
ATOM     18  C   UNL     1      45.287   7.023  12.150  0.00  0.00    +0.000 A 
ATOM     19  C   UNL     1      44.811   5.988  12.954  0.00  0.00    +0.000 A 
ATOM     20  C   UNL     1      45.724   5.213  13.671  0.00  0.00    +0.000 A 
ATOM     21  C   UNL     1      47.097   5.470  13.597  0.00  0.00    +0.000 A 
BRANCH  16  22
ATOM     22  C   UNL     1      49.053   6.816  12.711  0.00  0.00    +0.000 C 
BRANCH  22  23
ATOM     23  N   UNL     1      49.313   7.927  11.801  0.00  0.00    +0.000 NA
ATOM     24  H   UNL     1      50.313   7.991  11.626  0.00  0.00    +0.000 HD
ATOM     25  H   UNL     1      49.042   8.795  12.263  0.00  0.00    +0.000 HD
ENDBRANCH  22  23
ENDBRANCH  16  22
ENDBRANCH  15  19
ENDBRANCH  14  15
ENDBRANCH   1  14
TORSDOF 7
ENDMDL
MODEL 8
REMARK VINA RESULT:    -5.406      4.245      6.210
REMARK INTER + INTRA:          -8.030
REMARK INTER:                  -7.712
REMARK INTRA:                  -0.317
REMARK UNBOUND:                -0.727
REMARK  Name = 
REMARK  7 active torsions:
REMARK  status: ('A' for Active; 'I' for Inactive)
REMARK    1  A    between atoms: N_1  and  C_2
REMARK    2  A    between atoms: C_2  and  C_3
REMARK    3  A    between atoms: C_6  and  O_7
REMARK    4  A    between atoms: O_7  and  C_8
REMARK    5  A    between atoms: C_8  and  C_9
REMARK    6  A    between atoms: C_12  and  C_13
REMARK    7  A    between atoms: N_15  and  O_16
REMARK                            x       y       z     vdW  Elec       q    Type
REMARK                         _______ _______ _______ _____ _____    ______ ____
ROOT
ATOM      1  C   UNL     1      47.378   6.134  13.477  0.00  0.00    +0.000 A 
ATOM      2  C   UNL     1      47.126   4.907  14.108  0.00  0.00    +0.000 A 
ATOM      3  C   UNL     1      46.229   3.990  13.552  0.00  0.00    +0.000 A 
ATOM      4  C   UNL     1      45.575   4.289  12.354  0.00  0.00    +0.000 A 
ATOM      5  C   UNL     1      45.817   5.510  11.717  0.00  0.00    +0.000 A 
ATOM      6  C   UNL     1      46.710   6.428  12.279  0.00  0.00    +0.000 A 
ENDROOT
BRANCH   4   7
ATOM      7  C   UNL     1      44.633   3.300  11.747  0.00  0.00    +0.000 C 
ATOM      8  N   UNL     1      44.837   2.888  10.451  0.00  0.00    +0.000 N 
ATOM      9  N   UNL     1      43.646   2.848  12.471  0.00  0.00    +0.000 NA
ATOM     10  H   UNL     1      45.805   2.729  10.199  0.00  0.00    +0.000 HD
ATOM     11  H   UNL     1      44.253   2.075  10.262  0.00  0.00    +0.000 HD
BRANCH   9  12
ATOM     12  O   UNL     1      42.869   1.931  11.742  0.00  0.00    +0.000 OA
ATOM     13  H   UNL     1      43.472   1.695  11.012  0.00  0.00    +0.000 HD
ENDBRANCH   9  12
ENDBRANCH   4   7
BRANCH   1  14
ATOM     14  C   UNL     1      48.330   7.131  14.096  0.00  0.00    +0.000 C 
BRANCH  14  15
ATOM     15  O   UNL     1      49.156   6.474  15.057  0.00  0.00    +0.000 OA
BRANCH  15  19
ATOM     16  C   UNL     1      48.135   6.809  19.107  0.00  0.00    +0.000 A 
ATOM     17  C   UNL     1      48.346   7.975  18.357  0.00  0.00    +0.000 A 
ATOM     18  C   UNL     1      48.689   7.906  17.003  0.00  0.00    +0.000 A 
ATOM     19  C   UNL     1      48.833   6.669  16.375  0.00  0.00    +0.000 A 
ATOM     20  C   UNL     1      48.636   5.505  17.120  0.00  0.00    +0.000 A 
ATOM     21  C   UNL     1      48.290   5.570  18.474  0.00  0.00    +0.000 A 
BRANCH  16  22
ATOM     22  C   UNL     1      47.754   6.904  20.561  0.00  0.00    +0.000 C 
BRANCH  22  23
ATOM     23  N   UNL     1      47.064   5.699  21.009  0.00  0.00    +0.000 NA
ATOM     24  H   UNL     1      46.943   5.068  20.220  0.00  0.00    +0.000 HD
ATOM     25  H   UNL     1      46.129   5.958  21.322  0.00  0.00    +0.000 HD
ENDBRANCH  22  23
ENDBRANCH  16  22
ENDBRANCH  15  19
ENDBRANCH  14  15
ENDBRANCH   1  14
TORSDOF 7
ENDMDL
MODEL 9
REMARK VINA RESULT:    -5.388      3.768      5.721
REMARK INTER + INTRA:          -8.005
REMARK INTER:                  -7.497
REMARK INTRA:                  -0.508
REMARK UNBOUND:                -0.727
REMARK  Name = 
REMARK  7 active torsions:
REMARK  status: ('A' for Active; 'I' for Inactive)
REMARK    1  A    between atoms: N_1  and  C_2
REMARK    2  A    between atoms: C_2  and  C_3
REMARK    3  A    between atoms: C_6  and  O_7
REMARK    4  A    between atoms: O_7  and  C_8
REMARK    5  A    between atoms: C_8  and  C_9
REMARK    6  A    between atoms: C_12  and  C_13
REMARK    7  A    between atoms: N_15  and  O_16
REMARK                            x       y       z     vdW  Elec       q    Type
REMARK                         _______ _______ _______ _____ _____    ______ ____
ROOT
ATOM      1  C   UNL     1      45.878   7.090  12.701  0.00  0.00    +0.000 A 
ATOM      2  C   UNL     1      45.009   6.981  11.605  0.00  0.00    +0.000 A 
ATOM      3  C   UNL     1      44.529   5.733  11.198  0.00  0.00    +0.000 A 
ATOM      4  C   UNL     1      44.911   4.577  11.884  0.00  0.00    +0.000 A 
ATOM      5  C   UNL     1      45.780   4.674  12.976  0.00  0.00    +0.000 A 
ATOM      6  C   UNL     1      46.264   5.924  13.378  0.00  0.00    +0.000 A 
ENDROOT
BRANCH   4   7
ATOM      7  C   UNL     1      44.382   3.245  11.464  0.00  0.00    +0.000 C 
ATOM      8  N   UNL     1      44.969   2.594  10.404  0.00  0.00    +0.000 N 
ATOM      9  N   UNL     1      43.379   2.732  12.123  0.00  0.00    +0.000 NA
ATOM     10  H   UNL     1      45.979   2.655  10.372  0.00  0.00    +0.000 HD
ATOM     11  H   UNL     1      44.642   1.630  10.380  0.00  0.00    +0.000 HD
BRANCH   9  12
ATOM     12  O   UNL     1      43.018   1.481  11.592  0.00  0.00    +0.000 OA
ATOM     13  H   UNL     1      43.776   0.927  11.855  0.00  0.00    +0.000 HD
ENDBRANCH   9  12
ENDBRANCH   4   7
BRANCH   1  14
ATOM     14  C   UNL     1      46.412   8.440  13.121  0.00  0.00    +0.000 C 
BRANCH  14  15
ATOM     15  O   UNL     1      46.970   9.109  11.990  0.00  0.00    +0.000 OA
BRANCH  15  19
ATOM     16  C   UNL     1      51.106   8.864  11.363  0.00  0.00    +0.000 A 
ATOM     17  C   UNL     1      50.340   7.690  11.336  0.00  0.00    +0.000 A 
ATOM     18  C   UNL     1      48.957   7.728  11.541  0.00  0.00    +0.000 A 
ATOM     19  C   UNL     1      48.315   8.942  11.784  0.00  0.00    +0.000 A 
ATOM     20  C   UNL     1      49.074  10.113  11.825  0.00  0.00    +0.000 A 
ATOM     21  C   UNL     1      50.458  10.079  11.617  0.00  0.00    +0.000 A 
BRANCH  16  22
ATOM     22  C   UNL     1      52.592   8.803  11.128  0.00  0.00    +0.000 C 
BRANCH  22  23
ATOM     23  N   UNL     1      53.173   7.601  11.717  0.00  0.00    +0.000 NA
ATOM     24  H   UNL     1      53.619   7.050  10.987  0.00  0.00    +0.000 HD
ATOM     25  H   UNL     1      52.421   7.029  12.097  0.00  0.00    +0.000 HD
ENDBRANCH  22  23
ENDBRANCH  16  22
ENDBRANCH  15  19
ENDBRANCH  14  15
ENDBRANCH   1  14
TORSDOF 7
ENDMDL
