MODEL 1
REMARK VINA RESULT:    -9.032      0.000      0.000
REMARK INTER + INTRA:         -11.886
REMARK INTER:                 -11.145
REMARK INTRA:                  -0.741
REMARK UNBOUND:                -0.741
REMARK  Name = 
REMARK  4 active torsions:
REMARK  status: ('A' for Active; 'I' for Inactive)
REMARK    1  A    between atoms: C_2  and  C_4
REMARK    2  A    between atoms: N_8  and  C_9
REMARK    3  A    between atoms: C_9  and  C_10
REMARK    4  A    between atoms: C_14  and  C_15
REMARK                            x       y       z     vdW  Elec       q    Type
REMARK                         _______ _______ _______ _____ _____    ______ ____
ROOT
ATOM      1  C   UNL     1      46.401   2.296   7.713  0.00  0.00    +0.000 A 
ATOM      2  C   UNL     1      45.592   1.807   8.733  0.00  0.00    +0.000 A 
ATOM      3  C   UNL     1      44.734   2.682   9.398  0.00  0.00    +0.000 A 
ATOM      4  C   UNL     1      44.713   4.031   9.055  0.00  0.00    +0.000 A 
ATOM      5  N   UNL     1      43.826   4.935   9.602  0.00  0.00    +0.000 N 
ATOM      6  N   UNL     1      45.507   4.519   8.082  0.00  0.00    +0.000 NA
ATOM      7  C   UNL     1      46.334   3.653   7.436  0.00  0.00    +0.000 A 
ATOM      8  H   UNL     1      44.080   5.858   9.258  0.00  0.00    +0.000 HD
ENDROOT
BRANCH   1  10
ATOM      9  N   UNL     1      48.455   2.020   6.450  0.00  0.00    +0.000 N 
ATOM     10  C   UNL     1      47.317   1.439   6.936  0.00  0.00    +0.000 C 
ATOM     11  O   UNL     1      47.084   0.251   6.758  0.00  0.00    +0.000 OA
ATOM     12  H   UNL     1      49.120   1.401   6.002  0.00  0.00    +0.000 HD
ATOM     13  H   UNL     1      48.802   2.909   6.782  0.00  0.00    +0.000 HD
ENDBRANCH   1  10
BRANCH   5  14
ATOM     14  C   UNL     1      43.502   4.894  11.016  0.00  0.00    +0.000 C 
BRANCH  14  15
ATOM     15  C   UNL     1      44.721   5.213  11.852  0.00  0.00    +0.000 A 
ATOM     16  C   UNL     1      45.055   4.414  12.945  0.00  0.00    +0.000 A 
ATOM     17  C   UNL     1      46.139   4.779  13.724  0.00  0.00    +0.000 A 
ATOM     18  N   UNL     1      46.907   5.864  13.489  0.00  0.00    +0.000 NA
ATOM     19  C   UNL     1      46.595   6.646  12.425  0.00  0.00    +0.000 A 
ATOM     20  C   UNL     1      45.493   6.361  11.618  0.00  0.00    +0.000 A 
BRANCH  19  21
ATOM     21  C   UNL     1      47.501   7.786  12.172  0.00  0.00    +0.000 A 
ATOM     22  C   UNL     1      47.052   9.116  12.203  0.00  0.00    +0.000 A 
ATOM     23  C   UNL     1      47.941  10.145  11.928  0.00  0.00    +0.000 A 
ATOM     24  N   UNL     1      49.241   9.953  11.627  0.00  0.00    +0.000 NA
ATOM     25  C   UNL     1      49.664   8.674  11.592  0.00  0.00    +0.000 A 
ATOM     26  C   UNL     1      48.851   7.582  11.853  0.00  0.00    +0.000 A 
ENDBRANCH  19  21
ENDBRANCH  14  15
ENDBRANCH   5  14
TORSDOF 4
ENDMDL
MODEL 2
REMARK VINA RESULT:    -8.735      1.641      3.331
REMARK INTER + INTRA:         -11.519
REMARK INTER:                 -10.733
REMARK INTRA:                  -0.786
REMARK UNBOUND:                -0.741
REMARK  Name = 
REMARK  4 active torsions:
REMARK  status: ('A' for Active; 'I' for Inactive)
REMARK    1  A    between atoms: C_2  and  C_4
REMARK    2  A    between atoms: N_8  and  C_9
REMARK    3  A    between atoms: C_9  and  C_10
REMARK    4  A    between atoms: C_14  and  C_15
REMARK                            x       y       z     vdW  Elec       q    Type
REMARK                         _______ _______ _______ _____ _____    ______ ____
ROOT
ATOM      1  C   UNL     1      46.380   2.288   7.695  0.00  0.00    +0.000 A 
ATOM      2  C   UNL     1      45.631   1.791   8.757  0.00  0.00    +0.000 A 
ATOM      3  C   UNL     1      44.794   2.656   9.460  0.00  0.00    +0.000 A 
ATOM      4  C   UNL     1      44.733   4.002   9.112  0.00  0.00    +0.000 A 
ATOM      5  N   UNL     1      43.859   4.895   9.698  0.00  0.00    +0.000 N 
ATOM      6  N   UNL     1      45.469   4.497   8.098  0.00  0.00    +0.000 NA
ATOM      7  C   UNL     1      46.276   3.642   7.415  0.00  0.00    +0.000 A 
ATOM      8  H   UNL     1      44.079   5.820   9.338  0.00  0.00    +0.000 HD
ENDROOT
BRANCH   1  10
ATOM      9  N   UNL     1      48.298   2.064   6.224  0.00  0.00    +0.000 N 
ATOM     10  C   UNL     1      47.270   1.442   6.877  0.00  0.00    +0.000 C 
ATOM     11  O   UNL     1      47.114   0.230   6.808  0.00  0.00    +0.000 OA
ATOM     12  H   UNL     1      48.957   1.461   5.745  0.00  0.00    +0.000 HD
ATOM     13  H   UNL     1      48.607   2.998   6.453  0.00  0.00    +0.000 HD
ENDBRANCH   1  10
BRANCH   5  14
ATOM     14  C   UNL     1      43.607   4.856  11.127  0.00  0.00    +0.000 C 
BRANCH  14  15
ATOM     15  C   UNL     1      44.709   5.566  11.882  0.00  0.00    +0.000 A 
ATOM     16  C   UNL     1      45.091   6.859  11.522  0.00  0.00    +0.000 A 
ATOM     17  C   UNL     1      46.149   7.447  12.193  0.00  0.00    +0.000 A 
ATOM     18  N   UNL     1      46.837   6.850  13.190  0.00  0.00    +0.000 NA
ATOM     19  C   UNL     1      46.471   5.594  13.552  0.00  0.00    +0.000 A 
ATOM     20  C   UNL     1      45.439   4.925  12.894  0.00  0.00    +0.000 A 
BRANCH  19  21
ATOM     21  C   UNL     1      47.213   5.006  14.687  0.00  0.00    +0.000 A 
ATOM     22  C   UNL     1      48.017   5.784  15.535  0.00  0.00    +0.000 A 
ATOM     23  C   UNL     1      48.714   5.173  16.567  0.00  0.00    +0.000 A 
ATOM     24  N   UNL     1      48.671   3.850  16.822  0.00  0.00    +0.000 NA
ATOM     25  C   UNL     1      47.903   3.107  16.001  0.00  0.00    +0.000 A 
ATOM     26  C   UNL     1      47.171   3.628  14.945  0.00  0.00    +0.000 A 
ENDBRANCH  19  21
ENDBRANCH  14  15
ENDBRANCH   5  14
TORSDOF 4
ENDMDL
MODEL 3
REMARK VINA RESULT:    -7.768      2.274      3.088
REMARK INTER + INTRA:         -10.326
REMARK INTER:                  -9.816
REMARK INTRA:                  -0.510
REMARK UNBOUND:                -0.741
REMARK  Name = 
REMARK  4 active torsions:
REMARK  status: ('A' for Active; 'I' for Inactive)
REMARK    1  A    between atoms: C_2  and  C_4
REMARK    2  A    between atoms: N_8  and  C_9
REMARK    3  A    between atoms: C_9  and  C_10
REMARK    4  A    between atoms: C_14  and  C_15
REMARK                            x       y       z     vdW  Elec       q    Type
REMARK                         _______ _______ _______ _____ _____    ______ ____
ROOT
ATOM      1  C   UNL     1      46.645   2.479   7.215  0.00  0.00    +0.000 A 
ATOM      2  C   UNL     1      46.347   3.710   7.789  0.00  0.00    +0.000 A 
ATOM      3  C   UNL     1      45.567   3.749   8.943  0.00  0.00    +0.000 A 
ATOM      4  C   UNL     1      45.077   2.569   9.493  0.00  0.00    +0.000 A 
ATOM      5  N   UNL     1      44.380   2.522  10.683  0.00  0.00    +0.000 N 
ATOM      6  N   UNL     1      45.342   1.373   8.934  0.00  0.00    +0.000 NA
ATOM      7  C   UNL     1      46.111   1.346   7.811  0.00  0.00    +0.000 A 
ATOM      8  H   UNL     1      44.056   1.567  10.811  0.00  0.00    +0.000 HD
ENDROOT
BRANCH   1  10
ATOM      9  N   UNL     1      47.317   3.262   5.017  0.00  0.00    +0.000 N 
ATOM     10  C   UNL     1      47.486   2.337   6.011  0.00  0.00    +0.000 C 
ATOM     11  O   UNL     1      48.323   1.450   5.916  0.00  0.00    +0.000 OA
ATOM     12  H   UNL     1      47.965   3.211   4.241  0.00  0.00    +0.000 HD
ATOM     13  H   UNL     1      46.832   4.136   5.159  0.00  0.00    +0.000 HD
ENDBRANCH   1  10
BRANCH   5  14
ATOM     14  C   UNL     1      43.391   3.535  11.004  0.00  0.00    +0.000 C 
BRANCH  14  15
ATOM     15  C   UNL     1      44.051   4.749  11.619  0.00  0.00    +0.000 A 
ATOM     16  C   UNL     1      43.651   6.033  11.248  0.00  0.00    +0.000 A 
ATOM     17  C   UNL     1      44.326   7.116  11.784  0.00  0.00    +0.000 A 
ATOM     18  N   UNL     1      45.351   7.011  12.657  0.00  0.00    +0.000 NA
ATOM     19  C   UNL     1      45.746   5.767  13.028  0.00  0.00    +0.000 A 
ATOM     20  C   UNL     1      45.137   4.629  12.500  0.00  0.00    +0.000 A 
BRANCH  19  21
ATOM     21  C   UNL     1      46.830   5.705  14.031  0.00  0.00    +0.000 A 
ATOM     22  C   UNL     1      46.896   4.687  14.995  0.00  0.00    +0.000 A 
ATOM     23  C   UNL     1      47.920   4.696  15.930  0.00  0.00    +0.000 A 
ATOM     24  N   UNL     1      48.883   5.637  15.980  0.00  0.00    +0.000 NA
ATOM     25  C   UNL     1      48.811   6.616  15.057  0.00  0.00    +0.000 A 
ATOM     26  C   UNL     1      47.827   6.690  14.083  0.00  0.00    +0.000 A 
ENDBRANCH  19  21
ENDBRANCH  14  15
ENDBRANCH   5  14
TORSDOF 4
ENDMDL
MODEL 4
REMARK VINA RESULT:    -7.456      2.850      6.745
REMARK INTER + INTRA:          -9.941
REMARK INTER:                  -9.160
REMARK INTRA:                  -0.781
REMARK UNBOUND:                -0.741
REMARK  Name = 
REMARK  4 active torsions:
REMARK  status: ('A' for Active; 'I' for Inactive)
REMARK    1  A    between atoms: C_2  and  C_4
REMARK    2  A    between atoms: N_8  and  C_9
REMARK    3  A    between atoms: C_9  and  C_10
REMARK    4  A    between atoms: C_14  and  C_15
REMARK                            x       y       z     vdW  Elec       q    Type
REMARK                         _______ _______ _______ _____ _____    ______ ____
ROOT
ATOM      1  C   UNL     1      48.735   7.560  12.623  0.00  0.00    +0.000 A 
ATOM      2  C   UNL     1      47.876   8.134  11.693  0.00  0.00    +0.000 A 
ATOM      3  C   UNL     1      46.521   7.807  11.727  0.00  0.00    +0.000 A 
ATOM      4  C   UNL     1      46.048   6.898  12.670  0.00  0.00    +0.000 A 
ATOM      5  N   UNL     1      44.710   6.600  12.825  0.00  0.00    +0.000 N 
ATOM      6  N   UNL     1      46.875   6.321  13.563  0.00  0.00    +0.000 NA
ATOM      7  C   UNL     1      48.194   6.654  13.523  0.00  0.00    +0.000 A 
ATOM      8  H   UNL     1      44.642   5.847  13.506  0.00  0.00    +0.000 HD
ENDROOT
BRANCH   1  10
ATOM      9  N   UNL     1      50.974   7.317  11.716  0.00  0.00    +0.000 N 
ATOM     10  C   UNL     1      50.177   7.869  12.681  0.00  0.00    +0.000 C 
ATOM     11  O   UNL     1      50.637   8.612  13.537  0.00  0.00    +0.000 OA
ATOM     12  H   UNL     1      51.942   7.614  11.710  0.00  0.00    +0.000 HD
ATOM     13  H   UNL     1      50.606   6.917  10.865  0.00  0.00    +0.000 HD
ENDBRANCH   1  10
BRANCH   5  14
ATOM     14  C   UNL     1      43.847   6.438  11.670  0.00  0.00    +0.000 C 
BRANCH  14  15
ATOM     15  C   UNL     1      43.881   5.010  11.174  0.00  0.00    +0.000 A 
ATOM     16  C   UNL     1      43.124   4.025  11.809  0.00  0.00    +0.000 A 
ATOM     17  C   UNL     1      43.236   2.718  11.367  0.00  0.00    +0.000 A 
ATOM     18  N   UNL     1      44.030   2.331  10.346  0.00  0.00    +0.000 NA
ATOM     19  C   UNL     1      44.767   3.281   9.717  0.00  0.00    +0.000 A 
ATOM     20  C   UNL     1      44.734   4.612  10.134  0.00  0.00    +0.000 A 
BRANCH  19  21
ATOM     21  C   UNL     1      45.573   2.820   8.568  0.00  0.00    +0.000 A 
ATOM     22  C   UNL     1      46.022   1.495   8.456  0.00  0.00    +0.000 A 
ATOM     23  C   UNL     1      46.801   1.125   7.369  0.00  0.00    +0.000 A 
ATOM     24  N   UNL     1      47.165   1.971   6.385  0.00  0.00    +0.000 NA
ATOM     25  C   UNL     1      46.738   3.243   6.501  0.00  0.00    +0.000 A 
ATOM     26  C   UNL     1      45.956   3.705   7.549  0.00  0.00    +0.000 A 
ENDBRANCH  19  21
ENDBRANCH  14  15
ENDBRANCH   5  14
TORSDOF 4
ENDMDL
MODEL 5
REMARK VINA RESULT:    -7.014      3.118      7.225
REMARK INTER + INTRA:          -9.396
REMARK INTER:                  -8.725
REMARK INTRA:                  -0.670
REMARK UNBOUND:                -0.741
REMARK  Name = 
REMARK  4 active torsions:
REMARK  status: ('A' for Active; 'I' for Inactive)
REMARK    1  A    between atoms: C_2  and  C_4
REMARK    2  A    between atoms: N_8  and  C_9
REMARK    3  A    between atoms: C_9  and  C_10
REMARK    4  A    between atoms: C_14  and  C_15
REMARK                            x       y       z     vdW  Elec       q    Type
REMARK                         _______ _______ _______ _____ _____    ______ ____
ROOT
ATOM      1  C   UNL     1      48.628   6.479  15.035  0.00  0.00    +0.000 A 
ATOM      2  C   UNL     1      47.623   5.530  14.884  0.00  0.00    +0.000 A 
ATOM      3  C   UNL     1      46.732   5.649  13.819  0.00  0.00    +0.000 A 
ATOM      4  C   UNL     1      46.839   6.721  12.937  0.00  0.00    +0.000 A 
ATOM      5  N   UNL     1      46.056   6.852  11.809  0.00  0.00    +0.000 N 
ATOM      6  N   UNL     1      47.796   7.657  13.087  0.00  0.00    +0.000 NA
ATOM      7  C   UNL     1      48.665   7.525  14.126  0.00  0.00    +0.000 A 
ATOM      8  H   UNL     1      46.265   7.757  11.396  0.00  0.00    +0.000 HD
ENDROOT
BRANCH   1  10
ATOM      9  N   UNL     1      50.068   7.607  16.632  0.00  0.00    +0.000 N 
ATOM     10  C   UNL     1      49.633   6.418  16.114  0.00  0.00    +0.000 C 
ATOM     11  O   UNL     1      50.039   5.349  16.550  0.00  0.00    +0.000 OA
ATOM     12  H   UNL     1      50.683   7.550  17.435  0.00  0.00    +0.000 HD
ATOM     13  H   UNL     1      49.583   8.480  16.482  0.00  0.00    +0.000 HD
ENDBRANCH   1  10
BRANCH   5  14
ATOM     14  C   UNL     1      44.642   6.526  11.846  0.00  0.00    +0.000 C 
BRANCH  14  15
ATOM     15  C   UNL     1      44.391   5.169  11.227  0.00  0.00    +0.000 A 
ATOM     16  C   UNL     1      43.424   4.318  11.761  0.00  0.00    +0.000 A 
ATOM     17  C   UNL     1      43.273   3.058  11.207  0.00  0.00    +0.000 A 
ATOM     18  N   UNL     1      44.002   2.598  10.168  0.00  0.00    +0.000 NA
ATOM     19  C   UNL     1      44.943   3.419   9.637  0.00  0.00    +0.000 A 
ATOM     20  C   UNL     1      45.177   4.687  10.169  0.00  0.00    +0.000 A 
BRANCH  19  21
ATOM     21  C   UNL     1      45.672   2.894   8.464  0.00  0.00    +0.000 A 
ATOM     22  C   UNL     1      46.110   1.562   8.393  0.00  0.00    +0.000 A 
ATOM     23  C   UNL     1      46.816   1.133   7.279  0.00  0.00    +0.000 A 
ATOM     24  N   UNL     1      47.118   1.924   6.230  0.00  0.00    +0.000 NA
ATOM     25  C   UNL     1      46.701   3.204   6.307  0.00  0.00    +0.000 A 
ATOM     26  C   UNL     1      45.990   3.723   7.377  0.00  0.00    +0.000 A 
ENDBRANCH  19  21
ENDBRANCH  14  15
ENDBRANCH   5  14
TORSDOF 4
ENDMDL
MODEL 6
REMARK VINA RESULT:    -6.924      2.991      7.125
REMARK INTER + INTRA:          -9.284
REMARK INTER:                  -8.616
REMARK INTRA:                  -0.668
REMARK UNBOUND:                -0.741
REMARK  Name = 
REMARK  4 active torsions:
REMARK  status: ('A' for Active; 'I' for Inactive)
REMARK    1  A    between atoms: C_2  and  C_4
REMARK    2  A    between atoms: N_8  and  C_9
REMARK    3  A    between atoms: C_9  and  C_10
REMARK    4  A    between atoms: C_14  and  C_15
REMARK                            x       y       z     vdW  Elec       q    Type
REMARK                         _______ _______ _______ _____ _____    ______ ____
ROOT
ATOM      1  C   UNL     1      47.558   9.765  11.974  0.00  0.00    +0.000 A 
ATOM      2  C   UNL     1      47.906   8.418  11.984  0.00  0.00    +0.000 A 
ATOM      3  C   UNL     1      46.902   7.459  12.109  0.00  0.00    +0.000 A 
ATOM      4  C   UNL     1      45.574   7.854  12.247  0.00  0.00    +0.000 A 
ATOM      5  N   UNL     1      44.521   6.963  12.280  0.00  0.00    +0.000 N 
ATOM      6  N   UNL     1      45.229   9.156  12.259  0.00  0.00    +0.000 NA
ATOM      7  C   UNL     1      46.217  10.083  12.128  0.00  0.00    +0.000 A 
ATOM      8  H   UNL     1      43.678   7.494  12.481  0.00  0.00    +0.000 HD
ENDROOT
BRANCH   1  10
ATOM      9  N   UNL     1      49.396  11.077  12.864  0.00  0.00    +0.000 N 
ATOM     10  C   UNL     1      48.548  10.848  11.817  0.00  0.00    +0.000 C 
ATOM     11  O   UNL     1      48.628  11.494  10.781  0.00  0.00    +0.000 OA
ATOM     12  H   UNL     1      50.131  11.756  12.707  0.00  0.00    +0.000 HD
ATOM     13  H   UNL     1      49.529  10.416  13.616  0.00  0.00    +0.000 HD
ENDBRANCH   1  10
BRANCH   5  14
ATOM     14  C   UNL     1      44.628   5.715  13.013  0.00  0.00    +0.000 C 
BRANCH  14  15
ATOM     15  C   UNL     1      44.339   4.539  12.108  0.00  0.00    +0.000 A 
ATOM     16  C   UNL     1      43.359   3.608  12.453  0.00  0.00    +0.000 A 
ATOM     17  C   UNL     1      43.172   2.510  11.631  0.00  0.00    +0.000 A 
ATOM     18  N   UNL     1      43.877   2.282  10.502  0.00  0.00    +0.000 NA
ATOM     19  C   UNL     1      44.830   3.183  10.154  0.00  0.00    +0.000 A 
ATOM     20  C   UNL     1      45.100   4.294  10.955  0.00  0.00    +0.000 A 
BRANCH  19  21
ATOM     21  C   UNL     1      45.532   2.923   8.880  0.00  0.00    +0.000 A 
ATOM     22  C   UNL     1      45.962   1.638   8.515  0.00  0.00    +0.000 A 
ATOM     23  C   UNL     1      46.643   1.458   7.320  0.00  0.00    +0.000 A 
ATOM     24  N   UNL     1      46.927   2.457   6.460  0.00  0.00    +0.000 NA
ATOM     25  C   UNL     1      46.518   3.690   6.819  0.00  0.00    +0.000 A 
ATOM     26  C   UNL     1      45.831   3.966   7.991  0.00  0.00    +0.000 A 
ENDBRANCH  19  21
ENDBRANCH  14  15
ENDBRANCH   5  14
TORSDOF 4
ENDMDL
MODEL 7
REMARK VINA RESULT:    -6.576      5.406      7.424
REMARK INTER + INTRA:          -8.856
REMARK INTER:                  -8.241
REMARK INTRA:                  -0.614
REMARK UNBOUND:                -0.741
REMARK  Name = 
REMARK  4 active torsions:
REMARK  status: ('A' for Active; 'I' for Inactive)
REMARK    1  A    between atoms: C_2  and  C_4
REMARK    2  A    between atoms: N_8  and  C_9
REMARK    3  A    between atoms: C_9  and  C_10
REMARK    4  A    between atoms: C_14  and  C_15
REMARK                            x       y       z     vdW  Elec       q    Type
REMARK                         _______ _______ _______ _____ _____    ______ ____
ROOT
ATOM      1  C   UNL     1      45.409   4.799  11.581  0.00  0.00    +0.000 A 
ATOM      2  C   UNL     1      45.973   5.756  12.417  0.00  0.00    +0.000 A 
ATOM      3  C   UNL     1      46.551   5.351  13.619  0.00  0.00    +0.000 A 
ATOM      4  C   UNL     1      46.538   4.006  13.979  0.00  0.00    +0.000 A 
ATOM      5  N   UNL     1      47.173   3.520  15.104  0.00  0.00    +0.000 N 
ATOM      6  N   UNL     1      45.977   3.074  13.186  0.00  0.00    +0.000 NA
ATOM      7  C   UNL     1      45.422   3.482  12.012  0.00  0.00    +0.000 A 
ATOM      8  H   UNL     1      46.933   2.536  15.188  0.00  0.00    +0.000 HD
ENDROOT
BRANCH   1  10
ATOM      9  N   UNL     1      43.493   5.530  10.281  0.00  0.00    +0.000 N 
ATOM     10  C   UNL     1      44.801   5.132  10.278  0.00  0.00    +0.000 C 
ATOM     11  O   UNL     1      45.448   5.083   9.240  0.00  0.00    +0.000 OA
ATOM     12  H   UNL     1      43.117   5.847   9.395  0.00  0.00    +0.000 HD
ATOM     13  H   UNL     1      43.012   5.823  11.119  0.00  0.00    +0.000 HD
ENDBRANCH   1  10
BRANCH   5  14
ATOM     14  C   UNL     1      47.130   4.254  16.356  0.00  0.00    +0.000 C 
BRANCH  14  15
ATOM     15  C   UNL     1      48.527   4.593  16.823  0.00  0.00    +0.000 A 
ATOM     16  C   UNL     1      48.941   5.923  16.902  0.00  0.00    +0.000 A 
ATOM     17  C   UNL     1      50.249   6.187  17.269  0.00  0.00    +0.000 A 
ATOM     18  N   UNL     1      51.157   5.235  17.568  0.00  0.00    +0.000 NA
ATOM     19  C   UNL     1      50.765   3.937  17.500  0.00  0.00    +0.000 A 
ATOM     20  C   UNL     1      49.473   3.594  17.100  0.00  0.00    +0.000 A 
BRANCH  19  21
ATOM     21  C   UNL     1      51.776   2.934  17.895  0.00  0.00    +0.000 A 
ATOM     22  C   UNL     1      52.882   3.264  18.694  0.00  0.00    +0.000 A 
ATOM     23  C   UNL     1      53.814   2.287  19.009  0.00  0.00    +0.000 A 
ATOM     24  N   UNL     1      53.731   1.008  18.593  0.00  0.00    +0.000 NA
ATOM     25  C   UNL     1      52.671   0.698  17.820  0.00  0.00    +0.000 A 
ATOM     26  C   UNL     1      51.688   1.605  17.454  0.00  0.00    +0.000 A 
ENDBRANCH  19  21
ENDBRANCH  14  15
ENDBRANCH   5  14
TORSDOF 4
ENDMDL
MODEL 8
REMARK VINA RESULT:    -6.543      4.897      8.128
REMARK INTER + INTRA:          -8.815
REMARK INTER:                  -8.195
REMARK INTRA:                  -0.620
REMARK UNBOUND:                -0.741
REMARK  Name = 
REMARK  4 active torsions:
REMARK  status: ('A' for Active; 'I' for Inactive)
REMARK    1  A    between atoms: C_2  and  C_4
REMARK    2  A    between atoms: N_8  and  C_9
REMARK    3  A    between atoms: C_9  and  C_10
REMARK    4  A    between atoms: C_14  and  C_15
REMARK                            x       y       z     vdW  Elec       q    Type
REMARK                         _______ _______ _______ _____ _____    ______ ____
ROOT
ATOM      1  C   UNL     1      51.193   2.421  17.473  0.00  0.00    +0.000 A 
ATOM      2  C   UNL     1      51.502   3.771  17.597  0.00  0.00    +0.000 A 
ATOM      3  C   UNL     1      50.546   4.722  17.245  0.00  0.00    +0.000 A 
ATOM      4  C   UNL     1      49.309   4.316  16.753  0.00  0.00    +0.000 A 
ATOM      5  N   UNL     1      48.282   5.194  16.474  0.00  0.00    +0.000 N 
ATOM      6  N   UNL     1      49.006   3.011  16.610  0.00  0.00    +0.000 NA
ATOM      7  C   UNL     1      49.945   2.092  16.965  0.00  0.00    +0.000 A 
ATOM      8  H   UNL     1      47.531   4.661  16.044  0.00  0.00    +0.000 HD
ENDROOT
BRANCH   1  10
ATOM      9  N   UNL     1      51.593   0.121  18.140  0.00  0.00    +0.000 N 
ATOM     10  C   UNL     1      52.130   1.345  17.850  0.00  0.00    +0.000 C 
ATOM     11  O   UNL     1      53.339   1.530  17.871  0.00  0.00    +0.000 OA
ATOM     12  H   UNL     1      52.252  -0.631  18.302  0.00  0.00    +0.000 HD
ATOM     13  H   UNL     1      50.649  -0.136  17.892  0.00  0.00    +0.000 HD
ENDBRANCH   1  10
BRANCH   5  14
ATOM     14  C   UNL     1      48.550   6.469  15.834  0.00  0.00    +0.000 C 
BRANCH  14  15
ATOM     15  C   UNL     1      48.087   6.451  14.395  0.00  0.00    +0.000 A 
ATOM     16  C   UNL     1      48.771   7.183  13.424  0.00  0.00    +0.000 A 
ATOM     17  C   UNL     1      48.275   7.193  12.132  0.00  0.00    +0.000 A 
ATOM     18  N   UNL     1      47.166   6.528  11.743  0.00  0.00    +0.000 NA
ATOM     19  C   UNL     1      46.495   5.808  12.677  0.00  0.00    +0.000 A 
ATOM     20  C   UNL     1      46.915   5.783  14.007  0.00  0.00    +0.000 A 
BRANCH  19  21
ATOM     21  C   UNL     1      45.324   5.048  12.191  0.00  0.00    +0.000 A 
ATOM     22  C   UNL     1      45.122   3.699  12.520  0.00  0.00    +0.000 A 
ATOM     23  C   UNL     1      44.020   3.028  12.010  0.00  0.00    +0.000 A 
ATOM     24  N   UNL     1      43.104   3.595  11.201  0.00  0.00    +0.000 NA
ATOM     25  C   UNL     1      43.307   4.889  10.882  0.00  0.00    +0.000 A 
ATOM     26  C   UNL     1      44.377   5.641  11.344  0.00  0.00    +0.000 A 
ENDBRANCH  19  21
ENDBRANCH  14  15
ENDBRANCH   5  14
TORSDOF 4
ENDMDL
MODEL 9
REMARK VINA RESULT:    -6.122      4.615      8.196
REMARK INTER + INTRA:          -8.295
REMARK INTER:                  -7.841
REMARK INTRA:                  -0.454
REMARK UNBOUND:                -0.741
REMARK  Name = 
REMARK  4 active torsions:
REMARK  status: ('A' for Active; 'I' for Inactive)
REMARK    1  A    between atoms: C_2  and  C_4
REMARK    2  A    between atoms: N_8  and  C_9
REMARK    3  A    between atoms: C_9  and  C_10
REMARK    4  A    between atoms: C_14  and  C_15
REMARK                            x       y       z     vdW  Elec       q    Type
REMARK                         _______ _______ _______ _____ _____    ______ ____
ROOT
ATOM      1  C   UNL     1      50.854   5.221  17.486  0.00  0.00    +0.000 A 
ATOM      2  C   UNL     1      51.200   6.348  16.750  0.00  0.00    +0.000 A 
ATOM      3  C   UNL     1      50.254   6.921  15.901  0.00  0.00    +0.000 A 
ATOM      4  C   UNL     1      48.990   6.351  15.782  0.00  0.00    +0.000 A 
ATOM      5  N   UNL     1      47.974   6.915  15.037  0.00  0.00    +0.000 N 
ATOM      6  N   UNL     1      48.651   5.247  16.475  0.00  0.00    +0.000 NA
ATOM      7  C   UNL     1      49.581   4.701  17.306  0.00  0.00    +0.000 A 
ATOM      8  H   UNL     1      47.196   6.261  15.036  0.00  0.00    +0.000 HD
ENDROOT
BRANCH   1  10
ATOM      9  N   UNL     1      51.700   3.204  18.540  0.00  0.00    +0.000 N 
ATOM     10  C   UNL     1      51.779   4.564  18.430  0.00  0.00    +0.000 C 
ATOM     11  O   UNL     1      52.604   5.206  19.067  0.00  0.00    +0.000 OA
ATOM     12  H   UNL     1      52.403   2.757  19.117  0.00  0.00    +0.000 HD
ATOM     13  H   UNL     1      51.222   2.626  17.863  0.00  0.00    +0.000 HD
ENDBRANCH   1  10
BRANCH   5  14
ATOM     14  C   UNL     1      48.248   7.516  13.744  0.00  0.00    +0.000 C 
BRANCH  14  15
ATOM     15  C   UNL     1      47.031   7.437  12.851  0.00  0.00    +0.000 A 
ATOM     16  C   UNL     1      46.118   8.490  12.808  0.00  0.00    +0.000 A 
ATOM     17  C   UNL     1      44.982   8.349  12.029  0.00  0.00    +0.000 A 
ATOM     18  N   UNL     1      44.701   7.252  11.294  0.00  0.00    +0.000 NA
ATOM     19  C   UNL     1      45.585   6.222  11.324  0.00  0.00    +0.000 A 
ATOM     20  C   UNL     1      46.732   6.279  12.117  0.00  0.00    +0.000 A 
BRANCH  19  21
ATOM     21  C   UNL     1      45.265   5.070  10.457  0.00  0.00    +0.000 A 
ATOM     22  C   UNL     1      45.669   5.012   9.114  0.00  0.00    +0.000 A 
ATOM     23  C   UNL     1      45.315   3.918   8.339  0.00  0.00    +0.000 A 
ATOM     24  N   UNL     1      44.591   2.877   8.796  0.00  0.00    +0.000 NA
ATOM     25  C   UNL     1      44.200   2.941  10.084  0.00  0.00    +0.000 A 
ATOM     26  C   UNL     1      44.506   3.991  10.935  0.00  0.00    +0.000 A 
ENDBRANCH  19  21
ENDBRANCH  14  15
ENDBRANCH   5  14
TORSDOF 4
ENDMDL
