MODEL 1
REMARK VINA RESULT:    -9.770      0.000      0.000
REMARK INTER + INTRA:         -14.227
REMARK INTER:                 -13.197
REMARK INTRA:                  -1.030
REMARK UNBOUND:                -1.030
REMARK  Name = 
REMARK  6 active torsions:
REMARK  status: ('A' for Active; 'I' for Inactive)
REMARK    1  A    between atoms: C_2  and  C_4
REMARK    2  A    between atoms: N_8  and  C_9
REMARK    3  A    between atoms: C_9  and  C_10
REMARK    4  A    between atoms: C_10  and  C_13
REMARK    5  A    between atoms: C_18  and  O_19
REMARK    6  A    between atoms: O_19  and  C_20
REMARK                            x       y       z     vdW  Elec       q    Type
REMARK                         _______ _______ _______ _____ _____    ______ ____
ROOT
ATOM      1  C   UNL     1      43.120   5.587  12.097  0.00  0.00    +0.000 C 
ATOM      2  F   UNL     1      42.424   6.669  11.647  0.00  0.00    +0.000 F 
ATOM      3  F   UNL     1      42.433   5.130  13.182  0.00  0.00    +0.000 F 
ENDROOT
BRANCH   1   4
ATOM      4  C   UNL     1      44.563   5.928  12.441  0.00  0.00    +0.000 A 
ATOM      5  C   UNL     1      45.120   7.163  12.085  0.00  0.00    +0.000 A 
ATOM      6  C   UNL     1      46.478   7.408  12.302  0.00  0.00    +0.000 A 
ATOM      7  C   UNL     1      47.287   6.425  12.882  0.00  0.00    +0.000 A 
ATOM      8 CL   UNL     1      48.968   6.770  13.074  0.00  0.00    +0.000 Cl
ATOM      9  C   UNL     1      46.739   5.198  13.276  0.00  0.00    +0.000 A 
ATOM     10  C   UNL     1      45.380   4.958  13.049  0.00  0.00    +0.000 A 
BRANCH   9  11
ATOM     11  O   UNL     1      47.586   4.257  13.819  0.00  0.00    +0.000 OA
BRANCH  11  12
ATOM     12  C   UNL     1      47.247   3.668  15.086  0.00  0.00    +0.000 C 
ATOM     13  C   UNL     1      47.561   4.479  16.363  0.00  0.00    +0.000 C 
ATOM     14  C   UNL     1      48.037   3.129  16.925  0.00  0.00    +0.000 C 
ATOM     15  N   UNL     1      48.283   2.705  15.530  0.00  0.00    +0.000 NA
ATOM     16  H   UNL     1      48.062   1.734  15.324  0.00  0.00    +0.000 HD
ENDBRANCH  11  12
ENDBRANCH   9  11
ENDBRANCH   1   4
BRANCH   1  17
ATOM     17  C   UNL     1      43.118   4.494  10.997  0.00  0.00    +0.000 C 
BRANCH  17  22
ATOM     18  C   UNL     1      46.393   2.308   7.712  0.00  0.00    +0.000 A 
ATOM     19  C   UNL     1      45.624   1.770   8.738  0.00  0.00    +0.000 A 
ATOM     20  C   UNL     1      44.763   2.606   9.448  0.00  0.00    +0.000 A 
ATOM     21  C   UNL     1      44.692   3.964   9.141  0.00  0.00    +0.000 A 
ATOM     22  N   UNL     1      43.859   4.838   9.789  0.00  0.00    +0.000 N 
ATOM     23  N   UNL     1      45.438   4.492   8.153  0.00  0.00    +0.000 NA
ATOM     24  C   UNL     1      46.272   3.665   7.466  0.00  0.00    +0.000 A 
ATOM     25  H   UNL     1      43.985   5.811   9.526  0.00  0.00    +0.000 HD
BRANCH  18  27
ATOM     26  N   UNL     1      48.488   2.119   6.488  0.00  0.00    +0.000 N 
ATOM     27  C   UNL     1      47.342   1.505   6.916  0.00  0.00    +0.000 C 
ATOM     28  O   UNL     1      47.126   0.328   6.658  0.00  0.00    +0.000 OA
ATOM     29  H   UNL     1      49.161   1.532   6.010  0.00  0.00    +0.000 HD
ATOM     30  H   UNL     1      48.819   2.994   6.868  0.00  0.00    +0.000 HD
ENDBRANCH  18  27
ENDBRANCH  17  22
ENDBRANCH   1  17
TORSDOF 6
ENDMDL
MODEL 2
REMARK VINA RESULT:    -8.770      2.447      4.111
REMARK INTER + INTRA:         -12.876
REMARK INTER:                 -12.210
REMARK INTRA:                  -0.667
REMARK UNBOUND:                -1.030
REMARK  Name = 
REMARK  6 active torsions:
REMARK  status: ('A' for Active; 'I' for Inactive)
REMARK    1  A    between atoms: C_2  and  C_4
REMARK    2  A    between atoms: N_8  and  C_9
REMARK    3  A    between atoms: C_9  and  C_10
REMARK    4  A    between atoms: C_10  and  C_13
REMARK    5  A    between atoms: C_18  and  O_19
REMARK    6  A    between atoms: O_19  and  C_20
REMARK                            x       y       z     vdW  Elec       q    Type
REMARK                         _______ _______ _______ _____ _____    ______ ____
ROOT
ATOM      1  C   UNL     1      43.639   4.750  12.398  0.00  0.00    +0.000 C 
ATOM      2  F   UNL     1      42.697   5.248  13.249  0.00  0.00    +0.000 F 
ATOM      3  F   UNL     1      43.960   3.517  12.883  0.00  0.00    +0.000 F 
ENDROOT
BRANCH   1   4
ATOM      4  C   UNL     1      44.860   5.654  12.292  0.00  0.00    +0.000 A 
ATOM      5  C   UNL     1      46.145   5.170  12.565  0.00  0.00    +0.000 A 
ATOM      6  C   UNL     1      47.234   6.044  12.580  0.00  0.00    +0.000 A 
ATOM      7  C   UNL     1      47.049   7.406  12.316  0.00  0.00    +0.000 A 
ATOM      8 CL   UNL     1      48.427   8.443  12.403  0.00  0.00    +0.000 Cl
ATOM      9  C   UNL     1      45.776   7.900  12.006  0.00  0.00    +0.000 A 
ATOM     10  C   UNL     1      44.689   7.019  12.001  0.00  0.00    +0.000 A 
BRANCH   9  11
ATOM     11  O   UNL     1      45.645   9.252  11.780  0.00  0.00    +0.000 OA
BRANCH  11  12
ATOM     12  C   UNL     1      44.401   9.751  11.258  0.00  0.00    +0.000 C 
ATOM     13  C   UNL     1      44.442  11.037  10.403  0.00  0.00    +0.000 C 
ATOM     14  C   UNL     1      43.184  11.427  11.197  0.00  0.00    +0.000 C 
ATOM     15  N   UNL     1      43.663  10.537  12.275  0.00  0.00    +0.000 NA
ATOM     16  H   UNL     1      42.940  10.012  12.760  0.00  0.00    +0.000 HD
ENDBRANCH  11  12
ENDBRANCH   9  11
ENDBRANCH   1   4
BRANCH   1  17
ATOM     17  C   UNL     1      43.014   4.595  10.988  0.00  0.00    +0.000 C 
BRANCH  17  22
ATOM     18  C   UNL     1      46.400   2.521   7.744  0.00  0.00    +0.000 A 
ATOM     19  C   UNL     1      45.513   1.939   8.642  0.00  0.00    +0.000 A 
ATOM     20  C   UNL     1      44.653   2.760   9.372  0.00  0.00    +0.000 A 
ATOM     21  C   UNL     1      44.700   4.144   9.211  0.00  0.00    +0.000 A 
ATOM     22  N   UNL     1      43.876   5.006   9.886  0.00  0.00    +0.000 N 
ATOM     23  N   UNL     1      45.561   4.714   8.348  0.00  0.00    +0.000 NA
ATOM     24  C   UNL     1      46.393   3.901   7.641  0.00  0.00    +0.000 A 
ATOM     25  H   UNL     1      44.090   5.989   9.742  0.00  0.00    +0.000 HD
BRANCH  18  27
ATOM     26  N   UNL     1      48.331   2.421   6.266  0.00  0.00    +0.000 N 
ATOM     27  C   UNL     1      47.358   1.736   6.939  0.00  0.00    +0.000 C 
ATOM     28  O   UNL     1      47.297   0.514   6.886  0.00  0.00    +0.000 OA
ATOM     29  H   UNL     1      49.023   1.862   5.783  0.00  0.00    +0.000 HD
ATOM     30  H   UNL     1      48.566   3.383   6.466  0.00  0.00    +0.000 HD
ENDBRANCH  18  27
ENDBRANCH  17  22
ENDBRANCH   1  17
TORSDOF 6
ENDMDL
MODEL 3
REMARK VINA RESULT:    -8.737      2.149      3.580
REMARK INTER + INTRA:         -12.831
REMARK INTER:                 -11.892
REMARK INTRA:                  -0.939
REMARK UNBOUND:                -1.030
REMARK  Name = 
REMARK  6 active torsions:
REMARK  status: ('A' for Active; 'I' for Inactive)
REMARK    1  A    between atoms: C_2  and  C_4
REMARK    2  A    between atoms: N_8  and  C_9
REMARK    3  A    between atoms: C_9  and  C_10
REMARK    4  A    between atoms: C_10  and  C_13
REMARK    5  A    between atoms: C_18  and  O_19
REMARK    6  A    between atoms: O_19  and  C_20
REMARK                            x       y       z     vdW  Elec       q    Type
REMARK                         _______ _______ _______ _____ _____    ______ ____
ROOT
ATOM      1  C   UNL     1      43.250   5.804  11.965  0.00  0.00    +0.000 C 
ATOM      2  F   UNL     1      42.698   6.918  11.404  0.00  0.00    +0.000 F 
ATOM      3  F   UNL     1      42.417   5.453  12.986  0.00  0.00    +0.000 F 
ENDROOT
BRANCH   1   4
ATOM      4  C   UNL     1      44.673   6.045  12.449  0.00  0.00    +0.000 A 
ATOM      5  C   UNL     1      45.481   4.985  12.877  0.00  0.00    +0.000 A 
ATOM      6  C   UNL     1      46.738   5.241  13.430  0.00  0.00    +0.000 A 
ATOM      7  C   UNL     1      47.199   6.556  13.554  0.00  0.00    +0.000 A 
ATOM      8 CL   UNL     1      48.738   6.809  14.295  0.00  0.00    +0.000 Cl
ATOM      9  C   UNL     1      46.418   7.626  13.098  0.00  0.00    +0.000 A 
ATOM     10  C   UNL     1      45.158   7.361  12.552  0.00  0.00    +0.000 A 
BRANCH   9  11
ATOM     11  O   UNL     1      46.908   8.902  13.267  0.00  0.00    +0.000 OA
BRANCH  11  12
ATOM     12  C   UNL     1      47.011   9.762  12.120  0.00  0.00    +0.000 C 
ATOM     13  C   UNL     1      48.424  10.084  11.585  0.00  0.00    +0.000 C 
ATOM     14  C   UNL     1      47.881  11.516  11.438  0.00  0.00    +0.000 C 
ATOM     15  N   UNL     1      46.909  11.191  12.503  0.00  0.00    +0.000 NA
ATOM     16  H   UNL     1      45.981  11.587  12.383  0.00  0.00    +0.000 HD
ENDBRANCH  11  12
ENDBRANCH   9  11
ENDBRANCH   1   4
BRANCH   1  17
ATOM     17  C   UNL     1      43.270   4.666  10.912  0.00  0.00    +0.000 C 
BRANCH  17  22
ATOM     18  C   UNL     1      46.450   2.299   7.660  0.00  0.00    +0.000 A 
ATOM     19  C   UNL     1      45.655   1.808   8.689  0.00  0.00    +0.000 A 
ATOM     20  C   UNL     1      44.832   2.690   9.388  0.00  0.00    +0.000 A 
ATOM     21  C   UNL     1      44.823   4.046   9.066  0.00  0.00    +0.000 A 
ATOM     22  N   UNL     1      44.029   4.964   9.703  0.00  0.00    +0.000 N 
ATOM     23  N   UNL     1      45.595   4.530   8.075  0.00  0.00    +0.000 NA
ATOM     24  C   UNL     1      46.392   3.658   7.399  0.00  0.00    +0.000 A 
ATOM     25  H   UNL     1      44.200   5.927   9.430  0.00  0.00    +0.000 HD
BRANCH  18  27
ATOM     26  N   UNL     1      48.466   2.039   6.321  0.00  0.00    +0.000 N 
ATOM     27  C   UNL     1      47.365   1.446   6.874  0.00  0.00    +0.000 C 
ATOM     28  O   UNL     1      47.158   0.248   6.733  0.00  0.00    +0.000 OA
ATOM     29  H   UNL     1      49.120   1.424   5.852  0.00  0.00    +0.000 HD
ATOM     30  H   UNL     1      48.802   2.949   6.603  0.00  0.00    +0.000 HD
ENDBRANCH  18  27
ENDBRANCH  17  22
ENDBRANCH   1  17
TORSDOF 6
ENDMDL
MODEL 4
REMARK VINA RESULT:    -8.482      1.771      2.045
REMARK INTER + INTRA:         -12.487
REMARK INTER:                 -12.046
REMARK INTRA:                  -0.441
REMARK UNBOUND:                -1.030
REMARK  Name = 
REMARK  6 active torsions:
REMARK  status: ('A' for Active; 'I' for Inactive)
REMARK    1  A    between atoms: C_2  and  C_4
REMARK    2  A    between atoms: N_8  and  C_9
REMARK    3  A    between atoms: C_9  and  C_10
REMARK    4  A    between atoms: C_10  and  C_13
REMARK    5  A    between atoms: C_18  and  O_19
REMARK    6  A    between atoms: O_19  and  C_20
REMARK                            x       y       z     vdW  Elec       q    Type
REMARK                         _______ _______ _______ _____ _____    ______ ____
ROOT
ATOM      1  C   UNL     1      43.764   4.624  12.516  0.00  0.00    +0.000 C 
ATOM      2  F   UNL     1      42.782   4.834  13.437  0.00  0.00    +0.000 F 
ATOM      3  F   UNL     1      44.358   3.449  12.869  0.00  0.00    +0.000 F 
ENDROOT
BRANCH   1   4
ATOM      4  C   UNL     1      44.763   5.772  12.462  0.00  0.00    +0.000 A 
ATOM      5  C   UNL     1      44.433   6.990  11.855  0.00  0.00    +0.000 A 
ATOM      6  C   UNL     1      45.403   7.985  11.710  0.00  0.00    +0.000 A 
ATOM      7  C   UNL     1      46.705   7.774  12.176  0.00  0.00    +0.000 A 
ATOM      8 CL   UNL     1      47.871   9.021  11.918  0.00  0.00    +0.000 Cl
ATOM      9  C   UNL     1      47.042   6.575  12.817  0.00  0.00    +0.000 A 
ATOM     10  C   UNL     1      46.067   5.580  12.952  0.00  0.00    +0.000 A 
BRANCH   9  11
ATOM     11  O   UNL     1      48.344   6.408  13.234  0.00  0.00    +0.000 OA
BRANCH  11  12
ATOM     12  C   UNL     1      48.660   6.613  14.622  0.00  0.00    +0.000 C 
ATOM     13  C   UNL     1      48.475   8.032  15.201  0.00  0.00    +0.000 C 
ATOM     14  C   UNL     1      49.815   7.758  15.906  0.00  0.00    +0.000 C 
ATOM     15  N   UNL     1      50.117   6.797  14.825  0.00  0.00    +0.000 NA
ATOM     16  H   UNL     1      50.605   5.954  15.114  0.00  0.00    +0.000 HD
ENDBRANCH  11  12
ENDBRANCH   9  11
ENDBRANCH   1   4
BRANCH   1  17
ATOM     17  C   UNL     1      43.117   4.464  11.115  0.00  0.00    +0.000 C 
BRANCH  17  22
ATOM     18  C   UNL     1      46.440   2.485   7.749  0.00  0.00    +0.000 A 
ATOM     19  C   UNL     1      45.579   1.878   8.656  0.00  0.00    +0.000 A 
ATOM     20  C   UNL     1      44.731   2.676   9.423  0.00  0.00    +0.000 A 
ATOM     21  C   UNL     1      44.763   4.064   9.289  0.00  0.00    +0.000 A 
ATOM     22  N   UNL     1      43.949   4.905  10.002  0.00  0.00    +0.000 N 
ATOM     23  N   UNL     1      45.598   4.658   8.417  0.00  0.00    +0.000 NA
ATOM     24  C   UNL     1      46.418   3.868   7.674  0.00  0.00    +0.000 A 
ATOM     25  H   UNL     1      44.150   5.892   9.873  0.00  0.00    +0.000 HD
BRANCH  18  27
ATOM     26  N   UNL     1      48.493   2.381   6.445  0.00  0.00    +0.000 N 
ATOM     27  C   UNL     1      47.383   1.725   6.905  0.00  0.00    +0.000 C 
ATOM     28  O   UNL     1      47.194   0.546   6.635  0.00  0.00    +0.000 OA
ATOM     29  H   UNL     1      49.165   1.823   5.933  0.00  0.00    +0.000 HD
ATOM     30  H   UNL     1      48.811   3.260   6.828  0.00  0.00    +0.000 HD
ENDBRANCH  18  27
ENDBRANCH  17  22
ENDBRANCH   1  17
TORSDOF 6
ENDMDL
MODEL 5
REMARK VINA RESULT:    -7.771      2.921      7.599
REMARK INTER + INTRA:         -11.527
REMARK INTER:                 -10.739
REMARK INTRA:                  -0.788
REMARK UNBOUND:                -1.030
REMARK  Name = 
REMARK  6 active torsions:
REMARK  status: ('A' for Active; 'I' for Inactive)
REMARK    1  A    between atoms: C_2  and  C_4
REMARK    2  A    between atoms: N_8  and  C_9
REMARK    3  A    between atoms: C_9  and  C_10
REMARK    4  A    between atoms: C_10  and  C_13
REMARK    5  A    between atoms: C_18  and  O_19
REMARK    6  A    between atoms: O_19  and  C_20
REMARK                            x       y       z     vdW  Elec       q    Type
REMARK                         _______ _______ _______ _____ _____    ______ ____
ROOT
ATOM      1  C   UNL     1      46.136   6.619  11.647  0.00  0.00    +0.000 C 
ATOM      2  F   UNL     1      45.495   7.755  11.250  0.00  0.00    +0.000 F 
ATOM      3  F   UNL     1      47.453   6.816  11.356  0.00  0.00    +0.000 F 
ENDROOT
BRANCH   1   4
ATOM      4  C   UNL     1      45.582   5.375  10.966  0.00  0.00    +0.000 A 
ATOM      5  C   UNL     1      45.046   4.319  11.713  0.00  0.00    +0.000 A 
ATOM      6  C   UNL     1      44.656   3.138  11.077  0.00  0.00    +0.000 A 
ATOM      7  C   UNL     1      44.792   3.006   9.691  0.00  0.00    +0.000 A 
ATOM      8 CL   UNL     1      44.343   1.502   8.972  0.00  0.00    +0.000 Cl
ATOM      9  C   UNL     1      45.294   4.066   8.924  0.00  0.00    +0.000 A 
ATOM     10  C   UNL     1      45.689   5.242   9.570  0.00  0.00    +0.000 A 
BRANCH   9  11
ATOM     11  O   UNL     1      45.431   3.874   7.568  0.00  0.00    +0.000 OA
BRANCH  11  12
ATOM     12  C   UNL     1      46.737   3.593   7.035  0.00  0.00    +0.000 C 
ATOM     13  C   UNL     1      46.831   3.128   5.566  0.00  0.00    +0.000 C 
ATOM     14  C   UNL     1      47.866   2.125   6.105  0.00  0.00    +0.000 C 
ATOM     15  N   UNL     1      47.199   2.238   7.419  0.00  0.00    +0.000 NA
ATOM     16  H   UNL     1      47.818   2.223   8.225  0.00  0.00    +0.000 HD
ENDBRANCH  11  12
ENDBRANCH   9  11
ENDBRANCH   1   4
BRANCH   1  17
ATOM     17  C   UNL     1      45.973   6.459  13.181  0.00  0.00    +0.000 C 
BRANCH  17  22
ATOM     18  C   UNL     1      48.528   3.965  16.861  0.00  0.00    +0.000 A 
ATOM     19  C   UNL     1      47.422   3.601  16.101  0.00  0.00    +0.000 A 
ATOM     20  C   UNL     1      46.963   4.471  15.113  0.00  0.00    +0.000 A 
ATOM     21  C   UNL     1      47.598   5.695  14.906  0.00  0.00    +0.000 A 
ATOM     22  N   UNL     1      47.208   6.590  13.945  0.00  0.00    +0.000 N 
ATOM     23  N   UNL     1      48.666   6.056  15.642  0.00  0.00    +0.000 NA
ATOM     24  C   UNL     1      49.105   5.197  16.601  0.00  0.00    +0.000 A 
ATOM     25  H   UNL     1      47.700   7.478  13.975  0.00  0.00    +0.000 HD
BRANCH  18  27
ATOM     26  N   UNL     1      48.505   3.217  19.177  0.00  0.00    +0.000 N 
ATOM     27  C   UNL     1      49.076   3.117  17.938  0.00  0.00    +0.000 C 
ATOM     28  O   UNL     1      49.998   2.339  17.732  0.00  0.00    +0.000 OA
ATOM     29  H   UNL     1      48.843   2.573  19.882  0.00  0.00    +0.000 HD
ATOM     30  H   UNL     1      47.608   3.654  19.336  0.00  0.00    +0.000 HD
ENDBRANCH  18  27
ENDBRANCH  17  22
ENDBRANCH   1  17
TORSDOF 6
ENDMDL
MODEL 6
REMARK VINA RESULT:    -7.205      2.768      6.829
REMARK INTER + INTRA:         -10.762
REMARK INTER:                  -9.966
REMARK INTRA:                  -0.796
REMARK UNBOUND:                -1.030
REMARK  Name = 
REMARK  6 active torsions:
REMARK  status: ('A' for Active; 'I' for Inactive)
REMARK    1  A    between atoms: C_2  and  C_4
REMARK    2  A    between atoms: N_8  and  C_9
REMARK    3  A    between atoms: C_9  and  C_10
REMARK    4  A    between atoms: C_10  and  C_13
REMARK    5  A    between atoms: C_18  and  O_19
REMARK    6  A    between atoms: O_19  and  C_20
REMARK                            x       y       z     vdW  Elec       q    Type
REMARK                         _______ _______ _______ _____ _____    ______ ____
ROOT
ATOM      1  C   UNL     1      45.506   7.570  12.018  0.00  0.00    +0.000 C 
ATOM      2  F   UNL     1      45.255   8.183  13.209  0.00  0.00    +0.000 F 
ATOM      3  F   UNL     1      45.125   8.459  11.056  0.00  0.00    +0.000 F 
ENDROOT
BRANCH   1   4
ATOM      4  C   UNL     1      44.775   6.241  11.885  0.00  0.00    +0.000 A 
ATOM      5  C   UNL     1      44.109   5.669  12.975  0.00  0.00    +0.000 A 
ATOM      6  C   UNL     1      43.550   4.394  12.864  0.00  0.00    +0.000 A 
ATOM      7  C   UNL     1      43.645   3.684  11.662  0.00  0.00    +0.000 A 
ATOM      8 CL   UNL     1      42.981   2.092  11.605  0.00  0.00    +0.000 Cl
ATOM      9  C   UNL     1      44.277   4.256  10.550  0.00  0.00    +0.000 A 
ATOM     10  C   UNL     1      44.842   5.531  10.672  0.00  0.00    +0.000 A 
BRANCH   9  11
ATOM     11  O   UNL     1      44.366   3.505   9.400  0.00  0.00    +0.000 OA
BRANCH  11  12
ATOM     12  C   UNL     1      45.639   2.946   9.033  0.00  0.00    +0.000 C 
ATOM     13  C   UNL     1      46.035   2.973   7.540  0.00  0.00    +0.000 C 
ATOM     14  C   UNL     1      46.538   1.543   7.800  0.00  0.00    +0.000 C 
ATOM     15  N   UNL     1      45.569   1.470   8.913  0.00  0.00    +0.000 NA
ATOM     16  H   UNL     1      45.889   0.971   9.739  0.00  0.00    +0.000 HD
ENDBRANCH  11  12
ENDBRANCH   9  11
ENDBRANCH   1   4
BRANCH   1  17
ATOM     17  C   UNL     1      47.030   7.312  11.895  0.00  0.00    +0.000 C 
BRANCH  17  22
ATOM     18  C   UNL     1      47.713   4.323  16.005  0.00  0.00    +0.000 A 
ATOM     19  C   UNL     1      47.111   4.074  14.778  0.00  0.00    +0.000 A 
ATOM     20  C   UNL     1      47.117   5.074  13.805  0.00  0.00    +0.000 A 
ATOM     21  C   UNL     1      47.705   6.309  14.073  0.00  0.00    +0.000 A 
ATOM     22  N   UNL     1      47.758   7.329  13.159  0.00  0.00    +0.000 N 
ATOM     23  N   UNL     1      48.285   6.559  15.261  0.00  0.00    +0.000 NA
ATOM     24  C   UNL     1      48.274   5.574  16.200  0.00  0.00    +0.000 A 
ATOM     25  H   UNL     1      48.129   8.201  13.525  0.00  0.00    +0.000 HD
BRANCH  18  27
ATOM     26  N   UNL     1      48.964   2.999  17.619  0.00  0.00    +0.000 N 
ATOM     27  C   UNL     1      47.743   3.333  17.100  0.00  0.00    +0.000 C 
ATOM     28  O   UNL     1      46.716   2.838  17.543  0.00  0.00    +0.000 OA
ATOM     29  H   UNL     1      48.958   2.378  18.419  0.00  0.00    +0.000 HD
ATOM     30  H   UNL     1      49.799   3.544  17.458  0.00  0.00    +0.000 HD
ENDBRANCH  18  27
ENDBRANCH  17  22
ENDBRANCH   1  17
TORSDOF 6
ENDMDL
MODEL 7
REMARK VINA RESULT:    -6.770      3.391      4.615
REMARK INTER + INTRA:         -10.175
REMARK INTER:                  -9.278
REMARK INTRA:                  -0.896
REMARK UNBOUND:                -1.030
REMARK  Name = 
REMARK  6 active torsions:
REMARK  status: ('A' for Active; 'I' for Inactive)
REMARK    1  A    between atoms: C_2  and  C_4
REMARK    2  A    between atoms: N_8  and  C_9
REMARK    3  A    between atoms: C_9  and  C_10
REMARK    4  A    between atoms: C_10  and  C_13
REMARK    5  A    between atoms: C_18  and  O_19
REMARK    6  A    between atoms: O_19  and  C_20
REMARK                            x       y       z     vdW  Elec       q    Type
REMARK                         _______ _______ _______ _____ _____    ______ ____
ROOT
ATOM      1  C   UNL     1      47.639   8.614  12.390  0.00  0.00    +0.000 C 
ATOM      2  F   UNL     1      48.047   7.610  11.563  0.00  0.00    +0.000 F 
ATOM      3  F   UNL     1      48.204   9.753  11.898  0.00  0.00    +0.000 F 
ENDROOT
BRANCH   1   4
ATOM      4  C   UNL     1      48.031   8.366  13.841  0.00  0.00    +0.000 A 
ATOM      5  C   UNL     1      48.206   9.428  14.735  0.00  0.00    +0.000 A 
ATOM      6  C   UNL     1      48.682   9.185  16.026  0.00  0.00    +0.000 A 
ATOM      7  C   UNL     1      48.980   7.880  16.434  0.00  0.00    +0.000 A 
ATOM      8 CL   UNL     1      49.617   7.653  18.022  0.00  0.00    +0.000 Cl
ATOM      9  C   UNL     1      48.778   6.802  15.562  0.00  0.00    +0.000 A 
ATOM     10  C   UNL     1      48.307   7.055  14.269  0.00  0.00    +0.000 A 
BRANCH   9  11
ATOM     11  O   UNL     1      49.111   5.542  16.005  0.00  0.00    +0.000 OA
BRANCH  11  12
ATOM     12  C   UNL     1      48.090   4.722  16.598  0.00  0.00    +0.000 C 
ATOM     13  C   UNL     1      48.381   4.093  17.978  0.00  0.00    +0.000 C 
ATOM     14  C   UNL     1      47.725   2.837  17.379  0.00  0.00    +0.000 C 
ATOM     15  N   UNL     1      48.110   3.346  16.046  0.00  0.00    +0.000 NA
ATOM     16  H   UNL     1      47.433   3.186  15.305  0.00  0.00    +0.000 HD
ENDBRANCH  11  12
ENDBRANCH   9  11
ENDBRANCH   1   4
BRANCH   1  17
ATOM     17  C   UNL     1      46.095   8.738  12.308  0.00  0.00    +0.000 C 
BRANCH  17  22
ATOM     18  C   UNL     1      44.277   4.015  11.481  0.00  0.00    +0.000 A 
ATOM     19  C   UNL     1      45.132   4.815  10.732  0.00  0.00    +0.000 A 
ATOM     20  C   UNL     1      45.509   6.060  11.235  0.00  0.00    +0.000 A 
ATOM     21  C   UNL     1      45.018   6.497  12.464  0.00  0.00    +0.000 A 
ATOM     22  N   UNL     1      45.358   7.702  13.022  0.00  0.00    +0.000 N 
ATOM     23  N   UNL     1      44.186   5.731  13.192  0.00  0.00    +0.000 NA
ATOM     24  C   UNL     1      43.827   4.517  12.690  0.00  0.00    +0.000 A 
ATOM     25  H   UNL     1      44.850   7.928  13.872  0.00  0.00    +0.000 HD
BRANCH  18  27
ATOM     26  N   UNL     1      44.433   2.139   9.938  0.00  0.00    +0.000 N 
ATOM     27  C   UNL     1      43.811   2.691  11.024  0.00  0.00    +0.000 C 
ATOM     28  O   UNL     1      42.912   2.095  11.603  0.00  0.00    +0.000 OA
ATOM     29  H   UNL     1      44.153   1.199   9.687  0.00  0.00    +0.000 HD
ATOM     30  H   UNL     1      45.318   2.472   9.582  0.00  0.00    +0.000 HD
ENDBRANCH  18  27
ENDBRANCH  17  22
ENDBRANCH   1  17
TORSDOF 6
ENDMDL
