MODEL 1
REMARK VINA RESULT:    -6.540      0.000      0.000
REMARK INTER + INTRA:          -8.733
REMARK INTER:                  -8.261
REMARK INTRA:                  -0.473
REMARK UNBOUND:                -0.473
REMARK  Name = 
REMARK  5 active torsions:
REMARK  status: ('A' for Active; 'I' for Inactive)
REMARK    1  A    between atoms: N_1  and  C_2
REMARK    2  A    between atoms: C_2  and  C_3
REMARK    3  A    between atoms: C_3  and  C_4
REMARK    4  A    between atoms: C_13  and  C_14
REMARK    5  A    between atoms: C_14  and  C_15
REMARK                            x       y       z     vdW  Elec       q    Type
REMARK                         _______ _______ _______ _____ _____    ______ ____
ROOT
ATOM      1  C   UNL     1      45.520   4.813  12.805  0.00  0.00    +0.000 A 
ATOM      2  C   UNL     1      46.388   4.672  14.023  0.00  0.00    +0.000 A 
ATOM      3  N   UNL     1      47.504   5.293  14.255  0.00  0.00    +0.000 NA
ATOM      4  C   UNL     1      47.913   6.153  13.285  0.00  0.00    +0.000 A 
ATOM      5  C   UNL     1      49.037   6.940  13.190  0.00  0.00    +0.000 A 
ATOM      6  C   UNL     1      48.907   7.597  11.966  0.00  0.00    +0.000 A 
ATOM      7 CL   UNL     1      50.023   8.687  11.304  0.00  0.00    +0.000 Cl
ATOM      8  N   UNL     1      47.786   7.295  11.318  0.00  0.00    +0.000 NA
ATOM      9  N   UNL     1      47.169   6.382  12.118  0.00  0.00    +0.000 N 
ATOM     10  C   UNL     1      45.954   5.706  11.885  0.00  0.00    +0.000 A 
ENDROOT
BRANCH   1  11
ATOM     11  C   UNL     1      44.282   3.956  12.793  0.00  0.00    +0.000 C 
BRANCH  11  12
ATOM     12  C   UNL     1      43.034   4.744  13.211  0.00  0.00    +0.000 C 
BRANCH  12  13
ATOM     13  N   UNL     1      42.241   5.127  12.043  0.00  0.00    +0.000 NA
ATOM     14  H   UNL     1      41.666   4.331  11.763  0.00  0.00    +0.000 HD
ATOM     15  H   UNL     1      42.866   5.300  11.254  0.00  0.00    +0.000 HD
ENDBRANCH  12  13
ENDBRANCH  11  12
ENDBRANCH   1  11
BRANCH  10  16
ATOM     16  C   UNL     1      45.230   6.045  10.594  0.00  0.00    +0.000 C 
BRANCH  16  17
ATOM     17  C   UNL     1      45.425   4.986   9.532  0.00  0.00    +0.000 A 
ATOM     18  C   UNL     1      44.588   3.874   9.466  0.00  0.00    +0.000 A 
ATOM     19  C   UNL     1      44.710   3.002   8.388  0.00  0.00    +0.000 A 
ATOM     20  C   UNL     1      45.669   3.252   7.414  0.00  0.00    +0.000 A 
ATOM     21  C   UNL     1      46.489   4.353   7.576  0.00  0.00    +0.000 A 
ATOM     22  N   UNL     1      46.390   5.221   8.607  0.00  0.00    +0.000 NA
ENDBRANCH  16  17
ENDBRANCH  10  16
TORSDOF 5
ENDMDL
MODEL 2
REMARK VINA RESULT:    -6.471      2.690      3.630
REMARK INTER + INTRA:          -8.647
REMARK INTER:                  -8.066
REMARK INTRA:                  -0.581
REMARK UNBOUND:                -0.473
REMARK  Name = 
REMARK  5 active torsions:
REMARK  status: ('A' for Active; 'I' for Inactive)
REMARK    1  A    between atoms: N_1  and  C_2
REMARK    2  A    between atoms: C_2  and  C_3
REMARK    3  A    between atoms: C_3  and  C_4
REMARK    4  A    between atoms: C_13  and  C_14
REMARK    5  A    between atoms: C_14  and  C_15
REMARK                            x       y       z     vdW  Elec       q    Type
REMARK                         _______ _______ _______ _____ _____    ______ ____
ROOT
ATOM      1  C   UNL     1      45.712   5.784  12.690  0.00  0.00    +0.000 A 
ATOM      2  C   UNL     1      46.599   6.883  13.202  0.00  0.00    +0.000 A 
ATOM      3  N   UNL     1      46.484   8.151  12.951  0.00  0.00    +0.000 NA
ATOM      4  C   UNL     1      45.450   8.499  12.139  0.00  0.00    +0.000 A 
ATOM      5  C   UNL     1      45.056   9.725  11.654  0.00  0.00    +0.000 A 
ATOM      6  C   UNL     1      43.935   9.452  10.870  0.00  0.00    +0.000 A 
ATOM      7 CL   UNL     1      43.037  10.591   9.994  0.00  0.00    +0.000 Cl
ATOM      8  N   UNL     1      43.599   8.165  10.856  0.00  0.00    +0.000 NA
ATOM      9  N   UNL     1      44.546   7.560  11.625  0.00  0.00    +0.000 N 
ATOM     10  C   UNL     1      44.679   6.187  11.915  0.00  0.00    +0.000 A 
ENDROOT
BRANCH   1  11
ATOM     11  C   UNL     1      46.088   4.394  13.131  0.00  0.00    +0.000 C 
BRANCH  11  12
ATOM     12  C   UNL     1      46.829   4.399  14.476  0.00  0.00    +0.000 C 
BRANCH  12  13
ATOM     13  N   UNL     1      47.576   3.155  14.665  0.00  0.00    +0.000 NA
ATOM     14  H   UNL     1      47.091   2.404  14.172  0.00  0.00    +0.000 HD
ATOM     15  H   UNL     1      47.549   2.893  15.652  0.00  0.00    +0.000 HD
ENDBRANCH  12  13
ENDBRANCH  11  12
ENDBRANCH   1  11
BRANCH  10  16
ATOM     16  C   UNL     1      43.633   5.266  11.313  0.00  0.00    +0.000 C 
BRANCH  16  17
ATOM     17  C   UNL     1      44.199   4.396  10.212  0.00  0.00    +0.000 A 
ATOM     18  C   UNL     1      45.052   4.926   9.246  0.00  0.00    +0.000 A 
ATOM     19  C   UNL     1      45.665   4.063   8.343  0.00  0.00    +0.000 A 
ATOM     20  C   UNL     1      45.401   2.701   8.414  0.00  0.00    +0.000 A 
ATOM     21  C   UNL     1      44.509   2.261   9.374  0.00  0.00    +0.000 A 
ATOM     22  N   UNL     1      43.905   3.073  10.270  0.00  0.00    +0.000 NA
ENDBRANCH  16  17
ENDBRANCH  10  16
TORSDOF 5
ENDMDL
MODEL 3
REMARK VINA RESULT:    -6.087      3.166      4.638
REMARK INTER + INTRA:          -8.162
REMARK INTER:                  -7.358
REMARK INTRA:                  -0.804
REMARK UNBOUND:                -0.473
REMARK  Name = 
REMARK  5 active torsions:
REMARK  status: ('A' for Active; 'I' for Inactive)
REMARK    1  A    between atoms: N_1  and  C_2
REMARK    2  A    between atoms: C_2  and  C_3
REMARK    3  A    between atoms: C_3  and  C_4
REMARK    4  A    between atoms: C_13  and  C_14
REMARK    5  A    between atoms: C_14  and  C_15
REMARK                            x       y       z     vdW  Elec       q    Type
REMARK                         _______ _______ _______ _____ _____    ______ ____
ROOT
ATOM      1  C   UNL     1      47.495   6.356  13.316  0.00  0.00    +0.000 A 
ATOM      2  C   UNL     1      48.255   7.175  14.320  0.00  0.00    +0.000 A 
ATOM      3  N   UNL     1      48.555   6.828  15.535  0.00  0.00    +0.000 NA
ATOM      4  C   UNL     1      48.127   5.595  15.918  0.00  0.00    +0.000 A 
ATOM      5  C   UNL     1      48.243   4.932  17.118  0.00  0.00    +0.000 A 
ATOM      6  C   UNL     1      47.605   3.708  16.908  0.00  0.00    +0.000 A 
ATOM      7 CL   UNL     1      47.413   2.480  18.060  0.00  0.00    +0.000 Cl
ATOM      8  N   UNL     1      47.131   3.562  15.674  0.00  0.00    +0.000 NA
ATOM      9  N   UNL     1      47.431   4.737  15.055  0.00  0.00    +0.000 N 
ATOM     10  C   UNL     1      47.122   5.125  13.736  0.00  0.00    +0.000 A 
ENDROOT
BRANCH   1  11
ATOM     11  C   UNL     1      47.277   7.016  11.981  0.00  0.00    +0.000 C 
BRANCH  11  12
ATOM     12  C   UNL     1      46.454   8.306  12.103  0.00  0.00    +0.000 C 
BRANCH  12  13
ATOM     13  N   UNL     1      45.119   8.026  12.631  0.00  0.00    +0.000 NA
ATOM     14  H   UNL     1      45.200   7.804  13.624  0.00  0.00    +0.000 HD
ATOM     15  H   UNL     1      44.754   7.179  12.193  0.00  0.00    +0.000 HD
ENDBRANCH  12  13
ENDBRANCH  11  12
ENDBRANCH   1  11
BRANCH  10  16
ATOM     16  C   UNL     1      46.378   4.107  12.890  0.00  0.00    +0.000 C 
BRANCH  16  17
ATOM     17  C   UNL     1      45.030   4.619  12.431  0.00  0.00    +0.000 A 
ATOM     18  C   UNL     1      44.694   4.645  11.079  0.00  0.00    +0.000 A 
ATOM     19  C   UNL     1      43.395   4.983  10.714  0.00  0.00    +0.000 A 
ATOM     20  C   UNL     1      42.469   5.300  11.701  0.00  0.00    +0.000 A 
ATOM     21  C   UNL     1      42.894   5.292  13.017  0.00  0.00    +0.000 A 
ATOM     22  N   UNL     1      44.146   4.961  13.402  0.00  0.00    +0.000 NA
ENDBRANCH  16  17
ENDBRANCH  10  16
TORSDOF 5
ENDMDL
MODEL 4
REMARK VINA RESULT:    -5.519      2.621      4.788
REMARK INTER + INTRA:          -7.444
REMARK INTER:                  -7.164
REMARK INTRA:                  -0.280
REMARK UNBOUND:                -0.473
REMARK  Name = 
REMARK  5 active torsions:
REMARK  status: ('A' for Active; 'I' for Inactive)
REMARK    1  A    between atoms: N_1  and  C_2
REMARK    2  A    between atoms: C_2  and  C_3
REMARK    3  A    between atoms: C_3  and  C_4
REMARK    4  A    between atoms: C_13  and  C_14
REMARK    5  A    between atoms: C_14  and  C_15
REMARK                            x       y       z     vdW  Elec       q    Type
REMARK                         _______ _______ _______ _____ _____    ______ ____
ROOT
ATOM      1  C   UNL     1      46.029   5.399  11.821  0.00  0.00    +0.000 A 
ATOM      2  C   UNL     1      45.355   4.330  12.632  0.00  0.00    +0.000 A 
ATOM      3  N   UNL     1      45.647   3.978  13.847  0.00  0.00    +0.000 NA
ATOM      4  C   UNL     1      46.674   4.657  14.426  0.00  0.00    +0.000 A 
ATOM      5  C   UNL     1      47.256   4.529  15.666  0.00  0.00    +0.000 A 
ATOM      6  C   UNL     1      48.263   5.496  15.685  0.00  0.00    +0.000 A 
ATOM      7 CL   UNL     1      49.336   5.783  16.964  0.00  0.00    +0.000 Cl
ATOM      8  N   UNL     1      48.326   6.217  14.569  0.00  0.00    +0.000 NA
ATOM      9  N   UNL     1      47.357   5.692  13.771  0.00  0.00    +0.000 N 
ATOM     10  C   UNL     1      47.020   6.068  12.455  0.00  0.00    +0.000 A 
ENDROOT
BRANCH   1  11
ATOM     11  C   UNL     1      45.490   5.587  10.428  0.00  0.00    +0.000 C 
BRANCH  11  12
ATOM     12  C   UNL     1      44.193   4.798  10.202  0.00  0.00    +0.000 C 
BRANCH  12  13
ATOM     13  N   UNL     1      44.090   4.348   8.814  0.00  0.00    +0.000 NA
ATOM     14  H   UNL     1      43.107   4.183   8.595  0.00  0.00    +0.000 HD
ATOM     15  H   UNL     1      44.544   3.437   8.721  0.00  0.00    +0.000 HD
ENDBRANCH  12  13
ENDBRANCH  11  12
ENDBRANCH   1  11
BRANCH  10  16
ATOM     16  C   UNL     1      47.820   7.210  11.854  0.00  0.00    +0.000 C 
BRANCH  16  17
ATOM     17  C   UNL     1      47.116   8.541  11.996  0.00  0.00    +0.000 A 
ATOM     18  C   UNL     1      47.795   9.739  11.783  0.00  0.00    +0.000 A 
ATOM     19  C   UNL     1      47.075  10.930  11.780  0.00  0.00    +0.000 A 
ATOM     20  C   UNL     1      45.705  10.899  12.002  0.00  0.00    +0.000 A 
ATOM     21  C   UNL     1      45.113   9.674  12.249  0.00  0.00    +0.000 A 
ATOM     22  N   UNL     1      45.784   8.501  12.251  0.00  0.00    +0.000 NA
ENDBRANCH  16  17
ENDBRANCH  10  16
TORSDOF 5
ENDMDL
MODEL 5
REMARK VINA RESULT:    -5.410      2.852      5.389
REMARK INTER + INTRA:          -7.306
REMARK INTER:                  -6.733
REMARK INTRA:                  -0.573
REMARK UNBOUND:                -0.473
REMARK  Name = 
REMARK  5 active torsions:
REMARK  status: ('A' for Active; 'I' for Inactive)
REMARK    1  A    between atoms: N_1  and  C_2
REMARK    2  A    between atoms: C_2  and  C_3
REMARK    3  A    between atoms: C_3  and  C_4
REMARK    4  A    between atoms: C_13  and  C_14
REMARK    5  A    between atoms: C_14  and  C_15
REMARK                            x       y       z     vdW  Elec       q    Type
REMARK                         _______ _______ _______ _____ _____    ______ ____
ROOT
ATOM      1  C   UNL     1      46.562   5.855  12.642  0.00  0.00    +0.000 A 
ATOM      2  C   UNL     1      46.103   4.453  12.922  0.00  0.00    +0.000 A 
ATOM      3  N   UNL     1      46.367   3.748  13.980  0.00  0.00    +0.000 NA
ATOM      4  C   UNL     1      47.141   4.359  14.917  0.00  0.00    +0.000 A 
ATOM      5  C   UNL     1      47.627   3.906  16.121  0.00  0.00    +0.000 A 
ATOM      6  C   UNL     1      48.360   4.979  16.632  0.00  0.00    +0.000 A 
ATOM      7 CL   UNL     1      49.215   4.986  18.095  0.00  0.00    +0.000 Cl
ATOM      8  N   UNL     1      48.341   6.054  15.851  0.00  0.00    +0.000 NA
ATOM      9  N   UNL     1      47.603   5.675  14.771  0.00  0.00    +0.000 N 
ATOM     10  C   UNL     1      47.299   6.430  13.620  0.00  0.00    +0.000 A 
ENDROOT
BRANCH   1  11
ATOM     11  C   UNL     1      46.116   6.427  11.322  0.00  0.00    +0.000 C 
BRANCH  11  12
ATOM     12  C   UNL     1      45.279   5.426  10.515  0.00  0.00    +0.000 C 
BRANCH  12  13
ATOM     13  N   UNL     1      45.668   5.437   9.105  0.00  0.00    +0.000 NA
ATOM     14  H   UNL     1      45.371   6.321   8.690  0.00  0.00    +0.000 HD
ATOM     15  H   UNL     1      45.146   4.715   8.605  0.00  0.00    +0.000 HD
ENDBRANCH  12  13
ENDBRANCH  11  12
ENDBRANCH   1  11
BRANCH  10  16
ATOM     16  C   UNL     1      47.843   7.847  13.580  0.00  0.00    +0.000 C 
BRANCH  16  17
ATOM     17  C   UNL     1      49.248   7.906  13.022  0.00  0.00    +0.000 A 
ATOM     18  C   UNL     1      49.493   7.679  11.669  0.00  0.00    +0.000 A 
ATOM     19  C   UNL     1      50.776   7.888  11.172  0.00  0.00    +0.000 A 
ATOM     20  C   UNL     1      51.782   8.303  12.035  0.00  0.00    +0.000 A 
ATOM     21  C   UNL     1      51.467   8.464  13.372  0.00  0.00    +0.000 A 
ATOM     22  N   UNL     1      50.230   8.276  13.882  0.00  0.00    +0.000 NA
ENDBRANCH  16  17
ENDBRANCH  10  16
TORSDOF 5
ENDMDL
MODEL 6
REMARK VINA RESULT:    -5.326      2.880      5.548
REMARK INTER + INTRA:          -7.200
REMARK INTER:                  -6.443
REMARK INTRA:                  -0.757
REMARK UNBOUND:                -0.473
REMARK  Name = 
REMARK  5 active torsions:
REMARK  status: ('A' for Active; 'I' for Inactive)
REMARK    1  A    between atoms: N_1  and  C_2
REMARK    2  A    between atoms: C_2  and  C_3
REMARK    3  A    between atoms: C_3  and  C_4
REMARK    4  A    between atoms: C_13  and  C_14
REMARK    5  A    between atoms: C_14  and  C_15
REMARK                            x       y       z     vdW  Elec       q    Type
REMARK                         _______ _______ _______ _____ _____    ______ ____
ROOT
ATOM      1  C   UNL     1      47.986   6.289  13.996  0.00  0.00    +0.000 A 
ATOM      2  C   UNL     1      47.346   5.215  14.830  0.00  0.00    +0.000 A 
ATOM      3  N   UNL     1      46.390   4.417  14.465  0.00  0.00    +0.000 NA
ATOM      4  C   UNL     1      45.933   4.588  13.196  0.00  0.00    +0.000 A 
ATOM      5  C   UNL     1      44.930   3.949  12.503  0.00  0.00    +0.000 A 
ATOM      6  C   UNL     1      44.922   4.559  11.248  0.00  0.00    +0.000 A 
ATOM      7 CL   UNL     1      43.867   4.192   9.975  0.00  0.00    +0.000 Cl
ATOM      8  N   UNL     1      45.853   5.500  11.111  0.00  0.00    +0.000 NA
ATOM      9  N   UNL     1      46.473   5.542  12.322  0.00  0.00    +0.000 N 
ATOM     10  C   UNL     1      47.519   6.394  12.731  0.00  0.00    +0.000 A 
ENDROOT
BRANCH   1  11
ATOM     11  C   UNL     1      49.069   7.077  14.682  0.00  0.00    +0.000 C 
BRANCH  11  12
ATOM     12  C   UNL     1      48.505   8.015  15.758  0.00  0.00    +0.000 C 
BRANCH  12  13
ATOM     13  N   UNL     1      47.497   8.911  15.194  0.00  0.00    +0.000 NA
ATOM     14  H   UNL     1      47.970   9.705  14.760  0.00  0.00    +0.000 HD
ATOM     15  H   UNL     1      46.939   9.311  15.951  0.00  0.00    +0.000 HD
ENDBRANCH  12  13
ENDBRANCH  11  12
ENDBRANCH   1  11
BRANCH  10  16
ATOM     16  C   UNL     1      48.032   7.377  11.694  0.00  0.00    +0.000 C 
BRANCH  16  17
ATOM     17  C   UNL     1      47.427   8.754  11.860  0.00  0.00    +0.000 A 
ATOM     18  C   UNL     1      48.199   9.902  11.696  0.00  0.00    +0.000 A 
ATOM     19  C   UNL     1      47.571  11.144  11.712  0.00  0.00    +0.000 A 
ATOM     20  C   UNL     1      46.198  11.211  11.904  0.00  0.00    +0.000 A 
ATOM     21  C   UNL     1      45.510  10.028  12.102  0.00  0.00    +0.000 A 
ATOM     22  N   UNL     1      46.090   8.808  12.085  0.00  0.00    +0.000 NA
ENDBRANCH  16  17
ENDBRANCH  10  16
TORSDOF 5
ENDMDL
MODEL 7
REMARK VINA RESULT:    -4.972      3.158      6.316
REMARK INTER + INTRA:          -6.752
REMARK INTER:                  -6.169
REMARK INTRA:                  -0.583
REMARK UNBOUND:                -0.473
REMARK  Name = 
REMARK  5 active torsions:
REMARK  status: ('A' for Active; 'I' for Inactive)
REMARK    1  A    between atoms: N_1  and  C_2
REMARK    2  A    between atoms: C_2  and  C_3
REMARK    3  A    between atoms: C_3  and  C_4
REMARK    4  A    between atoms: C_13  and  C_14
REMARK    5  A    between atoms: C_14  and  C_15
REMARK                            x       y       z     vdW  Elec       q    Type
REMARK                         _______ _______ _______ _____ _____    ______ ____
ROOT
ATOM      1  C   UNL     1      46.834   7.946  12.509  0.00  0.00    +0.000 A 
ATOM      2  C   UNL     1      45.578   8.610  12.022  0.00  0.00    +0.000 A 
ATOM      3  N   UNL     1      44.491   8.019  11.631  0.00  0.00    +0.000 NA
ATOM      4  C   UNL     1      44.512   6.659  11.671  0.00  0.00    +0.000 A 
ATOM      5  C   UNL     1      43.564   5.730  11.310  0.00  0.00    +0.000 A 
ATOM      6  C   UNL     1      44.161   4.496  11.572  0.00  0.00    +0.000 A 
ATOM      7 CL   UNL     1      43.461   2.978  11.294  0.00  0.00    +0.000 Cl
ATOM      8  N   UNL     1      45.384   4.597  12.085  0.00  0.00    +0.000 NA
ATOM      9  N   UNL     1      45.622   5.937  12.131  0.00  0.00    +0.000 N 
ATOM     10  C   UNL     1      46.792   6.594  12.562  0.00  0.00    +0.000 A 
ENDROOT
BRANCH   1  11
ATOM     11  C   UNL     1      47.951   8.881  12.888  0.00  0.00    +0.000 C 
BRANCH  11  12
ATOM     12  C   UNL     1      48.860   9.207  11.694  0.00  0.00    +0.000 C 
BRANCH  12  13
ATOM     13  N   UNL     1      48.612  10.562  11.203  0.00  0.00    +0.000 NA
ATOM     14  H   UNL     1      48.829  10.593  10.206  0.00  0.00    +0.000 HD
ATOM     15  H   UNL     1      49.270  11.206  11.644  0.00  0.00    +0.000 HD
ENDBRANCH  12  13
ENDBRANCH  11  12
ENDBRANCH   1  11
BRANCH  10  16
ATOM     16  C   UNL     1      47.923   5.708  13.052  0.00  0.00    +0.000 C 
BRANCH  16  17
ATOM     17  C   UNL     1      47.876   5.493  14.548  0.00  0.00    +0.000 A 
ATOM     18  C   UNL     1      47.080   4.494  15.105  0.00  0.00    +0.000 A 
ATOM     19  C   UNL     1      47.180   4.235  16.469  0.00  0.00    +0.000 A 
ATOM     20  C   UNL     1      48.056   4.985  17.243  0.00  0.00    +0.000 A 
ATOM     21  C   UNL     1      48.778   5.987  16.622  0.00  0.00    +0.000 A 
ATOM     22  N   UNL     1      48.708   6.257  15.300  0.00  0.00    +0.000 NA
ENDBRANCH  16  17
ENDBRANCH  10  16
TORSDOF 5
ENDMDL
MODEL 8
REMARK VINA RESULT:    -4.936      2.882      5.625
REMARK INTER + INTRA:          -6.708
REMARK INTER:                  -6.188
REMARK INTRA:                  -0.519
REMARK UNBOUND:                -0.473
REMARK  Name = 
REMARK  5 active torsions:
REMARK  status: ('A' for Active; 'I' for Inactive)
REMARK    1  A    between atoms: N_1  and  C_2
REMARK    2  A    between atoms: C_2  and  C_3
REMARK    3  A    between atoms: C_3  and  C_4
REMARK    4  A    between atoms: C_13  and  C_14
REMARK    5  A    between atoms: C_14  and  C_15
REMARK                            x       y       z     vdW  Elec       q    Type
REMARK                         _______ _______ _______ _____ _____    ______ ____
ROOT
ATOM      1  C   UNL     1      47.674   5.864  14.642  0.00  0.00    +0.000 A 
ATOM      2  C   UNL     1      47.450   4.409  14.937  0.00  0.00    +0.000 A 
ATOM      3  N   UNL     1      46.710   3.585  14.258  0.00  0.00    +0.000 NA
ATOM      4  C   UNL     1      46.082   4.114  13.174  0.00  0.00    +0.000 A 
ATOM      5  C   UNL     1      45.218   3.548  12.265  0.00  0.00    +0.000 A 
ATOM      6  C   UNL     1      44.901   4.584  11.385  0.00  0.00    +0.000 A 
ATOM      7 CL   UNL     1      43.846   4.474  10.064  0.00  0.00    +0.000 Cl
ATOM      8  N   UNL     1      45.519   5.728  11.669  0.00  0.00    +0.000 NA
ATOM      9  N   UNL     1      46.239   5.454  12.791  0.00  0.00    +0.000 N 
ATOM     10  C   UNL     1      47.054   6.332  13.533  0.00  0.00    +0.000 A 
ENDROOT
BRANCH   1  11
ATOM     11  C   UNL     1      48.574   6.586  15.609  0.00  0.00    +0.000 C 
BRANCH  11  12
ATOM     12  C   UNL     1      48.641   5.879  16.969  0.00  0.00    +0.000 C 
BRANCH  12  13
ATOM     13  N   UNL     1      47.735   6.508  17.930  0.00  0.00    +0.000 NA
ATOM     14  H   UNL     1      48.142   7.394  18.232  0.00  0.00    +0.000 HD
ATOM     15  H   UNL     1      47.686   5.933  18.773  0.00  0.00    +0.000 HD
ENDBRANCH  12  13
ENDBRANCH  11  12
ENDBRANCH   1  11
BRANCH  10  16
ATOM     16  C   UNL     1      47.159   7.756  13.015  0.00  0.00    +0.000 C 
BRANCH  16  17
ATOM     17  C   UNL     1      48.573   8.120  12.622  0.00  0.00    +0.000 A 
ATOM     18  C   UNL     1      49.285   7.349  11.705  0.00  0.00    +0.000 A 
ATOM     19  C   UNL     1      50.524   7.802  11.262  0.00  0.00    +0.000 A 
ATOM     20  C   UNL     1      51.028   8.999  11.753  0.00  0.00    +0.000 A 
ATOM     21  C   UNL     1      50.279   9.683  12.693  0.00  0.00    +0.000 A 
ATOM     22  N   UNL     1      49.070   9.273  13.137  0.00  0.00    +0.000 NA
ENDBRANCH  16  17
ENDBRANCH  10  16
TORSDOF 5
ENDMDL
MODEL 9
REMARK VINA RESULT:    -4.836      5.385      7.821
REMARK INTER + INTRA:          -6.581
REMARK INTER:                  -6.112
REMARK INTRA:                  -0.470
REMARK UNBOUND:                -0.473
REMARK  Name = 
REMARK  5 active torsions:
REMARK  status: ('A' for Active; 'I' for Inactive)
REMARK    1  A    between atoms: N_1  and  C_2
REMARK    2  A    between atoms: C_2  and  C_3
REMARK    3  A    between atoms: C_3  and  C_4
REMARK    4  A    between atoms: C_13  and  C_14
REMARK    5  A    between atoms: C_14  and  C_15
REMARK                            x       y       z     vdW  Elec       q    Type
REMARK                         _______ _______ _______ _____ _____    ______ ____
ROOT
ATOM      1  C   UNL     1      48.669   3.473  16.985  0.00  0.00    +0.000 A 
ATOM      2  C   UNL     1      49.064   2.075  16.603  0.00  0.00    +0.000 A 
ATOM      3  N   UNL     1      50.216   1.512  16.809  0.00  0.00    +0.000 NA
ATOM      4  C   UNL     1      51.146   2.284  17.432  0.00  0.00    +0.000 A 
ATOM      5  C   UNL     1      52.452   2.023  17.776  0.00  0.00    +0.000 A 
ATOM      6  C   UNL     1      52.898   3.196  18.386  0.00  0.00    +0.000 A 
ATOM      7 CL   UNL     1      54.457   3.466  18.994  0.00  0.00    +0.000 Cl
ATOM      8  N   UNL     1      51.965   4.141  18.464  0.00  0.00    +0.000 NA
ATOM      9  N   UNL     1      50.878   3.593  17.856  0.00  0.00    +0.000 N 
ATOM     10  C   UNL     1      49.619   4.186  17.634  0.00  0.00    +0.000 A 
ENDROOT
BRANCH   1  11
ATOM     11  C   UNL     1      47.266   3.870  16.611  0.00  0.00    +0.000 C 
BRANCH  11  12
ATOM     12  C   UNL     1      47.184   4.412  15.178  0.00  0.00    +0.000 C 
BRANCH  12  13
ATOM     13  N   UNL     1      47.243   3.324  14.203  0.00  0.00    +0.000 NA
ATOM     14  H   UNL     1      48.210   3.212  13.894  0.00  0.00    +0.000 HD
ATOM     15  H   UNL     1      46.722   3.591  13.366  0.00  0.00    +0.000 HD
ENDBRANCH  12  13
ENDBRANCH  11  12
ENDBRANCH   1  11
BRANCH  10  16
ATOM     16  C   UNL     1      49.441   5.604  18.148  0.00  0.00    +0.000 C 
BRANCH  16  17
ATOM     17  C   UNL     1      49.430   6.623  17.030  0.00  0.00    +0.000 A 
ATOM     18  C   UNL     1      48.589   7.733  17.079  0.00  0.00    +0.000 A 
ATOM     19  C   UNL     1      48.718   8.718  16.104  0.00  0.00    +0.000 A 
ATOM     20  C   UNL     1      49.667   8.566  15.102  0.00  0.00    +0.000 A 
ATOM     21  C   UNL     1      50.433   7.414  15.100  0.00  0.00    +0.000 A 
ATOM     22  N   UNL     1      50.336   6.444  16.036  0.00  0.00    +0.000 NA
ENDBRANCH  16  17
ENDBRANCH  10  16
TORSDOF 5
ENDMDL
