MODEL 1
REMARK VINA RESULT:    -7.024      0.000      0.000
REMARK INTER + INTRA:         -10.937
REMARK INTER:                  -9.488
REMARK INTRA:                  -1.449
REMARK UNBOUND:                -1.449
REMARK  Name = 
REMARK  7 active torsions:
REMARK  status: ('A' for Active; 'I' for Inactive)
REMARK    1  A    between atoms: C_1  and  C_2
REMARK    2  A    between atoms: C_2  and  N_3
REMARK    3  A    between atoms: C_2  and  C_16
REMARK    4  A    between atoms: C_4  and  C_6
REMARK    5  A    between atoms: C_19  and  C_20
REMARK    6  A    between atoms: C_20  and  N_21
REMARK    7  A    between atoms: C_22  and  C_24
REMARK                            x       y       z     vdW  Elec       q    Type
REMARK                         _______ _______ _______ _____ _____    ______ ____
ROOT
ATOM      1  C   UNL     1      47.508   3.063  17.707  0.00  0.00    +0.000 C 
ATOM      2  C   UNL     1      48.374   4.288  17.392  0.00  0.00    +0.000 C 
ENDROOT
BRANCH   2   3
ATOM      3  C   UNL     1      47.989   4.876  16.040  0.00  0.00    +0.000 A 
ATOM      4  C   UNL     1      48.541   6.086  15.599  0.00  0.00    +0.000 A 
ATOM      5  C   UNL     1      48.223   6.598  14.335  0.00  0.00    +0.000 A 
ATOM      6  C   UNL     1      47.340   5.915  13.486  0.00  0.00    +0.000 A 
ATOM      7  C   UNL     1      46.788   4.706  13.924  0.00  0.00    +0.000 A 
ATOM      8  C   UNL     1      47.102   4.197  15.185  0.00  0.00    +0.000 A 
BRANCH   6   9
ATOM      9  C   UNL     1      47.018   6.447  12.114  0.00  0.00    +0.000 C 
BRANCH   9  10
ATOM     10  N   UNL     1      45.910   5.735  11.517  0.00  0.00    +0.000 N 
ATOM     11  C   UNL     1      44.688   6.350  11.342  0.00  0.00    +0.000 C 
ATOM     12  O   UNL     1      44.488   7.521  11.649  0.00  0.00    +0.000 OA
ATOM     13  H   UNL     1      46.082   4.812  11.142  0.00  0.00    +0.000 HD
BRANCH  11  14
ATOM     14  C   UNL     1      43.626   5.458  10.711  0.00  0.00    +0.000 C 
ATOM     15  C   UNL     1      42.658   4.875  11.719  0.00  0.00    +0.000 C 
ATOM     16  C   UNL     1      43.375   3.628  12.187  0.00  0.00    +0.000 C 
ATOM     17  O   UNL     1      44.128   3.149  11.066  0.00  0.00    +0.000 OA
ATOM     18  C   UNL     1      44.250   4.212  10.107  0.00  0.00    +0.000 C 
ENDBRANCH  11  14
ENDBRANCH   9  10
ENDBRANCH   6   9
ENDBRANCH   2   3
BRANCH   2  19
ATOM     19  N   UNL     1      49.798   3.985  17.378  0.00  0.00    +0.000 N 
ATOM     20  C   UNL     1      50.630   4.193  18.448  0.00  0.00    +0.000 C 
ATOM     21  O   UNL     1      50.234   4.610  19.532  0.00  0.00    +0.000 OA
ATOM     22  H   UNL     1      50.225   3.942  16.458  0.00  0.00    +0.000 HD
BRANCH  20  23
ATOM     23  C   UNL     1      52.034   3.811  18.252  0.00  0.00    +0.000 A 
ATOM     24  C   UNL     1      53.037   4.750  18.459  0.00  0.00    +0.000 A 
ATOM     25  S   UNL     1      54.608   4.135  18.216  0.00  0.00    +0.000 S 
ATOM     26  C   UNL     1      54.002   2.606  17.778  0.00  0.00    +0.000 A 
ATOM     27  N   UNL     1      54.840   1.601  17.409  0.00  0.00    +0.000 NA
ATOM     28  C   UNL     1      54.244   0.507  17.069  0.00  0.00    +0.000 A 
ATOM     29  N   UNL     1      52.886   0.324  17.077  0.00  0.00    +0.000 N 
ATOM     30  C   UNL     1      52.004   1.296  17.485  0.00  0.00    +0.000 A 
ATOM     31  O   UNL     1      50.798   1.078  17.552  0.00  0.00    +0.000 OA
ATOM     32  C   UNL     1      52.621   2.557  17.847  0.00  0.00    +0.000 A 
ATOM     33  H   UNL     1      52.484  -0.565  16.814  0.00  0.00    +0.000 HD
ENDBRANCH  20  23
ENDBRANCH   2  19
TORSDOF 6
ENDMDL
MODEL 2
REMARK VINA RESULT:    -6.871      3.677      8.741
REMARK INTER + INTRA:         -10.730
REMARK INTER:                  -9.387
REMARK INTRA:                  -1.343
REMARK UNBOUND:                -1.449
REMARK  Name = 
REMARK  7 active torsions:
REMARK  status: ('A' for Active; 'I' for Inactive)
REMARK    1  A    between atoms: C_1  and  C_2
REMARK    2  A    between atoms: C_2  and  N_3
REMARK    3  A    between atoms: C_2  and  C_16
REMARK    4  A    between atoms: C_4  and  C_6
REMARK    5  A    between atoms: C_19  and  C_20
REMARK    6  A    between atoms: C_20  and  N_21
REMARK    7  A    between atoms: C_22  and  C_24
REMARK                            x       y       z     vdW  Elec       q    Type
REMARK                         _______ _______ _______ _____ _____    ______ ____
ROOT
ATOM      1  C   UNL     1      49.591   8.448  11.262  0.00  0.00    +0.000 C 
ATOM      2  C   UNL     1      48.309   8.144  12.047  0.00  0.00    +0.000 C 
ENDROOT
BRANCH   2   3
ATOM      3  C   UNL     1      48.639   7.841  13.504  0.00  0.00    +0.000 A 
ATOM      4  C   UNL     1      48.221   6.645  14.102  0.00  0.00    +0.000 A 
ATOM      5  C   UNL     1      48.569   6.348  15.425  0.00  0.00    +0.000 A 
ATOM      6  C   UNL     1      49.336   7.243  16.184  0.00  0.00    +0.000 A 
ATOM      7  C   UNL     1      49.755   8.439  15.589  0.00  0.00    +0.000 A 
ATOM      8  C   UNL     1      49.406   8.737  14.271  0.00  0.00    +0.000 A 
BRANCH   6   9
ATOM      9  C   UNL     1      49.737   6.915  17.598  0.00  0.00    +0.000 C 
BRANCH   9  10
ATOM     10  N   UNL     1      49.416   5.546  17.936  0.00  0.00    +0.000 N 
ATOM     11  C   UNL     1      50.285   4.521  17.627  0.00  0.00    +0.000 C 
ATOM     12  O   UNL     1      51.370   4.715  17.088  0.00  0.00    +0.000 OA
ATOM     13  H   UNL     1      48.589   5.374  18.491  0.00  0.00    +0.000 HD
BRANCH  11  14
ATOM     14  C   UNL     1      49.791   3.140  18.040  0.00  0.00    +0.000 C 
ATOM     15  C   UNL     1      49.637   2.185  16.874  0.00  0.00    +0.000 C 
ATOM     16  C   UNL     1      48.244   2.494  16.372  0.00  0.00    +0.000 C 
ATOM     17  O   UNL     1      47.474   2.870  17.521  0.00  0.00    +0.000 OA
ATOM     18  C   UNL     1      48.376   3.208  18.586  0.00  0.00    +0.000 C 
ENDBRANCH  11  14
ENDBRANCH   9  10
ENDBRANCH   6   9
ENDBRANCH   2   3
BRANCH   2  19
ATOM     19  N   UNL     1      47.562   7.023  11.497  0.00  0.00    +0.000 N 
ATOM     20  C   UNL     1      46.194   6.991  11.408  0.00  0.00    +0.000 C 
ATOM     21  O   UNL     1      45.481   7.931  11.742  0.00  0.00    +0.000 OA
ATOM     22  H   UNL     1      48.048   6.132  11.500  0.00  0.00    +0.000 HD
BRANCH  20  23
ATOM     23  C   UNL     1      45.618   5.780  10.809  0.00  0.00    +0.000 A 
ATOM     24  C   UNL     1      45.775   5.546   9.448  0.00  0.00    +0.000 A 
ATOM     25  S   UNL     1      45.072   4.085   8.922  0.00  0.00    +0.000 S 
ATOM     26  C   UNL     1      44.491   3.738  10.485  0.00  0.00    +0.000 A 
ATOM     27  N   UNL     1      43.756   2.619  10.724  0.00  0.00    +0.000 NA
ATOM     28  C   UNL     1      43.351   2.499  11.945  0.00  0.00    +0.000 A 
ATOM     29  N   UNL     1      43.627   3.389  12.949  0.00  0.00    +0.000 N 
ATOM     30  C   UNL     1      44.403   4.508  12.763  0.00  0.00    +0.000 A 
ATOM     31  O   UNL     1      44.694   5.248  13.698  0.00  0.00    +0.000 OA
ATOM     32  C   UNL     1      44.857   4.708  11.400  0.00  0.00    +0.000 A 
ATOM     33  H   UNL     1      43.293   3.227  13.889  0.00  0.00    +0.000 HD
ENDBRANCH  20  23
ENDBRANCH   2  19
TORSDOF 6
ENDMDL
MODEL 3
REMARK VINA RESULT:    -6.654      3.689      9.201
REMARK INTER + INTRA:         -10.438
REMARK INTER:                  -9.041
REMARK INTRA:                  -1.397
REMARK UNBOUND:                -1.449
REMARK  Name = 
REMARK  7 active torsions:
REMARK  status: ('A' for Active; 'I' for Inactive)
REMARK    1  A    between atoms: C_1  and  C_2
REMARK    2  A    between atoms: C_2  and  N_3
REMARK    3  A    between atoms: C_2  and  C_16
REMARK    4  A    between atoms: C_4  and  C_6
REMARK    5  A    between atoms: C_19  and  C_20
REMARK    6  A    between atoms: C_20  and  N_21
REMARK    7  A    between atoms: C_22  and  C_24
REMARK                            x       y       z     vdW  Elec       q    Type
REMARK                         _______ _______ _______ _____ _____    ______ ____
ROOT
ATOM      1  C   UNL     1      48.941   7.795  11.324  0.00  0.00    +0.000 C 
ATOM      2  C   UNL     1      47.663   7.724  12.169  0.00  0.00    +0.000 C 
ENDROOT
BRANCH   2   3
ATOM      3  C   UNL     1      48.005   7.789  13.653  0.00  0.00    +0.000 A 
ATOM      4  C   UNL     1      48.369   6.635  14.358  0.00  0.00    +0.000 A 
ATOM      5  C   UNL     1      48.731   6.707  15.709  0.00  0.00    +0.000 A 
ATOM      6  C   UNL     1      48.729   7.933  16.388  0.00  0.00    +0.000 A 
ATOM      7  C   UNL     1      48.366   9.088  15.686  0.00  0.00    +0.000 A 
ATOM      8  C   UNL     1      48.002   9.016  14.340  0.00  0.00    +0.000 A 
BRANCH   6   9
ATOM      9  C   UNL     1      49.145   8.020  17.833  0.00  0.00    +0.000 C 
BRANCH   9  10
ATOM     10  N   UNL     1      49.310   6.707  18.417  0.00  0.00    +0.000 N 
ATOM     11  C   UNL     1      50.560   6.136  18.524  0.00  0.00    +0.000 C 
ATOM     12  O   UNL     1      51.583   6.712  18.168  0.00  0.00    +0.000 OA
ATOM     13  H   UNL     1      48.502   6.265  18.832  0.00  0.00    +0.000 HD
BRANCH  11  14
ATOM     14  C   UNL     1      50.558   4.746  19.150  0.00  0.00    +0.000 C 
ATOM     15  C   UNL     1      50.929   3.649  18.174  0.00  0.00    +0.000 C 
ATOM     16  C   UNL     1      49.604   3.319  17.524  0.00  0.00    +0.000 C 
ATOM     17  O   UNL     1      48.599   3.530  18.524  0.00  0.00    +0.000 OA
ATOM     18  C   UNL     1      49.156   4.340  19.571  0.00  0.00    +0.000 C 
ENDBRANCH  11  14
ENDBRANCH   9  10
ENDBRANCH   6   9
ENDBRANCH   2   3
BRANCH   2  19
ATOM     19  N   UNL     1      46.889   6.516  11.923  0.00  0.00    +0.000 N 
ATOM     20  C   UNL     1      45.523   6.498  11.809  0.00  0.00    +0.000 C 
ATOM     21  O   UNL     1      44.835   7.514  11.858  0.00  0.00    +0.000 OA
ATOM     22  H   UNL     1      47.346   5.647  12.180  0.00  0.00    +0.000 HD
BRANCH  20  23
ATOM     23  C   UNL     1      44.918   5.187  11.544  0.00  0.00    +0.000 A 
ATOM     24  C   UNL     1      44.189   4.553  12.543  0.00  0.00    +0.000 A 
ATOM     25  S   UNL     1      43.533   3.055  12.061  0.00  0.00    +0.000 S 
ATOM     26  C   UNL     1      44.242   3.178  10.518  0.00  0.00    +0.000 A 
ATOM     27  N   UNL     1      44.096   2.185   9.601  0.00  0.00    +0.000 NA
ATOM     28  C   UNL     1      44.715   2.393   8.487  0.00  0.00    +0.000 A 
ATOM     29  N   UNL     1      45.455   3.511   8.203  0.00  0.00    +0.000 N 
ATOM     30  C   UNL     1      45.592   4.558   9.082  0.00  0.00    +0.000 A 
ATOM     31  O   UNL     1      46.200   5.579   8.771  0.00  0.00    +0.000 OA
ATOM     32  C   UNL     1      44.942   4.360  10.363  0.00  0.00    +0.000 A 
ATOM     33  H   UNL     1      45.902   3.619   7.303  0.00  0.00    +0.000 HD
ENDBRANCH  20  23
ENDBRANCH   2  19
TORSDOF 6
ENDMDL
MODEL 4
REMARK VINA RESULT:    -6.623      3.580      4.532
REMARK INTER + INTRA:         -10.395
REMARK INTER:                  -9.041
REMARK INTRA:                  -1.355
REMARK UNBOUND:                -1.449
REMARK  Name = 
REMARK  7 active torsions:
REMARK  status: ('A' for Active; 'I' for Inactive)
REMARK    1  A    between atoms: C_1  and  C_2
REMARK    2  A    between atoms: C_2  and  N_3
REMARK    3  A    between atoms: C_2  and  C_16
REMARK    4  A    between atoms: C_4  and  C_6
REMARK    5  A    between atoms: C_19  and  C_20
REMARK    6  A    between atoms: C_20  and  N_21
REMARK    7  A    between atoms: C_22  and  C_24
REMARK                            x       y       z     vdW  Elec       q    Type
REMARK                         _______ _______ _______ _____ _____    ______ ____
ROOT
ATOM      1  C   UNL     1      48.086   2.973  15.736  0.00  0.00    +0.000 C 
ATOM      2  C   UNL     1      47.248   4.251  15.847  0.00  0.00    +0.000 C 
ENDROOT
BRANCH   2   3
ATOM      3  C   UNL     1      46.825   4.731  14.463  0.00  0.00    +0.000 A 
ATOM      4  C   UNL     1      45.915   3.993  13.695  0.00  0.00    +0.000 A 
ATOM      5  C   UNL     1      45.490   4.462  12.445  0.00  0.00    +0.000 A 
ATOM      6  C   UNL     1      45.971   5.675  11.933  0.00  0.00    +0.000 A 
ATOM      7  C   UNL     1      46.880   6.414  12.700  0.00  0.00    +0.000 A 
ATOM      8  C   UNL     1      47.305   5.945  13.944  0.00  0.00    +0.000 A 
BRANCH   6   9
ATOM      9  C   UNL     1      45.495   6.198  10.603  0.00  0.00    +0.000 C 
BRANCH   9  10
ATOM     10  N   UNL     1      44.985   5.134   9.767  0.00  0.00    +0.000 N 
ATOM     11  C   UNL     1      45.651   4.756   8.621  0.00  0.00    +0.000 C 
ATOM     12  O   UNL     1      46.709   5.270   8.272  0.00  0.00    +0.000 OA
ATOM     13  H   UNL     1      44.185   4.611  10.097  0.00  0.00    +0.000 HD
BRANCH  11  14
ATOM     14  C   UNL     1      44.974   3.629   7.850  0.00  0.00    +0.000 C 
ATOM     15  C   UNL     1      44.696   2.406   8.698  0.00  0.00    +0.000 C 
ATOM     16  C   UNL     1      45.995   1.637   8.611  0.00  0.00    +0.000 C 
ATOM     17  O   UNL     1      46.538   1.904   7.311  0.00  0.00    +0.000 OA
ATOM     18  C   UNL     1      45.896   3.073   6.778  0.00  0.00    +0.000 C 
ENDBRANCH  11  14
ENDBRANCH   9  10
ENDBRANCH   6   9
ENDBRANCH   2   3
BRANCH   2  19
ATOM     19  N   UNL     1      47.953   5.334  16.518  0.00  0.00    +0.000 N 
ATOM     20  C   UNL     1      47.856   5.588  17.862  0.00  0.00    +0.000 C 
ATOM     21  O   UNL     1      47.199   4.890  18.628  0.00  0.00    +0.000 OA
ATOM     22  H   UNL     1      48.244   6.101  15.920  0.00  0.00    +0.000 HD
BRANCH  20  23
ATOM     23  C   UNL     1      48.655   6.713  18.361  0.00  0.00    +0.000 A 
ATOM     24  C   UNL     1      48.066   7.659  19.191  0.00  0.00    +0.000 A 
ATOM     25  S   UNL     1      49.139   8.881  19.703  0.00  0.00    +0.000 S 
ATOM     26  C   UNL     1      50.417   8.216  18.794  0.00  0.00    +0.000 A 
ATOM     27  N   UNL     1      51.638   8.813  18.765  0.00  0.00    +0.000 NA
ATOM     28  C   UNL     1      52.502   8.222  18.008  0.00  0.00    +0.000 A 
ATOM     29  N   UNL     1      52.258   7.081  17.290  0.00  0.00    +0.000 N 
ATOM     30  C   UNL     1      51.054   6.420  17.325  0.00  0.00    +0.000 A 
ATOM     31  O   UNL     1      50.889   5.359  16.729  0.00  0.00    +0.000 OA
ATOM     32  C   UNL     1      50.036   7.061  18.136  0.00  0.00    +0.000 A 
ATOM     33  H   UNL     1      52.985   6.659  16.729  0.00  0.00    +0.000 HD
ENDBRANCH  20  23
ENDBRANCH   2  19
TORSDOF 6
ENDMDL
MODEL 5
REMARK VINA RESULT:    -6.609      3.056      9.491
REMARK INTER + INTRA:         -10.377
REMARK INTER:                  -9.200
REMARK INTRA:                  -1.177
REMARK UNBOUND:                -1.449
REMARK  Name = 
REMARK  7 active torsions:
REMARK  status: ('A' for Active; 'I' for Inactive)
REMARK    1  A    between atoms: C_1  and  C_2
REMARK    2  A    between atoms: C_2  and  N_3
REMARK    3  A    between atoms: C_2  and  C_16
REMARK    4  A    between atoms: C_4  and  C_6
REMARK    5  A    between atoms: C_19  and  C_20
REMARK    6  A    between atoms: C_20  and  N_21
REMARK    7  A    between atoms: C_22  and  C_24
REMARK                            x       y       z     vdW  Elec       q    Type
REMARK                         _______ _______ _______ _____ _____    ______ ____
ROOT
ATOM      1  C   UNL     1      49.276   7.817  13.458  0.00  0.00    +0.000 C 
ATOM      2  C   UNL     1      48.084   7.110  14.113  0.00  0.00    +0.000 C 
ENDROOT
BRANCH   2   3
ATOM      3  C   UNL     1      48.555   6.243  15.276  0.00  0.00    +0.000 A 
ATOM      4  C   UNL     1      47.818   5.123  15.681  0.00  0.00    +0.000 A 
ATOM      5  C   UNL     1      48.280   4.301  16.716  0.00  0.00    +0.000 A 
ATOM      6  C   UNL     1      49.486   4.584  17.374  0.00  0.00    +0.000 A 
ATOM      7  C   UNL     1      50.224   5.702  16.971  0.00  0.00    +0.000 A 
ATOM      8  C   UNL     1      49.762   6.524  15.941  0.00  0.00    +0.000 A 
BRANCH   6   9
ATOM      9  C   UNL     1      50.001   3.686  18.469  0.00  0.00    +0.000 C 
BRANCH   9  10
ATOM     10  N   UNL     1      51.403   3.382  18.288  0.00  0.00    +0.000 N 
ATOM     11  C   UNL     1      51.797   2.221  17.657  0.00  0.00    +0.000 C 
ATOM     12  O   UNL     1      50.995   1.414  17.197  0.00  0.00    +0.000 OA
ATOM     13  H   UNL     1      52.081   4.086  18.545  0.00  0.00    +0.000 HD
BRANCH  11  14
ATOM     14  C   UNL     1      53.308   2.047  17.559  0.00  0.00    +0.000 C 
ATOM     15  C   UNL     1      53.722   0.683  17.046  0.00  0.00    +0.000 C 
ATOM     16  C   UNL     1      53.743  -0.155  18.305  0.00  0.00    +0.000 C 
ATOM     17  O   UNL     1      54.135   0.723  19.369  0.00  0.00    +0.000 OA
ATOM     18  C   UNL     1      53.951   2.079  18.935  0.00  0.00    +0.000 C 
ENDBRANCH  11  14
ENDBRANCH   9  10
ENDBRANCH   6   9
ENDBRANCH   2   3
BRANCH   2  19
ATOM     19  N   UNL     1      47.340   6.274  13.182  0.00  0.00    +0.000 N 
ATOM     20  C   UNL     1      46.493   6.769  12.225  0.00  0.00    +0.000 C 
ATOM     21  O   UNL     1      46.326   7.970  12.038  0.00  0.00    +0.000 OA
ATOM     22  H   UNL     1      47.196   5.314  13.479  0.00  0.00    +0.000 HD
BRANCH  20  23
ATOM     23  C   UNL     1      45.843   5.772  11.366  0.00  0.00    +0.000 A 
ATOM     24  C   UNL     1      46.015   5.836   9.988  0.00  0.00    +0.000 A 
ATOM     25  S   UNL     1      45.217   4.588   9.143  0.00  0.00    +0.000 S 
ATOM     26  C   UNL     1      44.574   3.948  10.584  0.00  0.00    +0.000 A 
ATOM     27  N   UNL     1      43.752   2.865  10.562  0.00  0.00    +0.000 NA
ATOM     28  C   UNL     1      43.309   2.508  11.722  0.00  0.00    +0.000 A 
ATOM     29  N   UNL     1      43.627   3.128  12.902  0.00  0.00    +0.000 N 
ATOM     30  C   UNL     1      44.489   4.195  12.977  0.00  0.00    +0.000 A 
ATOM     31  O   UNL     1      44.812   4.683  14.056  0.00  0.00    +0.000 OA
ATOM     32  C   UNL     1      44.989   4.658  11.696  0.00  0.00    +0.000 A 
ATOM     33  H   UNL     1      43.259   2.786  13.779  0.00  0.00    +0.000 HD
ENDBRANCH  20  23
ENDBRANCH   2  19
TORSDOF 6
ENDMDL
MODEL 6
REMARK VINA RESULT:    -6.581      3.060      9.712
REMARK INTER + INTRA:         -10.339
REMARK INTER:                  -9.101
REMARK INTRA:                  -1.238
REMARK UNBOUND:                -1.449
REMARK  Name = 
REMARK  7 active torsions:
REMARK  status: ('A' for Active; 'I' for Inactive)
REMARK    1  A    between atoms: C_1  and  C_2
REMARK    2  A    between atoms: C_2  and  N_3
REMARK    3  A    between atoms: C_2  and  C_16
REMARK    4  A    between atoms: C_4  and  C_6
REMARK    5  A    between atoms: C_19  and  C_20
REMARK    6  A    between atoms: C_20  and  N_21
REMARK    7  A    between atoms: C_22  and  C_24
REMARK                            x       y       z     vdW  Elec       q    Type
REMARK                         _______ _______ _______ _____ _____    ______ ____
ROOT
ATOM      1  C   UNL     1      46.781   3.279  17.759  0.00  0.00    +0.000 C 
ATOM      2  C   UNL     1      47.630   3.523  16.507  0.00  0.00    +0.000 C 
ENDROOT
BRANCH   2   3
ATOM      3  C   UNL     1      48.997   4.078  16.892  0.00  0.00    +0.000 A 
ATOM      4  C   UNL     1      49.995   3.239  17.404  0.00  0.00    +0.000 A 
ATOM      5  C   UNL     1      51.265   3.744  17.709  0.00  0.00    +0.000 A 
ATOM      6  C   UNL     1      51.563   5.101  17.517  0.00  0.00    +0.000 A 
ATOM      7  C   UNL     1      50.567   5.941  17.006  0.00  0.00    +0.000 A 
ATOM      8  C   UNL     1      49.300   5.438  16.704  0.00  0.00    +0.000 A 
BRANCH   6   9
ATOM      9  C   UNL     1      52.936   5.643  17.817  0.00  0.00    +0.000 C 
BRANCH   9  10
ATOM     10  N   UNL     1      53.808   4.615  18.343  0.00  0.00    +0.000 N 
ATOM     11  C   UNL     1      54.881   4.158  17.608  0.00  0.00    +0.000 C 
ATOM     12  O   UNL     1      55.168   4.611  16.505  0.00  0.00    +0.000 OA
ATOM     13  H   UNL     1      53.669   4.315  19.298  0.00  0.00    +0.000 HD
BRANCH  11  14
ATOM     14  C   UNL     1      55.691   3.068  18.300  0.00  0.00    +0.000 C 
ATOM     15  C   UNL     1      55.546   1.709  17.647  0.00  0.00    +0.000 C 
ATOM     16  C   UNL     1      54.303   1.153  18.305  0.00  0.00    +0.000 C 
ATOM     17  O   UNL     1      54.282   1.678  19.640  0.00  0.00    +0.000 OA
ATOM     18  C   UNL     1      55.167   2.807  19.702  0.00  0.00    +0.000 C 
ENDBRANCH  11  14
ENDBRANCH   9  10
ENDBRANCH   6   9
ENDBRANCH   2   3
BRANCH   2  19
ATOM     19  N   UNL     1      47.003   4.442  15.568  0.00  0.00    +0.000 N 
ATOM     20  C   UNL     1      46.838   4.172  14.234  0.00  0.00    +0.000 C 
ATOM     21  O   UNL     1      47.163   3.105  13.724  0.00  0.00    +0.000 OA
ATOM     22  H   UNL     1      47.003   5.418  15.849  0.00  0.00    +0.000 HD
BRANCH  20  23
ATOM     23  C   UNL     1      46.168   5.214  13.447  0.00  0.00    +0.000 A 
ATOM     24  C   UNL     1      46.783   6.449  13.278  0.00  0.00    +0.000 A 
ATOM     25  S   UNL     1      45.885   7.532  12.315  0.00  0.00    +0.000 S 
ATOM     26  C   UNL     1      44.620   6.407  12.131  0.00  0.00    +0.000 A 
ATOM     27  N   UNL     1      43.500   6.723  11.429  0.00  0.00    +0.000 NA
ATOM     28  C   UNL     1      42.607   5.790  11.400  0.00  0.00    +0.000 A 
ATOM     29  N   UNL     1      42.741   4.564  11.998  0.00  0.00    +0.000 N 
ATOM     30  C   UNL     1      43.873   4.186  12.679  0.00  0.00    +0.000 A 
ATOM     31  O   UNL     1      43.994   3.054  13.141  0.00  0.00    +0.000 OA
ATOM     32  C   UNL     1      44.895   5.211  12.769  0.00  0.00    +0.000 A 
ATOM     33  H   UNL     1      42.010   3.871  11.922  0.00  0.00    +0.000 HD
ENDBRANCH  20  23
ENDBRANCH   2  19
TORSDOF 6
ENDMDL
MODEL 7
REMARK VINA RESULT:    -6.555      3.432      4.715
REMARK INTER + INTRA:         -10.304
REMARK INTER:                  -9.182
REMARK INTRA:                  -1.122
REMARK UNBOUND:                -1.449
REMARK  Name = 
REMARK  7 active torsions:
REMARK  status: ('A' for Active; 'I' for Inactive)
REMARK    1  A    between atoms: C_1  and  C_2
REMARK    2  A    between atoms: C_2  and  N_3
REMARK    3  A    between atoms: C_2  and  C_16
REMARK    4  A    between atoms: C_4  and  C_6
REMARK    5  A    between atoms: C_19  and  C_20
REMARK    6  A    between atoms: C_20  and  N_21
REMARK    7  A    between atoms: C_22  and  C_24
REMARK                            x       y       z     vdW  Elec       q    Type
REMARK                         _______ _______ _______ _____ _____    ______ ____
ROOT
ATOM      1  C   UNL     1      49.069   8.376  13.087  0.00  0.00    +0.000 C 
ATOM      2  C   UNL     1      48.856   6.931  13.554  0.00  0.00    +0.000 C 
ENDROOT
BRANCH   2   3
ATOM      3  C   UNL     1      47.554   6.377  12.989  0.00  0.00    +0.000 A 
ATOM      4  C   UNL     1      46.771   5.483  13.731  0.00  0.00    +0.000 A 
ATOM      5  C   UNL     1      45.550   5.015  13.229  0.00  0.00    +0.000 A 
ATOM      6  C   UNL     1      45.088   5.425  11.970  0.00  0.00    +0.000 A 
ATOM      7  C   UNL     1      45.868   6.318  11.227  0.00  0.00    +0.000 A 
ATOM      8  C   UNL     1      47.086   6.782  11.726  0.00  0.00    +0.000 A 
BRANCH   6   9
ATOM      9  C   UNL     1      43.762   4.947  11.438  0.00  0.00    +0.000 C 
BRANCH   9  10
ATOM     10  N   UNL     1      43.908   4.306  10.150  0.00  0.00    +0.000 N 
ATOM     11  C   UNL     1      44.543   3.087  10.037  0.00  0.00    +0.000 C 
ATOM     12  O   UNL     1      44.980   2.478  11.008  0.00  0.00    +0.000 OA
ATOM     13  H   UNL     1      43.447   4.725   9.354  0.00  0.00    +0.000 HD
BRANCH  11  14
ATOM     14  C   UNL     1      44.622   2.556   8.611  0.00  0.00    +0.000 C 
ATOM     15  C   UNL     1      45.937   1.870   8.300  0.00  0.00    +0.000 C 
ATOM     16  C   UNL     1      46.823   3.022   7.882  0.00  0.00    +0.000 C 
ATOM     17  O   UNL     1      45.969   3.980   7.243  0.00  0.00    +0.000 OA
ATOM     18  C   UNL     1      44.609   3.693   7.604  0.00  0.00    +0.000 C 
ENDBRANCH  11  14
ENDBRANCH   9  10
ENDBRANCH   6   9
ENDBRANCH   2   3
BRANCH   2  19
ATOM     19  N   UNL     1      48.824   6.805  15.004  0.00  0.00    +0.000 N 
ATOM     20  C   UNL     1      49.937   6.895  15.800  0.00  0.00    +0.000 C 
ATOM     21  O   UNL     1      51.055   7.139  15.360  0.00  0.00    +0.000 OA
ATOM     22  H   UNL     1      48.022   6.309  15.380  0.00  0.00    +0.000 HD
BRANCH  20  23
ATOM     23  C   UNL     1      49.705   6.758  17.244  0.00  0.00    +0.000 A 
ATOM     24  C   UNL     1      50.026   7.809  18.094  0.00  0.00    +0.000 A 
ATOM     25  S   UNL     1      49.668   7.496  19.731  0.00  0.00    +0.000 S 
ATOM     26  C   UNL     1      49.117   5.927  19.368  0.00  0.00    +0.000 A 
ATOM     27  N   UNL     1      48.689   5.091  20.351  0.00  0.00    +0.000 NA
ATOM     28  C   UNL     1      48.332   3.920  19.939  0.00  0.00    +0.000 A 
ATOM     29  N   UNL     1      48.352   3.515  18.630  0.00  0.00    +0.000 N 
ATOM     30  C   UNL     1      48.734   4.340  17.599  0.00  0.00    +0.000 A 
ATOM     31  O   UNL     1      48.671   3.973  16.429  0.00  0.00    +0.000 OA
ATOM     32  C   UNL     1      49.176   5.658  18.012  0.00  0.00    +0.000 A 
ATOM     33  H   UNL     1      48.043   2.588  18.372  0.00  0.00    +0.000 HD
ENDBRANCH  20  23
ENDBRANCH   2  19
TORSDOF 6
ENDMDL
MODEL 8
REMARK VINA RESULT:    -6.498      4.429      6.090
REMARK INTER + INTRA:         -10.227
REMARK INTER:                  -9.397
REMARK INTRA:                  -0.830
REMARK UNBOUND:                -1.449
REMARK  Name = 
REMARK  7 active torsions:
REMARK  status: ('A' for Active; 'I' for Inactive)
REMARK    1  A    between atoms: C_1  and  C_2
REMARK    2  A    between atoms: C_2  and  N_3
REMARK    3  A    between atoms: C_2  and  C_16
REMARK    4  A    between atoms: C_4  and  C_6
REMARK    5  A    between atoms: C_19  and  C_20
REMARK    6  A    between atoms: C_20  and  N_21
REMARK    7  A    between atoms: C_22  and  C_24
REMARK                            x       y       z     vdW  Elec       q    Type
REMARK                         _______ _______ _______ _____ _____    ______ ____
ROOT
ATOM      1  C   UNL     1      47.520   3.252  14.534  0.00  0.00    +0.000 C 
ATOM      2  C   UNL     1      46.666   4.520  14.416  0.00  0.00    +0.000 C 
ENDROOT
BRANCH   2   3
ATOM      3  C   UNL     1      45.953   4.556  13.070  0.00  0.00    +0.000 A 
ATOM      4  C   UNL     1      45.901   5.736  12.315  0.00  0.00    +0.000 A 
ATOM      5  C   UNL     1      45.288   5.752  11.056  0.00  0.00    +0.000 A 
ATOM      6  C   UNL     1      44.707   4.591  10.526  0.00  0.00    +0.000 A 
ATOM      7  C   UNL     1      44.757   3.412  11.278  0.00  0.00    +0.000 A 
ATOM      8  C   UNL     1      45.365   3.396  12.534  0.00  0.00    +0.000 A 
BRANCH   6   9
ATOM      9  C   UNL     1      44.072   4.596   9.160  0.00  0.00    +0.000 C 
BRANCH   9  10
ATOM     10  N   UNL     1      44.508   3.467   8.369  0.00  0.00    +0.000 N 
ATOM     11  C   UNL     1      45.617   3.563   7.556  0.00  0.00    +0.000 C 
ATOM     12  O   UNL     1      46.299   4.580   7.485  0.00  0.00    +0.000 OA
ATOM     13  H   UNL     1      44.040   2.581   8.504  0.00  0.00    +0.000 HD
BRANCH  11  14
ATOM     14  C   UNL     1      45.934   2.288   6.782  0.00  0.00    +0.000 C 
ATOM     15  C   UNL     1      46.947   1.402   7.476  0.00  0.00    +0.000 C 
ATOM     16  C   UNL     1      48.267   1.972   7.007  0.00  0.00    +0.000 C 
ATOM     17  O   UNL     1      48.046   2.462   5.678  0.00  0.00    +0.000 OA
ATOM     18  C   UNL     1      46.632   2.606   5.471  0.00  0.00    +0.000 C 
ENDBRANCH  11  14
ENDBRANCH   9  10
ENDBRANCH   6   9
ENDBRANCH   2   3
BRANCH   2  19
ATOM     19  N   UNL     1      47.445   5.742  14.562  0.00  0.00    +0.000 N 
ATOM     20  C   UNL     1      48.333   5.961  15.583  0.00  0.00    +0.000 C 
ATOM     21  O   UNL     1      48.584   5.120  16.442  0.00  0.00    +0.000 OA
ATOM     22  H   UNL     1      47.067   6.558  14.092  0.00  0.00    +0.000 HD
BRANCH  20  23
ATOM     23  C   UNL     1      49.040   7.247  15.554  0.00  0.00    +0.000 A 
ATOM     24  C   UNL     1      49.173   7.984  16.725  0.00  0.00    +0.000 A 
ATOM     25  S   UNL     1      50.043   9.436  16.521  0.00  0.00    +0.000 S 
ATOM     26  C   UNL     1      50.230   9.155  14.853  0.00  0.00    +0.000 A 
ATOM     27  N   UNL     1      50.869  10.055  14.059  0.00  0.00    +0.000 NA
ATOM     28  C   UNL     1      50.907   9.732  12.810  0.00  0.00    +0.000 A 
ATOM     29  N   UNL     1      50.376   8.583  12.284  0.00  0.00    +0.000 N 
ATOM     30  C   UNL     1      49.762   7.625  13.054  0.00  0.00    +0.000 A 
ATOM     31  O   UNL     1      49.362   6.572  12.567  0.00  0.00    +0.000 OA
ATOM     32  C   UNL     1      49.664   7.955  14.464  0.00  0.00    +0.000 A 
ATOM     33  H   UNL     1      50.456   8.383  11.297  0.00  0.00    +0.000 HD
ENDBRANCH  20  23
ENDBRANCH   2  19
TORSDOF 6
ENDMDL
MODEL 9
REMARK VINA RESULT:    -6.220      3.307      9.385
REMARK INTER + INTRA:          -9.852
REMARK INTER:                  -8.435
REMARK INTRA:                  -1.416
REMARK UNBOUND:                -1.449
REMARK  Name = 
REMARK  7 active torsions:
REMARK  status: ('A' for Active; 'I' for Inactive)
REMARK    1  A    between atoms: C_1  and  C_2
REMARK    2  A    between atoms: C_2  and  N_3
REMARK    3  A    between atoms: C_2  and  C_16
REMARK    4  A    between atoms: C_4  and  C_6
REMARK    5  A    between atoms: C_19  and  C_20
REMARK    6  A    between atoms: C_20  and  N_21
REMARK    7  A    between atoms: C_22  and  C_24
REMARK                            x       y       z     vdW  Elec       q    Type
REMARK                         _______ _______ _______ _____ _____    ______ ____
ROOT
ATOM      1  C   UNL     1      47.066   5.157  18.459  0.00  0.00    +0.000 C 
ATOM      2  C   UNL     1      47.396   4.316  17.220  0.00  0.00    +0.000 C 
ENDROOT
BRANCH   2   3
ATOM      3  C   UNL     1      48.814   3.765  17.316  0.00  0.00    +0.000 A 
ATOM      4  C   UNL     1      49.889   4.600  17.647  0.00  0.00    +0.000 A 
ATOM      5  C   UNL     1      51.182   4.080  17.783  0.00  0.00    +0.000 A 
ATOM      6  C   UNL     1      51.431   2.714  17.585  0.00  0.00    +0.000 A 
ATOM      7  C   UNL     1      50.358   1.877  17.255  0.00  0.00    +0.000 A 
ATOM      8  C   UNL     1      49.070   2.396  17.116  0.00  0.00    +0.000 A 
BRANCH   6   9
ATOM      9  C   UNL     1      52.815   2.145  17.759  0.00  0.00    +0.000 C 
BRANCH   9  10
ATOM     10  N   UNL     1      53.729   3.129  18.294  0.00  0.00    +0.000 N 
ATOM     11  C   UNL     1      54.399   2.900  19.477  0.00  0.00    +0.000 C 
ATOM     12  O   UNL     1      54.282   1.857  20.111  0.00  0.00    +0.000 OA
ATOM     13  H   UNL     1      53.939   3.941  17.729  0.00  0.00    +0.000 HD
BRANCH  11  14
ATOM     14  C   UNL     1      55.314   4.041  19.906  0.00  0.00    +0.000 C 
ATOM     15  C   UNL     1      54.823   4.771  21.139  0.00  0.00    +0.000 C 
ATOM     16  C   UNL     1      53.873   5.798  20.563  0.00  0.00    +0.000 C 
ATOM     17  O   UNL     1      54.395   6.156  19.277  0.00  0.00    +0.000 OA
ATOM     18  C   UNL     1      55.331   5.147  18.865  0.00  0.00    +0.000 C 
ENDBRANCH  11  14
ENDBRANCH   9  10
ENDBRANCH   6   9
ENDBRANCH   2   3
BRANCH   2  19
ATOM     19  N   UNL     1      47.273   5.066  15.979  0.00  0.00    +0.000 N 
ATOM     20  C   UNL     1      47.184   4.480  14.742  0.00  0.00    +0.000 C 
ATOM     21  O   UNL     1      47.153   3.264  14.580  0.00  0.00    +0.000 OA
ATOM     22  H   UNL     1      47.599   6.027  16.016  0.00  0.00    +0.000 HD
BRANCH  20  23
ATOM     23  C   UNL     1      47.048   5.399  13.605  0.00  0.00    +0.000 A 
ATOM     24  C   UNL     1      45.989   5.244  12.720  0.00  0.00    +0.000 A 
ATOM     25  S   UNL     1      45.964   6.410  11.476  0.00  0.00    +0.000 S 
ATOM     26  C   UNL     1      47.394   7.133  12.049  0.00  0.00    +0.000 A 
ATOM     27  N   UNL     1      47.951   8.191  11.401  0.00  0.00    +0.000 NA
ATOM     28  C   UNL     1      49.052   8.617  11.924  0.00  0.00    +0.000 A 
ATOM     29  N   UNL     1      49.640   8.089  13.044  0.00  0.00    +0.000 N 
ATOM     30  C   UNL     1      49.089   7.050  13.756  0.00  0.00    +0.000 A 
ATOM     31  O   UNL     1      49.600   6.647  14.797  0.00  0.00    +0.000 OA
ATOM     32  C   UNL     1      47.866   6.512  13.191  0.00  0.00    +0.000 A 
ATOM     33  H   UNL     1      50.495   8.482  13.411  0.00  0.00    +0.000 HD
ENDBRANCH  20  23
ENDBRANCH   2  19
TORSDOF 6
ENDMDL
