MODEL 1
REMARK VINA RESULT:    -7.849      0.000      0.000
REMARK INTER + INTRA:         -11.406
REMARK INTER:                 -10.602
REMARK INTRA:                  -0.804
REMARK UNBOUND:                -0.804
REMARK  Name = 
REMARK  7 active torsions:
REMARK  status: ('A' for Active; 'I' for Inactive)
REMARK    1  A    between atoms: C_1  and  O_2
REMARK    2  A    between atoms: O_2  and  C_3
REMARK    3  A    between atoms: C_5  and  O_6
REMARK    4  A    between atoms: O_6  and  C_7
REMARK    5  A    between atoms: C_10  and  C_11
REMARK    6  A    between atoms: C_11  and  N_12
REMARK    7  A    between atoms: C_13  and  C_15
REMARK                            x       y       z     vdW  Elec       q    Type
REMARK                         _______ _______ _______ _____ _____    ______ ____
ROOT
ATOM      1  C   UNL     1      47.322   8.362  13.395  0.00  0.00    +0.000 C 
ENDROOT
BRANCH   1   5
ATOM      2  C   UNL     1      44.961   5.611  11.057  0.00  0.00    +0.000 A 
ATOM      3  C   UNL     1      44.592   6.955  11.129  0.00  0.00    +0.000 A 
ATOM      4  C   UNL     1      45.333   7.841  11.918  0.00  0.00    +0.000 A 
ATOM      5  C   UNL     1      46.453   7.394  12.636  0.00  0.00    +0.000 A 
ATOM      6  C   UNL     1      46.762   6.029  12.622  0.00  0.00    +0.000 A 
ATOM      7  C   UNL     1      46.012   5.141  11.851  0.00  0.00    +0.000 A 
BRANCH   2   8
ATOM      8  O   UNL     1      44.238   4.786  10.218  0.00  0.00    +0.000 OA
BRANCH   8  11
ATOM      9  C   UNL     1      45.752   2.094   8.391  0.00  0.00    +0.000 A 
ATOM     10  C   UNL     1      44.946   2.722   9.310  0.00  0.00    +0.000 A 
ATOM     11  C   UNL     1      44.963   4.093   9.250  0.00  0.00    +0.000 A 
ATOM     12  N   UNL     1      45.656   4.794   8.330  0.00  0.00    +0.000 NA
ATOM     13  C   UNL     1      46.405   4.075   7.493  0.00  0.00    +0.000 A 
ATOM     14  N   UNL     1      46.498   2.742   7.479  0.00  0.00    +0.000 NA
BRANCH   9  16
ATOM     15  C   UNL     1      46.835   0.169   7.622  0.00  0.00    +0.000 C 
ATOM     16  O   UNL     1      45.803   0.718   8.452  0.00  0.00    +0.000 OA
ENDBRANCH   9  16
ENDBRANCH   8  11
ENDBRANCH   2   8
ENDBRANCH   1   5
BRANCH   1  17
ATOM     17  N   UNL     1      47.569   7.935  14.747  0.00  0.00    +0.000 N 
ATOM     18  C   UNL     1      48.706   7.228  15.056  0.00  0.00    +0.000 C 
ATOM     19  O   UNL     1      49.532   6.933  14.196  0.00  0.00    +0.000 OA
ATOM     20  H   UNL     1      47.029   8.379  15.484  0.00  0.00    +0.000 HD
BRANCH  18  21
ATOM     21  C   UNL     1      48.854   6.766  16.442  0.00  0.00    +0.000 A 
ATOM     22  C   UNL     1      49.473   7.578  17.384  0.00  0.00    +0.000 A 
ATOM     23  S   UNL     1      49.812   6.775  18.853  0.00  0.00    +0.000 S 
ATOM     24  C   UNL     1      49.092   5.339  18.293  0.00  0.00    +0.000 A 
ATOM     25  N   UNL     1      49.130   4.194  19.026  0.00  0.00    +0.000 NA
ATOM     26  C   UNL     1      48.505   3.200  18.489  0.00  0.00    +0.000 A 
ATOM     27  N   UNL     1      47.807   3.258  17.310  0.00  0.00    +0.000 N 
ATOM     28  C   UNL     1      47.707   4.405  16.559  0.00  0.00    +0.000 A 
ATOM     29  O   UNL     1      46.972   4.470  15.581  0.00  0.00    +0.000 OA
ATOM     30  C   UNL     1      48.499   5.512  17.055  0.00  0.00    +0.000 A 
ATOM     31  H   UNL     1      47.268   2.468  16.987  0.00  0.00    +0.000 HD
ENDBRANCH  18  21
ENDBRANCH   1  17
TORSDOF 6
ENDMDL
MODEL 2
REMARK VINA RESULT:    -7.685      1.251      1.457
REMARK INTER + INTRA:         -11.185
REMARK INTER:                 -10.152
REMARK INTRA:                  -1.032
REMARK UNBOUND:                -0.804
REMARK  Name = 
REMARK  7 active torsions:
REMARK  status: ('A' for Active; 'I' for Inactive)
REMARK    1  A    between atoms: C_1  and  O_2
REMARK    2  A    between atoms: O_2  and  C_3
REMARK    3  A    between atoms: C_5  and  O_6
REMARK    4  A    between atoms: O_6  and  C_7
REMARK    5  A    between atoms: C_10  and  C_11
REMARK    6  A    between atoms: C_11  and  N_12
REMARK    7  A    between atoms: C_13  and  C_15
REMARK                            x       y       z     vdW  Elec       q    Type
REMARK                         _______ _______ _______ _____ _____    ______ ____
ROOT
ATOM      1  C   UNL     1      47.811   8.156  13.624  0.00  0.00    +0.000 C 
ENDROOT
BRANCH   1   5
ATOM      2  C   UNL     1      44.849   5.828  11.522  0.00  0.00    +0.000 A 
ATOM      3  C   UNL     1      44.855   7.218  11.399  0.00  0.00    +0.000 A 
ATOM      4  C   UNL     1      45.789   7.978  12.111  0.00  0.00    +0.000 A 
ATOM      5  C   UNL     1      46.730   7.356  12.946  0.00  0.00    +0.000 A 
ATOM      6  C   UNL     1      46.660   5.970  13.124  0.00  0.00    +0.000 A 
ATOM      7  C   UNL     1      45.717   5.213  12.430  0.00  0.00    +0.000 A 
BRANCH   2   8
ATOM      8  O   UNL     1      43.950   5.115  10.754  0.00  0.00    +0.000 OA
BRANCH   8  11
ATOM      9  C   UNL     1      45.681   3.642   7.977  0.00  0.00    +0.000 A 
ATOM     10  C   UNL     1      45.256   4.616   8.848  0.00  0.00    +0.000 A 
ATOM     11  C   UNL     1      44.488   4.162   9.891  0.00  0.00    +0.000 A 
ATOM     12  N   UNL     1      44.211   2.860  10.105  0.00  0.00    +0.000 NA
ATOM     13  C   UNL     1      44.675   2.007   9.190  0.00  0.00    +0.000 A 
ATOM     14  N   UNL     1      45.399   2.333   8.117  0.00  0.00    +0.000 NA
BRANCH   9  16
ATOM     15  C   UNL     1      46.817   2.977   6.043  0.00  0.00    +0.000 C 
ATOM     16  O   UNL     1      46.411   4.063   6.887  0.00  0.00    +0.000 OA
ENDBRANCH   9  16
ENDBRANCH   8  11
ENDBRANCH   2   8
ENDBRANCH   1   5
BRANCH   1  17
ATOM     17  N   UNL     1      47.889   7.886  15.036  0.00  0.00    +0.000 N 
ATOM     18  C   UNL     1      48.922   7.135  15.543  0.00  0.00    +0.000 C 
ATOM     19  O   UNL     1      49.794   6.668  14.815  0.00  0.00    +0.000 OA
ATOM     20  H   UNL     1      47.326   8.462  15.655  0.00  0.00    +0.000 HD
BRANCH  18  21
ATOM     21  C   UNL     1      48.896   6.843  16.983  0.00  0.00    +0.000 A 
ATOM     22  C   UNL     1      49.365   7.782  17.892  0.00  0.00    +0.000 A 
ATOM     23  S   UNL     1      49.525   7.170  19.478  0.00  0.00    +0.000 S 
ATOM     24  C   UNL     1      48.922   5.650  19.006  0.00  0.00    +0.000 A 
ATOM     25  N   UNL     1      48.890   4.600  19.870  0.00  0.00    +0.000 NA
ATOM     26  C   UNL     1      48.366   3.526  19.380  0.00  0.00    +0.000 A 
ATOM     27  N   UNL     1      47.830   3.420  18.122  0.00  0.00    +0.000 N 
ATOM     28  C   UNL     1      47.803   4.467  17.234  0.00  0.00    +0.000 A 
ATOM     29  O   UNL     1      47.202   4.390  16.167  0.00  0.00    +0.000 OA
ATOM     30  C   UNL     1      48.494   5.655  17.691  0.00  0.00    +0.000 A 
ATOM     31  H   UNL     1      47.358   2.576  17.830  0.00  0.00    +0.000 HD
ENDBRANCH  18  21
ENDBRANCH   1  17
TORSDOF 6
ENDMDL
MODEL 3
REMARK VINA RESULT:    -7.321      1.782      2.363
REMARK INTER + INTRA:         -10.693
REMARK INTER:                  -9.422
REMARK INTRA:                  -1.271
REMARK UNBOUND:                -0.804
REMARK  Name = 
REMARK  7 active torsions:
REMARK  status: ('A' for Active; 'I' for Inactive)
REMARK    1  A    between atoms: C_1  and  O_2
REMARK    2  A    between atoms: O_2  and  C_3
REMARK    3  A    between atoms: C_5  and  O_6
REMARK    4  A    between atoms: O_6  and  C_7
REMARK    5  A    between atoms: C_10  and  C_11
REMARK    6  A    between atoms: C_11  and  N_12
REMARK    7  A    between atoms: C_13  and  C_15
REMARK                            x       y       z     vdW  Elec       q    Type
REMARK                         _______ _______ _______ _____ _____    ______ ____
ROOT
ATOM      1  C   UNL     1      48.365   8.686  14.378  0.00  0.00    +0.000 C 
ENDROOT
BRANCH   1   5
ATOM      2  C   UNL     1      45.518   7.150  11.525  0.00  0.00    +0.000 A 
ATOM      3  C   UNL     1      46.802   6.608  11.585  0.00  0.00    +0.000 A 
ATOM      4  C   UNL     1      47.739   7.131  12.482  0.00  0.00    +0.000 A 
ATOM      5  C   UNL     1      47.401   8.195  13.332  0.00  0.00    +0.000 A 
ATOM      6  C   UNL     1      46.138   8.784  13.203  0.00  0.00    +0.000 A 
ATOM      7  C   UNL     1      45.208   8.275  12.295  0.00  0.00    +0.000 A 
BRANCH   2   8
ATOM      8  O   UNL     1      44.607   6.563  10.669  0.00  0.00    +0.000 OA
BRANCH   8  11
ATOM      9  C   UNL     1      43.960   3.053  10.295  0.00  0.00    +0.000 A 
ATOM     10  C   UNL     1      44.433   4.306   9.988  0.00  0.00    +0.000 A 
ATOM     11  C   UNL     1      44.233   5.253  10.962  0.00  0.00    +0.000 A 
ATOM     12  N   UNL     1      43.678   4.986  12.162  0.00  0.00    +0.000 NA
ATOM     13  C   UNL     1      43.255   3.735  12.343  0.00  0.00    +0.000 A 
ATOM     14  N   UNL     1      43.360   2.740  11.458  0.00  0.00    +0.000 NA
BRANCH   9  16
ATOM     15  C   UNL     1      45.439   1.969   8.843  0.00  0.00    +0.000 C 
ATOM     16  O   UNL     1      44.093   2.086   9.322  0.00  0.00    +0.000 OA
ENDBRANCH   9  16
ENDBRANCH   8  11
ENDBRANCH   2   8
ENDBRANCH   1   5
BRANCH   1  17
ATOM     17  N   UNL     1      48.334   7.885  15.573  0.00  0.00    +0.000 N 
ATOM     18  C   UNL     1      49.376   7.040  15.871  0.00  0.00    +0.000 C 
ATOM     19  O   UNL     1      50.350   6.935  15.129  0.00  0.00    +0.000 OA
ATOM     20  H   UNL     1      47.668   8.144  16.294  0.00  0.00    +0.000 HD
BRANCH  18  21
ATOM     21  C   UNL     1      49.240   6.202  17.070  0.00  0.00    +0.000 A 
ATOM     22  C   UNL     1      49.945   6.520  18.225  0.00  0.00    +0.000 A 
ATOM     23  S   UNL     1      49.892   5.292  19.411  0.00  0.00    +0.000 S 
ATOM     24  C   UNL     1      48.883   4.327  18.439  0.00  0.00    +0.000 A 
ATOM     25  N   UNL     1      48.533   3.067  18.812  0.00  0.00    +0.000 NA
ATOM     26  C   UNL     1      47.729   2.475  17.994  0.00  0.00    +0.000 A 
ATOM     27  N   UNL     1      47.208   3.044  16.860  0.00  0.00    +0.000 N 
ATOM     28  C   UNL     1      47.501   4.327  16.468  0.00  0.00    +0.000 A 
ATOM     29  O   UNL     1      46.923   4.860  15.527  0.00  0.00    +0.000 OA
ATOM     30  C   UNL     1      48.498   4.986  17.285  0.00  0.00    +0.000 A 
ATOM     31  H   UNL     1      46.517   2.557  16.307  0.00  0.00    +0.000 HD
ENDBRANCH  18  21
ENDBRANCH   1  17
TORSDOF 6
ENDMDL
MODEL 4
REMARK VINA RESULT:    -7.213      2.113      2.754
REMARK INTER + INTRA:         -10.548
REMARK INTER:                  -9.535
REMARK INTRA:                  -1.013
REMARK UNBOUND:                -0.804
REMARK  Name = 
REMARK  7 active torsions:
REMARK  status: ('A' for Active; 'I' for Inactive)
REMARK    1  A    between atoms: C_1  and  O_2
REMARK    2  A    between atoms: O_2  and  C_3
REMARK    3  A    between atoms: C_5  and  O_6
REMARK    4  A    between atoms: O_6  and  C_7
REMARK    5  A    between atoms: C_10  and  C_11
REMARK    6  A    between atoms: C_11  and  N_12
REMARK    7  A    between atoms: C_13  and  C_15
REMARK                            x       y       z     vdW  Elec       q    Type
REMARK                         _______ _______ _______ _____ _____    ______ ____
ROOT
ATOM      1  C   UNL     1      48.279   7.500  14.034  0.00  0.00    +0.000 C 
ENDROOT
BRANCH   1   5
ATOM      2  C   UNL     1      45.201   5.616  11.670  0.00  0.00    +0.000 A 
ATOM      3  C   UNL     1      45.422   6.989  11.555  0.00  0.00    +0.000 A 
ATOM      4  C   UNL     1      46.392   7.609  12.350  0.00  0.00    +0.000 A 
ATOM      5  C   UNL     1      47.156   6.862  13.260  0.00  0.00    +0.000 A 
ATOM      6  C   UNL     1      46.868   5.503  13.425  0.00  0.00    +0.000 A 
ATOM      7  C   UNL     1      45.887   4.887  12.647  0.00  0.00    +0.000 A 
BRANCH   2   8
ATOM      8  O   UNL     1      44.278   5.036  10.823  0.00  0.00    +0.000 OA
BRANCH   8  11
ATOM      9  C   UNL     1      45.854   3.608   7.933  0.00  0.00    +0.000 A 
ATOM     10  C   UNL     1      45.478   4.568   8.841  0.00  0.00    +0.000 A 
ATOM     11  C   UNL     1      44.767   4.097   9.917  0.00  0.00    +0.000 A 
ATOM     12  N   UNL     1      44.501   2.792  10.124  0.00  0.00    +0.000 NA
ATOM     13  C   UNL     1      44.913   1.954   9.172  0.00  0.00    +0.000 A 
ATOM     14  N   UNL     1      45.579   2.298   8.067  0.00  0.00    +0.000 NA
BRANCH   9  16
ATOM     15  C   UNL     1      46.751   2.999   5.860  0.00  0.00    +0.000 C 
ATOM     16  O   UNL     1      46.525   4.047   6.812  0.00  0.00    +0.000 OA
ENDBRANCH   9  16
ENDBRANCH   8  11
ENDBRANCH   2   8
ENDBRANCH   1   5
BRANCH   1  17
ATOM     17  N   UNL     1      48.231   7.179  15.436  0.00  0.00    +0.000 N 
ATOM     18  C   UNL     1      49.343   6.688  16.076  0.00  0.00    +0.000 C 
ATOM     19  O   UNL     1      50.397   6.498  15.475  0.00  0.00    +0.000 OA
ATOM     20  H   UNL     1      47.458   7.558  15.976  0.00  0.00    +0.000 HD
BRANCH  18  21
ATOM     21  C   UNL     1      49.195   6.317  17.490  0.00  0.00    +0.000 A 
ATOM     22  C   UNL     1      49.495   5.026  17.906  0.00  0.00    +0.000 A 
ATOM     23  S   UNL     1      48.997   4.696  19.506  0.00  0.00    +0.000 S 
ATOM     24  C   UNL     1      48.418   6.284  19.706  0.00  0.00    +0.000 A 
ATOM     25  N   UNL     1      47.756   6.660  20.833  0.00  0.00    +0.000 NA
ATOM     26  C   UNL     1      47.416   7.906  20.857  0.00  0.00    +0.000 A 
ATOM     27  N   UNL     1      47.718   8.819  19.879  0.00  0.00    +0.000 N 
ATOM     28  C   UNL     1      48.421   8.491  18.746  0.00  0.00    +0.000 A 
ATOM     29  O   UNL     1      48.794   9.347  17.951  0.00  0.00    +0.000 OA
ATOM     30  C   UNL     1      48.713   7.079  18.613  0.00  0.00    +0.000 A 
ATOM     31  H   UNL     1      47.497   9.797  19.999  0.00  0.00    +0.000 HD
ENDBRANCH  18  21
ENDBRANCH   1  17
TORSDOF 6
ENDMDL
MODEL 5
REMARK VINA RESULT:    -7.122      4.181      9.424
REMARK INTER + INTRA:         -10.425
REMARK INTER:                  -9.746
REMARK INTRA:                  -0.679
REMARK UNBOUND:                -0.804
REMARK  Name = 
REMARK  7 active torsions:
REMARK  status: ('A' for Active; 'I' for Inactive)
REMARK    1  A    between atoms: C_1  and  O_2
REMARK    2  A    between atoms: O_2  and  C_3
REMARK    3  A    between atoms: C_5  and  O_6
REMARK    4  A    between atoms: O_6  and  C_7
REMARK    5  A    between atoms: C_10  and  C_11
REMARK    6  A    between atoms: C_11  and  N_12
REMARK    7  A    between atoms: C_13  and  C_15
REMARK                            x       y       z     vdW  Elec       q    Type
REMARK                         _______ _______ _______ _____ _____    ______ ____
ROOT
ATOM      1  C   UNL     1      47.202   3.697  16.878  0.00  0.00    +0.000 C 
ENDROOT
BRANCH   1   5
ATOM      2  C   UNL     1      51.441   4.290  17.415  0.00  0.00    +0.000 A 
ATOM      3  C   UNL     1      50.900   3.008  17.522  0.00  0.00    +0.000 A 
ATOM      4  C   UNL     1      49.521   2.819  17.387  0.00  0.00    +0.000 A 
ATOM      5  C   UNL     1      48.670   3.907  17.138  0.00  0.00    +0.000 A 
ATOM      6  C   UNL     1      49.214   5.196  17.117  0.00  0.00    +0.000 A 
ATOM      7  C   UNL     1      50.587   5.388  17.270  0.00  0.00    +0.000 A 
BRANCH   2   8
ATOM      8  O   UNL     1      52.813   4.422  17.493  0.00  0.00    +0.000 OA
BRANCH   8  11
ATOM      9  C   UNL     1      54.625   1.745  19.051  0.00  0.00    +0.000 A 
ATOM     10  C   UNL     1      54.088   2.509  18.043  0.00  0.00    +0.000 A 
ATOM     11  C   UNL     1      53.458   3.656  18.461  0.00  0.00    +0.000 A 
ATOM     12  N   UNL     1      53.413   4.058  19.747  0.00  0.00    +0.000 NA
ATOM     13  C   UNL     1      53.967   3.232  20.636  0.00  0.00    +0.000 A 
ATOM     14  N   UNL     1      54.572   2.075  20.354  0.00  0.00    +0.000 NA
BRANCH   9  16
ATOM     15  C   UNL     1      54.265  -0.477  18.415  0.00  0.00    +0.000 C 
ATOM     16  O   UNL     1      55.220   0.559  18.678  0.00  0.00    +0.000 OA
ENDBRANCH   9  16
ENDBRANCH   8  11
ENDBRANCH   2   8
ENDBRANCH   1   5
BRANCH   1  17
ATOM     17  N   UNL     1      46.709   4.527  15.810  0.00  0.00    +0.000 N 
ATOM     18  C   UNL     1      46.800   4.106  14.505  0.00  0.00    +0.000 C 
ATOM     19  O   UNL     1      47.307   3.027  14.212  0.00  0.00    +0.000 OA
ATOM     20  H   UNL     1      46.082   5.286  16.058  0.00  0.00    +0.000 HD
BRANCH  18  21
ATOM     21  C   UNL     1      46.341   5.038  13.466  0.00  0.00    +0.000 A 
ATOM     22  C   UNL     1      47.102   6.157  13.149  0.00  0.00    +0.000 A 
ATOM     23  S   UNL     1      46.287   7.267  12.139  0.00  0.00    +0.000 S 
ATOM     24  C   UNL     1      44.918   6.261  12.052  0.00  0.00    +0.000 A 
ATOM     25  N   UNL     1      43.782   6.661  11.420  0.00  0.00    +0.000 NA
ATOM     26  C   UNL     1      42.845   5.773  11.400  0.00  0.00    +0.000 A 
ATOM     27  N   UNL     1      42.955   4.507  11.915  0.00  0.00    +0.000 N 
ATOM     28  C   UNL     1      44.098   4.047  12.523  0.00  0.00    +0.000 A 
ATOM     29  O   UNL     1      44.221   2.873  12.856  0.00  0.00    +0.000 OA
ATOM     30  C   UNL     1      45.132   5.048  12.683  0.00  0.00    +0.000 A 
ATOM     31  H   UNL     1      42.214   3.832  11.792  0.00  0.00    +0.000 HD
ENDBRANCH  18  21
ENDBRANCH   1  17
TORSDOF 6
ENDMDL
MODEL 6
REMARK VINA RESULT:    -6.831      3.894      8.829
REMARK INTER + INTRA:         -10.032
REMARK INTER:                  -9.113
REMARK INTRA:                  -0.918
REMARK UNBOUND:                -0.804
REMARK  Name = 
REMARK  7 active torsions:
REMARK  status: ('A' for Active; 'I' for Inactive)
REMARK    1  A    between atoms: C_1  and  O_2
REMARK    2  A    between atoms: O_2  and  C_3
REMARK    3  A    between atoms: C_5  and  O_6
REMARK    4  A    between atoms: O_6  and  C_7
REMARK    5  A    between atoms: C_10  and  C_11
REMARK    6  A    between atoms: C_11  and  N_12
REMARK    7  A    between atoms: C_13  and  C_15
REMARK                            x       y       z     vdW  Elec       q    Type
REMARK                         _______ _______ _______ _____ _____    ______ ____
ROOT
ATOM      1  C   UNL     1      47.231   3.660  16.674  0.00  0.00    +0.000 C 
ENDROOT
BRANCH   1   5
ATOM      2  C   UNL     1      51.171   4.917  17.901  0.00  0.00    +0.000 A 
ATOM      3  C   UNL     1      50.221   5.871  17.532  0.00  0.00    +0.000 A 
ATOM      4  C   UNL     1      48.956   5.463  17.095  0.00  0.00    +0.000 A 
ATOM      5  C   UNL     1      48.625   4.102  17.031  0.00  0.00    +0.000 A 
ATOM      6  C   UNL     1      49.613   3.154  17.325  0.00  0.00    +0.000 A 
ATOM      7  C   UNL     1      50.881   3.559  17.742  0.00  0.00    +0.000 A 
BRANCH   2   8
ATOM      8  O   UNL     1      52.384   5.366  18.384  0.00  0.00    +0.000 OA
BRANCH   8  11
ATOM      9  C   UNL     1      54.567   6.001  15.608  0.00  0.00    +0.000 A 
ATOM     10  C   UNL     1      53.528   6.190  16.487  0.00  0.00    +0.000 A 
ATOM     11  C   UNL     1      53.470   5.281  17.515  0.00  0.00    +0.000 A 
ATOM     12  N   UNL     1      54.385   4.310  17.708  0.00  0.00    +0.000 NA
ATOM     13  C   UNL     1      55.346   4.223  16.788  0.00  0.00    +0.000 A 
ATOM     14  N   UNL     1      55.484   5.023  15.727  0.00  0.00    +0.000 NA
BRANCH   9  16
ATOM     15  C   UNL     1      53.662   7.913  14.610  0.00  0.00    +0.000 C 
ATOM     16  O   UNL     1      54.631   6.859  14.532  0.00  0.00    +0.000 OA
ENDBRANCH   9  16
ENDBRANCH   8  11
ENDBRANCH   2   8
ENDBRANCH   1   5
BRANCH   1  17
ATOM     17  N   UNL     1      46.652   4.463  15.629  0.00  0.00    +0.000 N 
ATOM     18  C   UNL     1      46.784   4.092  14.313  0.00  0.00    +0.000 C 
ATOM     19  O   UNL     1      47.403   3.082  13.990  0.00  0.00    +0.000 OA
ATOM     20  H   UNL     1      45.947   5.144  15.898  0.00  0.00    +0.000 HD
BRANCH  18  21
ATOM     21  C   UNL     1      46.227   5.000  13.300  0.00  0.00    +0.000 A 
ATOM     22  C   UNL     1      46.955   6.106  12.882  0.00  0.00    +0.000 A 
ATOM     23  S   UNL     1      46.048   7.194  11.928  0.00  0.00    +0.000 S 
ATOM     24  C   UNL     1      44.675   6.192  12.001  0.00  0.00    +0.000 A 
ATOM     25  N   UNL     1      43.484   6.581  11.473  0.00  0.00    +0.000 NA
ATOM     26  C   UNL     1      42.547   5.697  11.568  0.00  0.00    +0.000 A 
ATOM     27  N   UNL     1      42.705   4.443  12.102  0.00  0.00    +0.000 N 
ATOM     28  C   UNL     1      43.901   3.994  12.607  0.00  0.00    +0.000 A 
ATOM     29  O   UNL     1      44.054   2.829  12.956  0.00  0.00    +0.000 OA
ATOM     30  C   UNL     1      44.947   4.995  12.639  0.00  0.00    +0.000 A 
ATOM     31  H   UNL     1      41.955   3.769  12.069  0.00  0.00    +0.000 HD
ENDBRANCH  18  21
ENDBRANCH   1  17
TORSDOF 6
ENDMDL
MODEL 7
REMARK VINA RESULT:    -6.634      5.240      7.138
REMARK INTER + INTRA:          -9.765
REMARK INTER:                  -8.975
REMARK INTRA:                  -0.790
REMARK UNBOUND:                -0.804
REMARK  Name = 
REMARK  7 active torsions:
REMARK  status: ('A' for Active; 'I' for Inactive)
REMARK    1  A    between atoms: C_1  and  O_2
REMARK    2  A    between atoms: O_2  and  C_3
REMARK    3  A    between atoms: C_5  and  O_6
REMARK    4  A    between atoms: O_6  and  C_7
REMARK    5  A    between atoms: C_10  and  C_11
REMARK    6  A    between atoms: C_11  and  N_12
REMARK    7  A    between atoms: C_13  and  C_15
REMARK                            x       y       z     vdW  Elec       q    Type
REMARK                         _______ _______ _______ _____ _____    ______ ____
ROOT
ATOM      1  C   UNL     1      50.322   8.228  12.368  0.00  0.00    +0.000 C 
ENDROOT
BRANCH   1   5
ATOM      2  C   UNL     1      46.257   6.842  12.769  0.00  0.00    +0.000 A 
ATOM      3  C   UNL     1      47.316   5.990  13.088  0.00  0.00    +0.000 A 
ATOM      4  C   UNL     1      48.635   6.424  12.921  0.00  0.00    +0.000 A 
ATOM      5  C   UNL     1      48.909   7.714  12.441  0.00  0.00    +0.000 A 
ATOM      6  C   UNL     1      47.840   8.527  12.047  0.00  0.00    +0.000 A 
ATOM      7  C   UNL     1      46.524   8.088  12.195  0.00  0.00    +0.000 A 
BRANCH   2   8
ATOM      8  O   UNL     1      44.973   6.394  13.008  0.00  0.00    +0.000 OA
BRANCH   8  11
ATOM      9  C   UNL     1      44.109   4.202  10.301  0.00  0.00    +0.000 A 
ATOM     10  C   UNL     1      44.606   5.314  10.938  0.00  0.00    +0.000 A 
ATOM     11  C   UNL     1      44.569   5.258  12.309  0.00  0.00    +0.000 A 
ATOM     12  N   UNL     1      44.143   4.184  13.003  0.00  0.00    +0.000 NA
ATOM     13  C   UNL     1      43.680   3.166  12.276  0.00  0.00    +0.000 A 
ATOM     14  N   UNL     1      43.632   3.120  10.942  0.00  0.00    +0.000 NA
BRANCH   9  16
ATOM     15  C   UNL     1      44.826   3.171   8.329  0.00  0.00    +0.000 C 
ATOM     16  O   UNL     1      44.080   4.240   8.924  0.00  0.00    +0.000 OA
ENDBRANCH   9  16
ENDBRANCH   8  11
ENDBRANCH   2   8
ENDBRANCH   1   5
BRANCH   1  17
ATOM     17  N   UNL     1      50.878   8.118  11.045  0.00  0.00    +0.000 N 
ATOM     18  C   UNL     1      52.240   8.079  10.864  0.00  0.00    +0.000 C 
ATOM     19  O   UNL     1      53.016   8.147  11.814  0.00  0.00    +0.000 OA
ATOM     20  H   UNL     1      50.257   7.819  10.299  0.00  0.00    +0.000 HD
BRANCH  18  21
ATOM     21  C   UNL     1      52.733   8.037   9.481  0.00  0.00    +0.000 A 
ATOM     22  C   UNL     1      52.695   9.181   8.694  0.00  0.00    +0.000 A 
ATOM     23  S   UNL     1      53.034   8.884   7.047  0.00  0.00    +0.000 S 
ATOM     24  C   UNL     1      53.294   7.229   7.347  0.00  0.00    +0.000 A 
ATOM     25  N   UNL     1      53.523   6.351   6.334  0.00  0.00    +0.000 NA
ATOM     26  C   UNL     1      53.744   5.140   6.722  0.00  0.00    +0.000 A 
ATOM     27  N   UNL     1      53.803   4.735   8.031  0.00  0.00    +0.000 N 
ATOM     28  C   UNL     1      53.620   5.596   9.086  0.00  0.00    +0.000 A 
ATOM     29  O   UNL     1      53.807   5.241  10.245  0.00  0.00    +0.000 OA
ATOM     30  C   UNL     1      53.242   6.939   8.699  0.00  0.00    +0.000 A 
ATOM     31  H   UNL     1      54.064   3.789   8.269  0.00  0.00    +0.000 HD
ENDBRANCH  18  21
ENDBRANCH   1  17
TORSDOF 6
ENDMDL
MODEL 8
REMARK VINA RESULT:    -6.383      4.681      9.177
REMARK INTER + INTRA:          -9.427
REMARK INTER:                  -9.052
REMARK INTRA:                  -0.375
REMARK UNBOUND:                -0.804
REMARK  Name = 
REMARK  7 active torsions:
REMARK  status: ('A' for Active; 'I' for Inactive)
REMARK    1  A    between atoms: C_1  and  O_2
REMARK    2  A    between atoms: O_2  and  C_3
REMARK    3  A    between atoms: C_5  and  O_6
REMARK    4  A    between atoms: O_6  and  C_7
REMARK    5  A    between atoms: C_10  and  C_11
REMARK    6  A    between atoms: C_11  and  N_12
REMARK    7  A    between atoms: C_13  and  C_15
REMARK                            x       y       z     vdW  Elec       q    Type
REMARK                         _______ _______ _______ _____ _____    ______ ____
ROOT
ATOM      1  C   UNL     1      47.707   3.547  17.250  0.00  0.00    +0.000 C 
ENDROOT
BRANCH   1   5
ATOM      2  C   UNL     1      51.951   3.026  17.827  0.00  0.00    +0.000 A 
ATOM      3  C   UNL     1      51.360   4.262  18.093  0.00  0.00    +0.000 A 
ATOM      4  C   UNL     1      49.992   4.445  17.869  0.00  0.00    +0.000 A 
ATOM      5  C   UNL     1      49.200   3.393  17.384  0.00  0.00    +0.000 A 
ATOM      6  C   UNL     1      49.819   2.186  17.042  0.00  0.00    +0.000 A 
ATOM      7  C   UNL     1      51.187   2.008  17.247  0.00  0.00    +0.000 A 
BRANCH   2   8
ATOM      8  O   UNL     1      53.291   2.873  18.121  0.00  0.00    +0.000 OA
BRANCH   8  11
ATOM      9  C   UNL     1      54.344  -0.554  17.962  0.00  0.00    +0.000 A 
ATOM     10  C   UNL     1      53.648   0.552  18.388  0.00  0.00    +0.000 A 
ATOM     11  C   UNL     1      53.896   1.699  17.676  0.00  0.00    +0.000 A 
ATOM     12  N   UNL     1      54.705   1.751  16.598  0.00  0.00    +0.000 NA
ATOM     13  C   UNL     1      55.328   0.615  16.282  0.00  0.00    +0.000 A 
ATOM     14  N   UNL     1      55.195  -0.551  16.920  0.00  0.00    +0.000 NA
BRANCH   9  16
ATOM     15  C   UNL     1      54.831  -1.686  19.950  0.00  0.00    +0.000 C 
ATOM     16  O   UNL     1      54.163  -1.714  18.682  0.00  0.00    +0.000 OA
ENDBRANCH   9  16
ENDBRANCH   8  11
ENDBRANCH   2   8
ENDBRANCH   1   5
BRANCH   1  17
ATOM     17  N   UNL     1      47.343   4.520  16.254  0.00  0.00    +0.000 N 
ATOM     18  C   UNL     1      47.250   4.160  14.931  0.00  0.00    +0.000 C 
ATOM     19  O   UNL     1      47.482   3.012  14.560  0.00  0.00    +0.000 OA
ATOM     20  H   UNL     1      46.920   5.385  16.577  0.00  0.00    +0.000 HD
BRANCH  18  21
ATOM     21  C   UNL     1      46.943   5.224  13.966  0.00  0.00    +0.000 A 
ATOM     22  C   UNL     1      47.727   6.370  13.920  0.00  0.00    +0.000 A 
ATOM     23  S   UNL     1      47.062   7.609  12.951  0.00  0.00    +0.000 S 
ATOM     24  C   UNL     1      45.737   6.631  12.522  0.00  0.00    +0.000 A 
ATOM     25  N   UNL     1      44.706   7.118  11.780  0.00  0.00    +0.000 NA
ATOM     26  C   UNL     1      43.796   6.247  11.500  0.00  0.00    +0.000 A 
ATOM     27  N   UNL     1      43.844   4.923  11.854  0.00  0.00    +0.000 N 
ATOM     28  C   UNL     1      44.886   4.380  12.566  0.00  0.00    +0.000 A 
ATOM     29  O   UNL     1      44.973   3.171  12.756  0.00  0.00    +0.000 OA
ATOM     30  C   UNL     1      45.868   5.345  13.014  0.00  0.00    +0.000 A 
ATOM     31  H   UNL     1      43.141   4.275  11.530  0.00  0.00    +0.000 HD
ENDBRANCH  18  21
ENDBRANCH   1  17
TORSDOF 6
ENDMDL
MODEL 9
REMARK VINA RESULT:    -6.300      4.066      8.961
REMARK INTER + INTRA:          -9.315
REMARK INTER:                  -8.048
REMARK INTRA:                  -1.267
REMARK UNBOUND:                -0.804
REMARK  Name = 
REMARK  7 active torsions:
REMARK  status: ('A' for Active; 'I' for Inactive)
REMARK    1  A    between atoms: C_1  and  O_2
REMARK    2  A    between atoms: O_2  and  C_3
REMARK    3  A    between atoms: C_5  and  O_6
REMARK    4  A    between atoms: O_6  and  C_7
REMARK    5  A    between atoms: C_10  and  C_11
REMARK    6  A    between atoms: C_11  and  N_12
REMARK    7  A    between atoms: C_13  and  C_15
REMARK                            x       y       z     vdW  Elec       q    Type
REMARK                         _______ _______ _______ _____ _____    ______ ____
ROOT
ATOM      1  C   UNL     1      47.482   3.277  17.145  0.00  0.00    +0.000 C 
ENDROOT
BRANCH   1   5
ATOM      2  C   UNL     1      51.636   3.235  18.309  0.00  0.00    +0.000 A 
ATOM      3  C   UNL     1      50.810   4.281  18.721  0.00  0.00    +0.000 A 
ATOM      4  C   UNL     1      49.473   4.318  18.312  0.00  0.00    +0.000 A 
ATOM      5  C   UNL     1      48.947   3.306  17.494  0.00  0.00    +0.000 A 
ATOM      6  C   UNL     1      49.806   2.309  17.020  0.00  0.00    +0.000 A 
ATOM      7  C   UNL     1      51.145   2.282  17.412  0.00  0.00    +0.000 A 
BRANCH   2   8
ATOM      8  O   UNL     1      52.931   3.207  18.787  0.00  0.00    +0.000 OA
BRANCH   8  11
ATOM      9  C   UNL     1      54.855   5.171  16.481  0.00  0.00    +0.000 A 
ATOM     10  C   UNL     1      53.903   4.878  17.427  0.00  0.00    +0.000 A 
ATOM     11  C   UNL     1      53.933   3.588  17.896  0.00  0.00    +0.000 A 
ATOM     12  N   UNL     1      54.855   2.678  17.524  0.00  0.00    +0.000 NA
ATOM     13  C   UNL     1      55.727   3.077  16.597  0.00  0.00    +0.000 A 
ATOM     14  N   UNL     1      55.773   4.290  16.041  0.00  0.00    +0.000 NA
BRANCH   9  16
ATOM     15  C   UNL     1      55.114   6.453  14.542  0.00  0.00    +0.000 C 
ATOM     16  O   UNL     1      54.826   6.440  15.946  0.00  0.00    +0.000 OA
ENDBRANCH   9  16
ENDBRANCH   8  11
ENDBRANCH   2   8
ENDBRANCH   1   5
BRANCH   1  17
ATOM     17  N   UNL     1      47.115   4.327  16.233  0.00  0.00    +0.000 N 
ATOM     18  C   UNL     1      47.110   4.101  14.877  0.00  0.00    +0.000 C 
ATOM     19  O   UNL     1      47.428   3.012  14.407  0.00  0.00    +0.000 OA
ATOM     20  H   UNL     1      46.625   5.131  16.616  0.00  0.00    +0.000 HD
BRANCH  18  21
ATOM     21  C   UNL     1      46.793   5.242  14.007  0.00  0.00    +0.000 A 
ATOM     22  C   UNL     1      45.578   5.287  13.335  0.00  0.00    +0.000 A 
ATOM     23  S   UNL     1      45.498   6.523  12.160  0.00  0.00    +0.000 S 
ATOM     24  C   UNL     1      47.061   7.068  12.554  0.00  0.00    +0.000 A 
ATOM     25  N   UNL     1      47.669   8.054  11.842  0.00  0.00    +0.000 NA
ATOM     26  C   UNL     1      48.835   8.388  12.286  0.00  0.00    +0.000 A 
ATOM     27  N   UNL     1      49.428   7.857  13.403  0.00  0.00    +0.000 N 
ATOM     28  C   UNL     1      48.832   6.890  14.175  0.00  0.00    +0.000 A 
ATOM     29  O   UNL     1      49.319   6.526  15.240  0.00  0.00    +0.000 OA
ATOM     30  C   UNL     1      47.580   6.392  13.644  0.00  0.00    +0.000 A 
ATOM     31  H   UNL     1      50.305   8.222  13.746  0.00  0.00    +0.000 HD
ENDBRANCH  18  21
ENDBRANCH   1  17
TORSDOF 6
ENDMDL
