MODEL 1
REMARK VINA RESULT:    -7.286      0.000      0.000
REMARK INTER + INTRA:         -11.603
REMARK INTER:                 -10.267
REMARK INTRA:                  -1.335
REMARK UNBOUND:                -1.335
REMARK  Name = 
REMARK  10 active torsions:
REMARK  status: ('A' for Active; 'I' for Inactive)
REMARK    1  A    between atoms: C_1  and  O_2
REMARK    2  A    between atoms: O_2  and  C_3
REMARK    3  A    between atoms: C_10  and  C_11
REMARK    4  A    between atoms: N_13  and  C_14
REMARK    5  A    between atoms: C_14  and  C_15
REMARK    6  A    between atoms: C_18  and  N_19
REMARK    7  A    between atoms: N_19  and  C_20
REMARK    8  A    between atoms: C_20  and  C_21
REMARK    9  A    between atoms: C_20  and  C_22
REMARK   10  A    between atoms: C_26  and  C_27
REMARK                            x       y       z     vdW  Elec       q    Type
REMARK                         _______ _______ _______ _____ _____    ______ ____
ROOT
ATOM      1  C   UNL     1      47.819   6.929  13.173  0.00  0.00    +0.000 A 
ATOM      2  C   UNL     1      47.421   5.702  13.694  0.00  0.00    +0.000 A 
ATOM      3  C   UNL     1      46.313   5.042  13.166  0.00  0.00    +0.000 A 
ATOM      4  C   UNL     1      45.596   5.530  12.072  0.00  0.00    +0.000 A 
ATOM      5  C   UNL     1      46.022   6.747  11.532  0.00  0.00    +0.000 A 
ATOM      6  C   UNL     1      47.118   7.442  12.075  0.00  0.00    +0.000 A 
ENDROOT
BRANCH   4   7
ATOM      7  N   UNL     1      44.494   4.854  11.562  0.00  0.00    +0.000 N 
ATOM      8  H   UNL     1      43.580   5.245  11.758  0.00  0.00    +0.000 HD
BRANCH   7   9
ATOM      9  C   UNL     1      44.548   3.420  11.244  0.00  0.00    +0.000 C 
ATOM     10  C   UNL     1      43.765   2.648  12.319  0.00  0.00    +0.000 C 
BRANCH   9  11
ATOM     11  C   UNL     1      43.953   3.167   9.827  0.00  0.00    +0.000 C 
ATOM     12  C   UNL     1      44.488   1.871   9.178  0.00  0.00    +0.000 C 
ATOM     13  C   UNL     1      45.950   2.004   8.753  0.00  0.00    +0.000 C 
ATOM     14  N   UNL     1      46.095   3.117   7.815  0.00  0.00    +0.000 N 
ATOM     15  C   UNL     1      46.753   3.100   6.597  0.00  0.00    +0.000 C 
ATOM     16  C   UNL     1      47.272   1.801   6.039  0.00  0.00    +0.000 C 
ATOM     17  O   UNL     1      46.908   4.124   5.925  0.00  0.00    +0.000 OA
ATOM     18  C   UNL     1      45.629   4.404   8.323  0.00  0.00    +0.000 C 
ATOM     19  C   UNL     1      44.192   4.326   8.835  0.00  0.00    +0.000 C 
ENDBRANCH   9  11
ENDBRANCH   7   9
ENDBRANCH   4   7
BRANCH   1  20
ATOM     20  C   UNL     1      49.001   7.637  13.778  0.00  0.00    +0.000 C 
BRANCH  20  23
ATOM     21  C   UNL     1      50.014   7.155  15.958  0.00  0.00    +0.000 C 
ATOM     22  O   UNL     1      51.067   6.799  15.429  0.00  0.00    +0.000 OA
ATOM     23  N   UNL     1      48.953   7.582  15.216  0.00  0.00    +0.000 N 
ATOM     24  H   UNL     1      48.101   7.886  15.668  0.00  0.00    +0.000 HD
BRANCH  21  32
ATOM     25  C   UNL     1      48.974   4.720  18.157  0.00  0.00    +0.000 A 
ATOM     26  N   UNL     1      48.676   3.946  19.219  0.00  0.00    +0.000 NA
ATOM     27  C   UNL     1      48.783   4.487  20.435  0.00  0.00    +0.000 A 
ATOM     28  N   UNL     1      49.150   5.730  20.733  0.00  0.00    +0.000 NA
ATOM     29  C   UNL     1      49.448   6.463  19.644  0.00  0.00    +0.000 A 
ATOM     30  S   UNL     1      49.930   8.081  19.833  0.00  0.00    +0.000 S 
ATOM     31  C   UNL     1      50.121   8.269  18.153  0.00  0.00    +0.000 A 
ATOM     32  C   UNL     1      49.844   7.119  17.424  0.00  0.00    +0.000 A 
ATOM     33  C   UNL     1      49.411   6.048  18.318  0.00  0.00    +0.000 A 
BRANCH  25  35
ATOM     34  C   UNL     1      47.668   3.450  16.687  0.00  0.00    +0.000 C 
ATOM     35  O   UNL     1      48.884   4.162  16.900  0.00  0.00    +0.000 OA
ENDBRANCH  25  35
ENDBRANCH  21  32
ENDBRANCH  20  23
ENDBRANCH   1  20
TORSDOF 7
ENDMDL
MODEL 2
REMARK VINA RESULT:    -7.089      3.367      8.650
REMARK INTER + INTRA:         -11.325
REMARK INTER:                  -9.926
REMARK INTRA:                  -1.399
REMARK UNBOUND:                -1.335
REMARK  Name = 
REMARK  10 active torsions:
REMARK  status: ('A' for Active; 'I' for Inactive)
REMARK    1  A    between atoms: C_1  and  O_2
REMARK    2  A    between atoms: O_2  and  C_3
REMARK    3  A    between atoms: C_10  and  C_11
REMARK    4  A    between atoms: N_13  and  C_14
REMARK    5  A    between atoms: C_14  and  C_15
REMARK    6  A    between atoms: C_18  and  N_19
REMARK    7  A    between atoms: N_19  and  C_20
REMARK    8  A    between atoms: C_20  and  C_21
REMARK    9  A    between atoms: C_20  and  C_22
REMARK   10  A    between atoms: C_26  and  C_27
REMARK                            x       y       z     vdW  Elec       q    Type
REMARK                         _______ _______ _______ _____ _____    ______ ____
ROOT
ATOM      1  C   UNL     1      48.501   8.030  13.291  0.00  0.00    +0.000 A 
ATOM      2  C   UNL     1      49.243   7.017  13.891  0.00  0.00    +0.000 A 
ATOM      3  C   UNL     1      49.346   6.951  15.279  0.00  0.00    +0.000 A 
ATOM      4  C   UNL     1      48.677   7.835  16.127  0.00  0.00    +0.000 A 
ATOM      5  C   UNL     1      47.906   8.830  15.519  0.00  0.00    +0.000 A 
ATOM      6  C   UNL     1      47.819   8.932  14.118  0.00  0.00    +0.000 A 
ENDROOT
BRANCH   4   7
ATOM      7  N   UNL     1      48.793   7.749  17.509  0.00  0.00    +0.000 N 
ATOM      8  H   UNL     1      48.271   8.421  18.060  0.00  0.00    +0.000 HD
BRANCH   7   9
ATOM      9  C   UNL     1      49.966   7.135  18.148  0.00  0.00    +0.000 C 
ATOM     10  C   UNL     1      50.606   8.166  19.093  0.00  0.00    +0.000 C 
BRANCH   9  11
ATOM     11  C   UNL     1      49.540   5.853  18.922  0.00  0.00    +0.000 C 
ATOM     12  C   UNL     1      50.740   4.953  19.293  0.00  0.00    +0.000 C 
ATOM     13  C   UNL     1      51.330   4.254  18.069  0.00  0.00    +0.000 C 
ATOM     14  N   UNL     1      50.301   3.449  17.412  0.00  0.00    +0.000 N 
ATOM     15  C   UNL     1      50.405   2.129  17.011  0.00  0.00    +0.000 C 
ATOM     16  C   UNL     1      51.619   1.320  17.386  0.00  0.00    +0.000 C 
ATOM     17  O   UNL     1      49.511   1.569  16.368  0.00  0.00    +0.000 OA
ATOM     18  C   UNL     1      49.115   4.197  17.005  0.00  0.00    +0.000 C 
ATOM     19  C   UNL     1      48.512   4.983  18.168  0.00  0.00    +0.000 C 
ENDBRANCH   9  11
ENDBRANCH   7   9
ENDBRANCH   4   7
BRANCH   1  20
ATOM     20  C   UNL     1      48.429   8.099  11.790  0.00  0.00    +0.000 C 
BRANCH  20  23
ATOM     21  C   UNL     1      46.344   6.946  11.214  0.00  0.00    +0.000 C 
ATOM     22  O   UNL     1      45.667   7.888  11.630  0.00  0.00    +0.000 OA
ATOM     23  N   UNL     1      47.705   6.975  11.257  0.00  0.00    +0.000 N 
ATOM     24  H   UNL     1      48.245   6.199  10.896  0.00  0.00    +0.000 HD
BRANCH  21  32
ATOM     25  C   UNL     1      44.617   4.334  12.643  0.00  0.00    +0.000 A 
ATOM     26  N   UNL     1      43.866   3.253  12.928  0.00  0.00    +0.000 NA
ATOM     27  C   UNL     1      43.484   2.473  11.914  0.00  0.00    +0.000 A 
ATOM     28  N   UNL     1      43.768   2.634  10.624  0.00  0.00    +0.000 NA
ATOM     29  C   UNL     1      44.511   3.731  10.385  0.00  0.00    +0.000 A 
ATOM     30  S   UNL     1      44.976   4.093   8.792  0.00  0.00    +0.000 S 
ATOM     31  C   UNL     1      45.787   5.500   9.299  0.00  0.00    +0.000 A 
ATOM     32  C   UNL     1      45.708   5.732  10.667  0.00  0.00    +0.000 A 
ATOM     33  C   UNL     1      44.969   4.653  11.318  0.00  0.00    +0.000 A 
BRANCH  25  35
ATOM     34  C   UNL     1      46.283   4.832  14.210  0.00  0.00    +0.000 C 
ATOM     35  O   UNL     1      44.998   5.153  13.684  0.00  0.00    +0.000 OA
ENDBRANCH  25  35
ENDBRANCH  21  32
ENDBRANCH  20  23
ENDBRANCH   1  20
TORSDOF 7
ENDMDL
MODEL 3
REMARK VINA RESULT:    -6.910      1.924      2.200
REMARK INTER + INTRA:         -11.073
REMARK INTER:                  -9.703
REMARK INTRA:                  -1.370
REMARK UNBOUND:                -1.335
REMARK  Name = 
REMARK  10 active torsions:
REMARK  status: ('A' for Active; 'I' for Inactive)
REMARK    1  A    between atoms: C_1  and  O_2
REMARK    2  A    between atoms: O_2  and  C_3
REMARK    3  A    between atoms: C_10  and  C_11
REMARK    4  A    between atoms: N_13  and  C_14
REMARK    5  A    between atoms: C_14  and  C_15
REMARK    6  A    between atoms: C_18  and  N_19
REMARK    7  A    between atoms: N_19  and  C_20
REMARK    8  A    between atoms: C_20  and  C_21
REMARK    9  A    between atoms: C_20  and  C_22
REMARK   10  A    between atoms: C_26  and  C_27
REMARK                            x       y       z     vdW  Elec       q    Type
REMARK                         _______ _______ _______ _____ _____    ______ ____
ROOT
ATOM      1  C   UNL     1      47.407   8.141  13.048  0.00  0.00    +0.000 A 
ATOM      2  C   UNL     1      46.028   8.197  13.225  0.00  0.00    +0.000 A 
ATOM      3  C   UNL     1      45.182   7.492  12.371  0.00  0.00    +0.000 A 
ATOM      4  C   UNL     1      45.658   6.660  11.357  0.00  0.00    +0.000 A 
ATOM      5  C   UNL     1      47.046   6.581  11.206  0.00  0.00    +0.000 A 
ATOM      6  C   UNL     1      47.913   7.314  12.037  0.00  0.00    +0.000 A 
ENDROOT
BRANCH   4   7
ATOM      7  N   UNL     1      44.795   5.965  10.518  0.00  0.00    +0.000 N 
ATOM      8  H   UNL     1      43.931   6.426  10.257  0.00  0.00    +0.000 HD
BRANCH   7   9
ATOM      9  C   UNL     1      44.814   4.497  10.436  0.00  0.00    +0.000 C 
ATOM     10  C   UNL     1      43.802   3.935  11.448  0.00  0.00    +0.000 C 
BRANCH   9  11
ATOM     11  C   UNL     1      44.471   4.041   8.987  0.00  0.00    +0.000 C 
ATOM     12  C   UNL     1      44.154   2.532   8.896  0.00  0.00    +0.000 C 
ATOM     13  C   UNL     1      45.403   1.672   9.079  0.00  0.00    +0.000 C 
ATOM     14  N   UNL     1      46.400   2.023   8.069  0.00  0.00    +0.000 N 
ATOM     15  C   UNL     1      47.102   1.153   7.252  0.00  0.00    +0.000 C 
ATOM     16  C   UNL     1      46.755  -0.312   7.237  0.00  0.00    +0.000 C 
ATOM     17  O   UNL     1      48.001   1.545   6.501  0.00  0.00    +0.000 OA
ATOM     18  C   UNL     1      46.789   3.431   8.064  0.00  0.00    +0.000 C 
ATOM     19  C   UNL     1      45.577   4.354   7.957  0.00  0.00    +0.000 C 
ENDBRANCH   9  11
ENDBRANCH   7   9
ENDBRANCH   4   7
BRANCH   1  20
ATOM     20  C   UNL     1      48.299   8.934  13.963  0.00  0.00    +0.000 C 
BRANCH  20  23
ATOM     21  C   UNL     1      48.439   9.508  16.342  0.00  0.00    +0.000 C 
ATOM     22  O   UNL     1      49.241  10.415  16.112  0.00  0.00    +0.000 OA
ATOM     23  N   UNL     1      47.929   8.738  15.341  0.00  0.00    +0.000 N 
ATOM     24  H   UNL     1      47.260   8.007  15.546  0.00  0.00    +0.000 HD
BRANCH  21  32
ATOM     25  C   UNL     1      48.317   6.607  18.191  0.00  0.00    +0.000 A 
ATOM     26  N   UNL     1      48.229   5.654  19.138  0.00  0.00    +0.000 NA
ATOM     27  C   UNL     1      47.794   6.013  20.348  0.00  0.00    +0.000 A 
ATOM     28  N   UNL     1      47.421   7.228  20.740  0.00  0.00    +0.000 NA
ATOM     29  C   UNL     1      47.534   8.150  19.766  0.00  0.00    +0.000 A 
ATOM     30  S   UNL     1      47.094   9.760  20.085  0.00  0.00    +0.000 S 
ATOM     31  C   UNL     1      47.514  10.236  18.507  0.00  0.00    +0.000 A 
ATOM     32  C   UNL     1      48.007   9.202  17.720  0.00  0.00    +0.000 A 
ATOM     33  C   UNL     1      47.988   7.948  18.469  0.00  0.00    +0.000 A 
BRANCH  25  35
ATOM     34  C   UNL     1      50.157   5.871  16.946  0.00  0.00    +0.000 C 
ATOM     35  O   UNL     1      48.783   6.246  16.945  0.00  0.00    +0.000 OA
ENDBRANCH  25  35
ENDBRANCH  21  32
ENDBRANCH  20  23
ENDBRANCH   1  20
TORSDOF 7
ENDMDL
MODEL 4
REMARK VINA RESULT:    -6.402      5.345      7.892
REMARK INTER + INTRA:         -10.357
REMARK INTER:                  -8.842
REMARK INTRA:                  -1.515
REMARK UNBOUND:                -1.335
REMARK  Name = 
REMARK  10 active torsions:
REMARK  status: ('A' for Active; 'I' for Inactive)
REMARK    1  A    between atoms: C_1  and  O_2
REMARK    2  A    between atoms: O_2  and  C_3
REMARK    3  A    between atoms: C_10  and  C_11
REMARK    4  A    between atoms: N_13  and  C_14
REMARK    5  A    between atoms: C_14  and  C_15
REMARK    6  A    between atoms: C_18  and  N_19
REMARK    7  A    between atoms: N_19  and  C_20
REMARK    8  A    between atoms: C_20  and  C_21
REMARK    9  A    between atoms: C_20  and  C_22
REMARK   10  A    between atoms: C_26  and  C_27
REMARK                            x       y       z     vdW  Elec       q    Type
REMARK                         _______ _______ _______ _____ _____    ______ ____
ROOT
ATOM      1  C   UNL     1      50.772   8.298  12.410  0.00  0.00    +0.000 A 
ATOM      2  C   UNL     1      49.745   8.021  11.513  0.00  0.00    +0.000 A 
ATOM      3  C   UNL     1      48.526   7.528  11.974  0.00  0.00    +0.000 A 
ATOM      4  C   UNL     1      48.250   7.348  13.330  0.00  0.00    +0.000 A 
ATOM      5  C   UNL     1      49.275   7.660  14.229  0.00  0.00    +0.000 A 
ATOM      6  C   UNL     1      50.523   8.126  13.777  0.00  0.00    +0.000 A 
ENDROOT
BRANCH   4   7
ATOM      7  N   UNL     1      47.026   6.855  13.767  0.00  0.00    +0.000 N 
ATOM      8  H   UNL     1      46.564   7.360  14.516  0.00  0.00    +0.000 HD
BRANCH   7   9
ATOM      9  C   UNL     1      46.655   5.444  13.591  0.00  0.00    +0.000 C 
ATOM     10  C   UNL     1      46.794   4.727  14.944  0.00  0.00    +0.000 C 
BRANCH   9  11
ATOM     11  C   UNL     1      45.199   5.340  13.048  0.00  0.00    +0.000 C 
ATOM     12  C   UNL     1      44.756   3.881  12.805  0.00  0.00    +0.000 C 
ATOM     13  C   UNL     1      45.457   3.262  11.597  0.00  0.00    +0.000 C 
ATOM     14  N   UNL     1      45.186   4.061  10.402  0.00  0.00    +0.000 N 
ATOM     15  C   UNL     1      44.759   3.598   9.169  0.00  0.00    +0.000 C 
ATOM     16  C   UNL     1      44.368   2.154   9.000  0.00  0.00    +0.000 C 
ATOM     17  O   UNL     1      44.658   4.345   8.191  0.00  0.00    +0.000 OA
ATOM     18  C   UNL     1      45.574   5.464  10.510  0.00  0.00    +0.000 C 
ATOM     19  C   UNL     1      44.964   6.129  11.742  0.00  0.00    +0.000 C 
ENDBRANCH   9  11
ENDBRANCH   7   9
ENDBRANCH   4   7
BRANCH   1  20
ATOM     20  C   UNL     1      52.089   8.802  11.887  0.00  0.00    +0.000 C 
BRANCH  20  23
ATOM     21  C   UNL     1      53.079   9.022   9.655  0.00  0.00    +0.000 C 
ATOM     22  O   UNL     1      53.584  10.107   9.947  0.00  0.00    +0.000 OA
ATOM     23  N   UNL     1      52.333   8.319  10.553  0.00  0.00    +0.000 N 
ATOM     24  H   UNL     1      51.938   7.423  10.300  0.00  0.00    +0.000 HD
BRANCH  21  32
ATOM     25  C   UNL     1      53.655   5.827   8.513  0.00  0.00    +0.000 A 
ATOM     26  N   UNL     1      53.808   4.690   7.808  0.00  0.00    +0.000 NA
ATOM     27  C   UNL     1      53.808   4.775   6.476  0.00  0.00    +0.000 A 
ATOM     28  N   UNL     1      53.679   5.877   5.741  0.00  0.00    +0.000 NA
ATOM     29  C   UNL     1      53.519   6.987   6.485  0.00  0.00    +0.000 A 
ATOM     30  S   UNL     1      53.346   8.491   5.715  0.00  0.00    +0.000 S 
ATOM     31  C   UNL     1      53.187   9.290   7.208  0.00  0.00    +0.000 A 
ATOM     32  C   UNL     1      53.243   8.442   8.308  0.00  0.00    +0.000 A 
ATOM     33  C   UNL     1      53.473   7.067   7.872  0.00  0.00    +0.000 A 
BRANCH  25  35
ATOM     34  C   UNL     1      54.937   5.705  10.467  0.00  0.00    +0.000 C 
ATOM     35  O   UNL     1      53.636   5.742   9.888  0.00  0.00    +0.000 OA
ENDBRANCH  25  35
ENDBRANCH  21  32
ENDBRANCH  20  23
ENDBRANCH   1  20
TORSDOF 7
ENDMDL
MODEL 5
REMARK VINA RESULT:    -6.172      3.455      5.398
REMARK INTER + INTRA:         -10.033
REMARK INTER:                  -8.050
REMARK INTRA:                  -1.983
REMARK UNBOUND:                -1.335
REMARK  Name = 
REMARK  10 active torsions:
REMARK  status: ('A' for Active; 'I' for Inactive)
REMARK    1  A    between atoms: C_1  and  O_2
REMARK    2  A    between atoms: O_2  and  C_3
REMARK    3  A    between atoms: C_10  and  C_11
REMARK    4  A    between atoms: N_13  and  C_14
REMARK    5  A    between atoms: C_14  and  C_15
REMARK    6  A    between atoms: C_18  and  N_19
REMARK    7  A    between atoms: N_19  and  C_20
REMARK    8  A    between atoms: C_20  and  C_21
REMARK    9  A    between atoms: C_20  and  C_22
REMARK   10  A    between atoms: C_26  and  C_27
REMARK                            x       y       z     vdW  Elec       q    Type
REMARK                         _______ _______ _______ _____ _____    ______ ____
ROOT
ATOM      1  C   UNL     1      50.358   8.939  17.027  0.00  0.00    +0.000 A 
ATOM      2  C   UNL     1      50.969   9.361  15.850  0.00  0.00    +0.000 A 
ATOM      3  C   UNL     1      50.201   9.628  14.718  0.00  0.00    +0.000 A 
ATOM      4  C   UNL     1      48.807   9.553  14.719  0.00  0.00    +0.000 A 
ATOM      5  C   UNL     1      48.197   9.161  15.914  0.00  0.00    +0.000 A 
ATOM      6  C   UNL     1      48.960   8.854  17.056  0.00  0.00    +0.000 A 
ENDROOT
BRANCH   4   7
ATOM      7  N   UNL     1      48.061   9.827  13.578  0.00  0.00    +0.000 N 
ATOM      8  H   UNL     1      48.008  10.795  13.281  0.00  0.00    +0.000 HD
BRANCH   7   9
ATOM      9  C   UNL     1      46.982   8.935  13.130  0.00  0.00    +0.000 C 
ATOM     10  C   UNL     1      45.950   9.766  12.349  0.00  0.00    +0.000 C 
BRANCH   9  11
ATOM     11  C   UNL     1      47.568   7.794  12.246  0.00  0.00    +0.000 C 
ATOM     12  C   UNL     1      46.474   6.985  11.514  0.00  0.00    +0.000 C 
ATOM     13  C   UNL     1      45.680   6.099  12.472  0.00  0.00    +0.000 C 
ATOM     14  N   UNL     1      46.583   5.183  13.166  0.00  0.00    +0.000 N 
ATOM     15  C   UNL     1      46.431   3.815  13.316  0.00  0.00    +0.000 C 
ATOM     16  C   UNL     1      45.323   3.096  12.591  0.00  0.00    +0.000 C 
ATOM     17  O   UNL     1      47.200   3.144  14.011  0.00  0.00    +0.000 OA
ATOM     18  C   UNL     1      47.659   5.836  13.906  0.00  0.00    +0.000 C 
ATOM     19  C   UNL     1      48.453   6.796  13.023  0.00  0.00    +0.000 C 
ENDBRANCH   9  11
ENDBRANCH   7   9
ENDBRANCH   4   7
BRANCH   1  20
ATOM     20  C   UNL     1      51.210   8.627  18.227  0.00  0.00    +0.000 C 
BRANCH  20  23
ATOM     21  C   UNL     1      52.661   6.677  17.906  0.00  0.00    +0.000 C 
ATOM     22  O   UNL     1      53.561   7.378  17.442  0.00  0.00    +0.000 OA
ATOM     23  N   UNL     1      51.478   7.215  18.315  0.00  0.00    +0.000 N 
ATOM     24  H   UNL     1      50.756   6.625  18.709  0.00  0.00    +0.000 HD
BRANCH  21  32
ATOM     25  C   UNL     1      50.587   4.017  17.218  0.00  0.00    +0.000 A 
ATOM     26  N   UNL     1      50.019   2.820  16.976  0.00  0.00    +0.000 NA
ATOM     27  C   UNL     1      50.737   1.724  17.234  0.00  0.00    +0.000 A 
ATOM     28  N   UNL     1      51.974   1.670  17.719  0.00  0.00    +0.000 NA
ATOM     29  C   UNL     1      52.506   2.887  17.936  0.00  0.00    +0.000 A 
ATOM     30  S   UNL     1      54.080   3.012  18.563  0.00  0.00    +0.000 S 
ATOM     31  C   UNL     1      54.012   4.711  18.523  0.00  0.00    +0.000 A 
ATOM     32  C   UNL     1      52.817   5.214  18.023  0.00  0.00    +0.000 A 
ATOM     33  C   UNL     1      51.905   4.118  17.702  0.00  0.00    +0.000 A 
BRANCH  25  35
ATOM     34  C   UNL     1      48.528   5.106  17.448  0.00  0.00    +0.000 C 
ATOM     35  O   UNL     1      49.857   5.152  16.937  0.00  0.00    +0.000 OA
ENDBRANCH  25  35
ENDBRANCH  21  32
ENDBRANCH  20  23
ENDBRANCH   1  20
TORSDOF 7
ENDMDL
MODEL 6
REMARK VINA RESULT:    -5.643      5.352      7.914
REMARK INTER + INTRA:          -9.288
REMARK INTER:                  -8.063
REMARK INTRA:                  -1.225
REMARK UNBOUND:                -1.335
REMARK  Name = 
REMARK  10 active torsions:
REMARK  status: ('A' for Active; 'I' for Inactive)
REMARK    1  A    between atoms: C_1  and  O_2
REMARK    2  A    between atoms: O_2  and  C_3
REMARK    3  A    between atoms: C_10  and  C_11
REMARK    4  A    between atoms: N_13  and  C_14
REMARK    5  A    between atoms: C_14  and  C_15
REMARK    6  A    between atoms: C_18  and  N_19
REMARK    7  A    between atoms: N_19  and  C_20
REMARK    8  A    between atoms: C_20  and  C_21
REMARK    9  A    between atoms: C_20  and  C_22
REMARK   10  A    between atoms: C_26  and  C_27
REMARK                            x       y       z     vdW  Elec       q    Type
REMARK                         _______ _______ _______ _____ _____    ______ ____
ROOT
ATOM      1  C   UNL     1      50.033   8.342  12.919  0.00  0.00    +0.000 A 
ATOM      2  C   UNL     1      51.022   9.262  13.251  0.00  0.00    +0.000 A 
ATOM      3  C   UNL     1      52.099   9.474  12.392  0.00  0.00    +0.000 A 
ATOM      4  C   UNL     1      52.212   8.839  11.155  0.00  0.00    +0.000 A 
ATOM      5  C   UNL     1      51.198   7.940  10.812  0.00  0.00    +0.000 A 
ATOM      6  C   UNL     1      50.121   7.690  11.683  0.00  0.00    +0.000 A 
ENDROOT
BRANCH   4   7
ATOM      7  N   UNL     1      53.296   9.067  10.314  0.00  0.00    +0.000 N 
ATOM      8  H   UNL     1      53.869   9.880  10.508  0.00  0.00    +0.000 HD
BRANCH   7   9
ATOM      9  C   UNL     1      53.331   8.543   8.941  0.00  0.00    +0.000 C 
ATOM     10  C   UNL     1      53.333   9.729   7.963  0.00  0.00    +0.000 C 
BRANCH   9  11
ATOM     11  C   UNL     1      54.591   7.651   8.744  0.00  0.00    +0.000 C 
ATOM     12  C   UNL     1      55.100   7.651   7.286  0.00  0.00    +0.000 C 
ATOM     13  C   UNL     1      54.169   6.877   6.354  0.00  0.00    +0.000 C 
ATOM     14  N   UNL     1      54.029   5.500   6.823  0.00  0.00    +0.000 N 
ATOM     15  C   UNL     1      54.156   4.345   6.070  0.00  0.00    +0.000 C 
ATOM     16  C   UNL     1      54.633   4.425   4.643  0.00  0.00    +0.000 C 
ATOM     17  O   UNL     1      53.917   3.229   6.540  0.00  0.00    +0.000 OA
ATOM     18  C   UNL     1      53.543   5.371   8.194  0.00  0.00    +0.000 C 
ATOM     19  C   UNL     1      54.388   6.182   9.174  0.00  0.00    +0.000 C 
ENDBRANCH   9  11
ENDBRANCH   7   9
ENDBRANCH   4   7
BRANCH   1  20
ATOM     20  C   UNL     1      48.895   8.108  13.874  0.00  0.00    +0.000 C 
BRANCH  20  23
ATOM     21  C   UNL     1      46.585   7.784  13.119  0.00  0.00    +0.000 C 
ATOM     22  O   UNL     1      46.262   8.907  13.511  0.00  0.00    +0.000 OA
ATOM     23  N   UNL     1      47.859   7.320  13.259  0.00  0.00    +0.000 N 
ATOM     24  H   UNL     1      48.109   6.402  12.917  0.00  0.00    +0.000 HD
BRANCH  21  32
ATOM     25  C   UNL     1      46.202   4.364  13.085  0.00  0.00    +0.000 A 
ATOM     26  N   UNL     1      45.789   3.088  12.966  0.00  0.00    +0.000 NA
ATOM     27  C   UNL     1      44.672   2.855  12.272  0.00  0.00    +0.000 A 
ATOM     28  N   UNL     1      43.903   3.752  11.663  0.00  0.00    +0.000 NA
ATOM     29  C   UNL     1      44.347   5.014  11.815  0.00  0.00    +0.000 A 
ATOM     30  S   UNL     1      43.492   6.294  11.097  0.00  0.00    +0.000 S 
ATOM     31  C   UNL     1      44.586   7.436  11.722  0.00  0.00    +0.000 A 
ATOM     32  C   UNL     1      45.600   6.881  12.494  0.00  0.00    +0.000 A 
ATOM     33  C   UNL     1      45.471   5.427  12.521  0.00  0.00    +0.000 A 
BRANCH  25  35
ATOM     34  C   UNL     1      47.180   4.379  15.212  0.00  0.00    +0.000 C 
ATOM     35  O   UNL     1      47.344   4.612  13.816  0.00  0.00    +0.000 OA
ENDBRANCH  25  35
ENDBRANCH  21  32
ENDBRANCH  20  23
ENDBRANCH   1  20
TORSDOF 7
ENDMDL
MODEL 7
REMARK VINA RESULT:    -5.629      5.092      9.562
REMARK INTER + INTRA:          -9.267
REMARK INTER:                  -8.395
REMARK INTRA:                  -0.873
REMARK UNBOUND:                -1.335
REMARK  Name = 
REMARK  10 active torsions:
REMARK  status: ('A' for Active; 'I' for Inactive)
REMARK    1  A    between atoms: C_1  and  O_2
REMARK    2  A    between atoms: O_2  and  C_3
REMARK    3  A    between atoms: C_10  and  C_11
REMARK    4  A    between atoms: N_13  and  C_14
REMARK    5  A    between atoms: C_14  and  C_15
REMARK    6  A    between atoms: C_18  and  N_19
REMARK    7  A    between atoms: N_19  and  C_20
REMARK    8  A    between atoms: C_20  and  C_21
REMARK    9  A    between atoms: C_20  and  C_22
REMARK   10  A    between atoms: C_26  and  C_27
REMARK                            x       y       z     vdW  Elec       q    Type
REMARK                         _______ _______ _______ _____ _____    ______ ____
ROOT
ATOM      1  C   UNL     1      50.125   8.042  12.677  0.00  0.00    +0.000 A 
ATOM      2  C   UNL     1      50.634   8.460  13.903  0.00  0.00    +0.000 A 
ATOM      3  C   UNL     1      49.969   8.136  15.085  0.00  0.00    +0.000 A 
ATOM      4  C   UNL     1      48.822   7.342  15.111  0.00  0.00    +0.000 A 
ATOM      5  C   UNL     1      48.335   6.898  13.878  0.00  0.00    +0.000 A 
ATOM      6  C   UNL     1      48.974   7.244  12.674  0.00  0.00    +0.000 A 
ENDROOT
BRANCH   4   7
ATOM      7  N   UNL     1      48.177   7.031  16.302  0.00  0.00    +0.000 N 
ATOM      8  H   UNL     1      47.166   7.105  16.314  0.00  0.00    +0.000 HD
BRANCH   7   9
ATOM      9  C   UNL     1      48.864   7.123  17.598  0.00  0.00    +0.000 C 
ATOM     10  C   UNL     1      48.374   8.386  18.326  0.00  0.00    +0.000 C 
BRANCH   9  11
ATOM     11  C   UNL     1      48.580   5.845  18.442  0.00  0.00    +0.000 C 
ATOM     12  C   UNL     1      49.871   5.168  18.953  0.00  0.00    +0.000 C 
ATOM     13  C   UNL     1      50.646   4.488  17.826  0.00  0.00    +0.000 C 
ATOM     14  N   UNL     1      49.799   3.492  17.171  0.00  0.00    +0.000 N 
ATOM     15  C   UNL     1      50.128   2.179  16.880  0.00  0.00    +0.000 C 
ATOM     16  C   UNL     1      51.419   1.595  17.390  0.00  0.00    +0.000 C 
ATOM     17  O   UNL     1      49.377   1.447  16.230  0.00  0.00    +0.000 OA
ATOM     18  C   UNL     1      48.547   4.018  16.636  0.00  0.00    +0.000 C 
ATOM     19  C   UNL     1      47.751   4.777  17.695  0.00  0.00    +0.000 C 
ENDBRANCH   9  11
ENDBRANCH   7   9
ENDBRANCH   4   7
BRANCH   1  20
ATOM     20  C   UNL     1      50.843   8.429  11.413  0.00  0.00    +0.000 C 
BRANCH  20  23
ATOM     21  C   UNL     1      52.767   7.625  10.125  0.00  0.00    +0.000 C 
ATOM     22  O   UNL     1      52.969   8.747   9.659  0.00  0.00    +0.000 OA
ATOM     23  N   UNL     1      51.744   7.388  10.993  0.00  0.00    +0.000 N 
ATOM     24  H   UNL     1      51.603   6.463  11.378  0.00  0.00    +0.000 HD
BRANCH  21  32
ATOM     25  C   UNL     1      53.192   5.863   7.199  0.00  0.00    +0.000 A 
ATOM     26  N   UNL     1      53.592   5.067   6.189  0.00  0.00    +0.000 NA
ATOM     27  C   UNL     1      54.542   4.164   6.444  0.00  0.00    +0.000 A 
ATOM     28  N   UNL     1      55.151   3.945   7.606  0.00  0.00    +0.000 NA
ATOM     29  C   UNL     1      54.728   4.768   8.583  0.00  0.00    +0.000 A 
ATOM     30  S   UNL     1      55.392   4.627  10.140  0.00  0.00    +0.000 S 
ATOM     31  C   UNL     1      54.435   5.910  10.715  0.00  0.00    +0.000 A 
ATOM     32  C   UNL     1      53.615   6.477   9.747  0.00  0.00    +0.000 A 
ATOM     33  C   UNL     1      53.771   5.770   8.478  0.00  0.00    +0.000 A 
BRANCH  25  35
ATOM     34  C   UNL     1      52.739   7.980   6.310  0.00  0.00    +0.000 C 
ATOM     35  O   UNL     1      52.224   6.809   6.937  0.00  0.00    +0.000 OA
ENDBRANCH  25  35
ENDBRANCH  21  32
ENDBRANCH  20  23
ENDBRANCH   1  20
TORSDOF 7
ENDMDL
MODEL 8
REMARK VINA RESULT:    -5.619      5.393      8.263
REMARK INTER + INTRA:          -9.255
REMARK INTER:                  -8.868
REMARK INTRA:                  -0.387
REMARK UNBOUND:                -1.335
REMARK  Name = 
REMARK  10 active torsions:
REMARK  status: ('A' for Active; 'I' for Inactive)
REMARK    1  A    between atoms: C_1  and  O_2
REMARK    2  A    between atoms: O_2  and  C_3
REMARK    3  A    between atoms: C_10  and  C_11
REMARK    4  A    between atoms: N_13  and  C_14
REMARK    5  A    between atoms: C_14  and  C_15
REMARK    6  A    between atoms: C_18  and  N_19
REMARK    7  A    between atoms: N_19  and  C_20
REMARK    8  A    between atoms: C_20  and  C_21
REMARK    9  A    between atoms: C_20  and  C_22
REMARK   10  A    between atoms: C_26  and  C_27
REMARK                            x       y       z     vdW  Elec       q    Type
REMARK                         _______ _______ _______ _____ _____    ______ ____
ROOT
ATOM      1  C   UNL     1      50.305   9.850  11.442  0.00  0.00    +0.000 A 
ATOM      2  C   UNL     1      50.159   8.908  12.455  0.00  0.00    +0.000 A 
ATOM      3  C   UNL     1      48.920   8.719  13.064  0.00  0.00    +0.000 A 
ATOM      4  C   UNL     1      47.770   9.399  12.661  0.00  0.00    +0.000 A 
ATOM      5  C   UNL     1      47.916  10.321  11.619  0.00  0.00    +0.000 A 
ATOM      6  C   UNL     1      49.168  10.549  11.017  0.00  0.00    +0.000 A 
ENDROOT
BRANCH   4   7
ATOM      7  N   UNL     1      46.544   9.193  13.282  0.00  0.00    +0.000 N 
ATOM      8  H   UNL     1      46.435   9.558  14.222  0.00  0.00    +0.000 HD
BRANCH   7   9
ATOM      9  C   UNL     1      45.657   8.089  12.891  0.00  0.00    +0.000 C 
ATOM     10  C   UNL     1      44.905   8.490  11.612  0.00  0.00    +0.000 C 
BRANCH   9  11
ATOM     11  C   UNL     1      46.489   6.792  12.669  0.00  0.00    +0.000 C 
ATOM     12  C   UNL     1      46.382   6.254  11.225  0.00  0.00    +0.000 C 
ATOM     13  C   UNL     1      45.007   5.653  10.937  0.00  0.00    +0.000 C 
ATOM     14  N   UNL     1      44.730   4.573  11.882  0.00  0.00    +0.000 N 
ATOM     15  C   UNL     1      44.275   3.300  11.583  0.00  0.00    +0.000 C 
ATOM     16  C   UNL     1      44.171   2.855  10.148  0.00  0.00    +0.000 C 
ATOM     17  O   UNL     1      43.972   2.491  12.466  0.00  0.00    +0.000 OA
ATOM     18  C   UNL     1      44.793   4.964  13.288  0.00  0.00    +0.000 C 
ATOM     19  C   UNL     1      46.118   5.641  13.630  0.00  0.00    +0.000 C 
ENDBRANCH   9  11
ENDBRANCH   7   9
ENDBRANCH   4   7
BRANCH   1  20
ATOM     20  C   UNL     1      51.658  10.058  10.820  0.00  0.00    +0.000 C 
BRANCH  20  23
ATOM     21  C   UNL     1      53.331   8.692   9.659  0.00  0.00    +0.000 C 
ATOM     22  O   UNL     1      53.772   9.676   9.063  0.00  0.00    +0.000 OA
ATOM     23  N   UNL     1      52.296   8.798  10.540  0.00  0.00    +0.000 N 
ATOM     24  H   UNL     1      51.957   7.982  11.033  0.00  0.00    +0.000 HD
BRANCH  21  32
ATOM     25  C   UNL     1      53.148   6.465   7.042  0.00  0.00    +0.000 A 
ATOM     26  N   UNL     1      53.294   5.460   6.157  0.00  0.00    +0.000 NA
ATOM     27  C   UNL     1      54.058   4.423   6.510  0.00  0.00    +0.000 A 
ATOM     28  N   UNL     1      54.701   4.253   7.661  0.00  0.00    +0.000 NA
ATOM     29  C   UNL     1      54.535   5.284   8.511  0.00  0.00    +0.000 A 
ATOM     30  S   UNL     1      55.280   5.237  10.037  0.00  0.00    +0.000 S 
ATOM     31  C   UNL     1      54.655   6.767  10.440  0.00  0.00    +0.000 A 
ATOM     32  C   UNL     1      53.893   7.346   9.433  0.00  0.00    +0.000 A 
ATOM     33  C   UNL     1      53.798   6.441   8.291  0.00  0.00    +0.000 A 
BRANCH  25  35
ATOM     34  C   UNL     1      53.059   8.461   5.822  0.00  0.00    +0.000 C 
ATOM     35  O   UNL     1      52.377   7.547   6.676  0.00  0.00    +0.000 OA
ENDBRANCH  25  35
ENDBRANCH  21  32
ENDBRANCH  20  23
ENDBRANCH   1  20
TORSDOF 7
ENDMDL
MODEL 9
REMARK VINA RESULT:    -4.897      5.678      7.791
REMARK INTER + INTRA:          -8.236
REMARK INTER:                  -7.364
REMARK INTRA:                  -0.872
REMARK UNBOUND:                -1.335
REMARK  Name = 
REMARK  10 active torsions:
REMARK  status: ('A' for Active; 'I' for Inactive)
REMARK    1  A    between atoms: C_1  and  O_2
REMARK    2  A    between atoms: O_2  and  C_3
REMARK    3  A    between atoms: C_10  and  C_11
REMARK    4  A    between atoms: N_13  and  C_14
REMARK    5  A    between atoms: C_14  and  C_15
REMARK    6  A    between atoms: C_18  and  N_19
REMARK    7  A    between atoms: N_19  and  C_20
REMARK    8  A    between atoms: C_20  and  C_21
REMARK    9  A    between atoms: C_20  and  C_22
REMARK   10  A    between atoms: C_26  and  C_27
REMARK                            x       y       z     vdW  Elec       q    Type
REMARK                         _______ _______ _______ _____ _____    ______ ____
ROOT
ATOM      1  C   UNL     1      51.264   8.993  12.337  0.00  0.00    +0.000 A 
ATOM      2  C   UNL     1      52.459   8.514  12.864  0.00  0.00    +0.000 A 
ATOM      3  C   UNL     1      53.513   8.174  12.018  0.00  0.00    +0.000 A 
ATOM      4  C   UNL     1      53.456   8.352  10.635  0.00  0.00    +0.000 A 
ATOM      5  C   UNL     1      52.265   8.866  10.114  0.00  0.00    +0.000 A 
ATOM      6  C   UNL     1      51.179   9.181  10.951  0.00  0.00    +0.000 A 
ENDROOT
BRANCH   4   7
ATOM      7  N   UNL     1      54.521   8.008   9.811  0.00  0.00    +0.000 N 
ATOM      8  H   UNL     1      55.078   8.766   9.433  0.00  0.00    +0.000 HD
BRANCH   7   9
ATOM      9  C   UNL     1      54.548   6.735   9.076  0.00  0.00    +0.000 C 
ATOM     10  C   UNL     1      54.296   5.588  10.069  0.00  0.00    +0.000 C 
BRANCH   9  11
ATOM     11  C   UNL     1      53.472   6.748   7.950  0.00  0.00    +0.000 C 
ATOM     12  C   UNL     1      53.314   5.376   7.259  0.00  0.00    +0.000 C 
ATOM     13  C   UNL     1      54.514   5.039   6.375  0.00  0.00    +0.000 C 
ATOM     14  N   UNL     1      54.693   6.078   5.363  0.00  0.00    +0.000 N 
ATOM     15  C   UNL     1      54.870   5.895   4.002  0.00  0.00    +0.000 C 
ATOM     16  C   UNL     1      54.728   4.521   3.402  0.00  0.00    +0.000 C 
ATOM     17  O   UNL     1      55.117   6.837   3.243  0.00  0.00    +0.000 OA
ATOM     18  C   UNL     1      54.863   7.426   5.899  0.00  0.00    +0.000 C 
ATOM     19  C   UNL     1      53.731   7.803   6.853  0.00  0.00    +0.000 C 
ENDBRANCH   9  11
ENDBRANCH   7   9
ENDBRANCH   4   7
BRANCH   1  20
ATOM     20  C   UNL     1      50.130   9.325  13.267  0.00  0.00    +0.000 C 
BRANCH  20  23
ATOM     21  C   UNL     1      48.024   8.109  13.577  0.00  0.00    +0.000 C 
ATOM     22  O   UNL     1      48.269   7.917  14.769  0.00  0.00    +0.000 OA
ATOM     23  N   UNL     1      48.887   8.792  12.774  0.00  0.00    +0.000 N 
ATOM     24  H   UNL     1      48.661   8.954  11.801  0.00  0.00    +0.000 HD
BRANCH  21  32
ATOM     25  C   UNL     1      46.506   5.020  13.568  0.00  0.00    +0.000 A 
ATOM     26  N   UNL     1      45.685   3.958  13.458  0.00  0.00    +0.000 NA
ATOM     27  C   UNL     1      44.554   4.112  12.766  0.00  0.00    +0.000 A 
ATOM     28  N   UNL     1      44.133   5.212  12.149  0.00  0.00    +0.000 NA
ATOM     29  C   UNL     1      44.978   6.250  12.293  0.00  0.00    +0.000 A 
ATOM     30  S   UNL     1      44.604   7.739  11.565  0.00  0.00    +0.000 S 
ATOM     31  C   UNL     1      46.022   8.448  12.182  0.00  0.00    +0.000 A 
ATOM     32  C   UNL     1      46.790   7.588  12.958  0.00  0.00    +0.000 A 
ATOM     33  C   UNL     1      46.176   6.263  12.997  0.00  0.00    +0.000 A 
BRANCH  25  35
ATOM     34  C   UNL     1      47.435   4.493  15.651  0.00  0.00    +0.000 C 
ATOM     35  O   UNL     1      47.666   4.872  14.298  0.00  0.00    +0.000 OA
ENDBRANCH  25  35
ENDBRANCH  21  32
ENDBRANCH  20  23
ENDBRANCH   1  20
TORSDOF 7
ENDMDL
