MODEL 1
REMARK VINA RESULT:    -7.850      0.000      0.000
REMARK INTER + INTRA:         -10.491
REMARK INTER:                  -9.915
REMARK INTRA:                  -0.576
REMARK UNBOUND:                -0.576
REMARK  Name = 
REMARK  6 active torsions:
REMARK  status: ('A' for Active; 'I' for Inactive)
REMARK    1  A    between atoms: C_1  and  O_2
REMARK    2  A    between atoms: O_2  and  C_3
REMARK    3  A    between atoms: C_9  and  C_10
REMARK    4  A    between atoms: C_10  and  C_11
REMARK    5  A    between atoms: C_14  and  C_15
REMARK    6  A    between atoms: C_15  and  N_16
REMARK                            x       y       z     vdW  Elec       q    Type
REMARK                         _______ _______ _______ _____ _____    ______ ____
ROOT
ATOM      1  C   UNL     1      47.638   6.899  12.126  0.00  0.00    +0.000 A 
ATOM      2  C   UNL     1      47.896   6.435  13.412  0.00  0.00    +0.000 A 
ATOM      3  C   UNL     1      47.093   5.447  13.998  0.00  0.00    +0.000 A 
ATOM      4  C   UNL     1      46.021   4.947  13.249  0.00  0.00    +0.000 A 
ATOM      5  N   UNL     1      45.083   3.993  13.569  0.00  0.00    +0.000 N 
ATOM      6  C   UNL     1      44.215   3.814  12.527  0.00  0.00    +0.000 A 
ATOM      7  C   UNL     1      44.571   4.669  11.502  0.00  0.00    +0.000 A 
ATOM      8  C   UNL     1      45.731   5.385  11.956  0.00  0.00    +0.000 A 
ATOM      9  C   UNL     1      46.563   6.378  11.393  0.00  0.00    +0.000 A 
ATOM     10  H   UNL     1      45.050   3.497  14.449  0.00  0.00    +0.000 HD
ENDROOT
BRANCH   1  12
ATOM     11  C   UNL     1      49.758   7.780  11.506  0.00  0.00    +0.000 C 
ATOM     12  O   UNL     1      48.340   7.878  11.471  0.00  0.00    +0.000 OA
ENDBRANCH   1  12
BRANCH   7  13
ATOM     13  C   UNL     1      43.893   4.787  10.159  0.00  0.00    +0.000 C 
BRANCH  13  14
ATOM     14  C   UNL     1      44.416   3.859   9.035  0.00  0.00    +0.000 C 
ATOM     15  C   UNL     1      44.600   2.412   9.520  0.00  0.00    +0.000 C 
ATOM     16  C   UNL     1      45.296   1.499   8.515  0.00  0.00    +0.000 C 
ATOM     17  C   UNL     1      46.614   2.110   8.022  0.00  0.00    +0.000 C 
ATOM     18  C   UNL     1      46.325   3.466   7.365  0.00  0.00    +0.000 C 
ATOM     19  C   UNL     1      45.660   4.436   8.341  0.00  0.00    +0.000 C 
BRANCH  17  20
ATOM     20  C   UNL     1      47.350   1.187   7.036  0.00  0.00    +0.000 C 
BRANCH  20  21
ATOM     21  N   UNL     1      48.421   1.884   6.332  0.00  0.00    +0.000 NA
ATOM     22  H   UNL     1      48.024   2.599   5.723  0.00  0.00    +0.000 HD
ATOM     23  H   UNL     1      48.914   1.230   5.728  0.00  0.00    +0.000 HD
ENDBRANCH  20  21
ENDBRANCH  17  20
ENDBRANCH  13  14
ENDBRANCH   7  13
TORSDOF 5
ENDMDL
MODEL 2
REMARK VINA RESULT:    -7.630      1.566      2.172
REMARK INTER + INTRA:         -10.214
REMARK INTER:                  -9.695
REMARK INTRA:                  -0.518
REMARK UNBOUND:                -0.576
REMARK  Name = 
REMARK  6 active torsions:
REMARK  status: ('A' for Active; 'I' for Inactive)
REMARK    1  A    between atoms: C_1  and  O_2
REMARK    2  A    between atoms: O_2  and  C_3
REMARK    3  A    between atoms: C_9  and  C_10
REMARK    4  A    between atoms: C_10  and  C_11
REMARK    5  A    between atoms: C_14  and  C_15
REMARK    6  A    between atoms: C_15  and  N_16
REMARK                            x       y       z     vdW  Elec       q    Type
REMARK                         _______ _______ _______ _____ _____    ______ ____
ROOT
ATOM      1  C   UNL     1      47.193   6.442  12.725  0.00  0.00    +0.000 A 
ATOM      2  C   UNL     1      46.539   7.643  12.984  0.00  0.00    +0.000 A 
ATOM      3  C   UNL     1      45.209   7.840  12.588  0.00  0.00    +0.000 A 
ATOM      4  C   UNL     1      44.564   6.794  11.918  0.00  0.00    +0.000 A 
ATOM      5  N   UNL     1      43.284   6.714  11.420  0.00  0.00    +0.000 N 
ATOM      6  C   UNL     1      43.077   5.492  10.841  0.00  0.00    +0.000 A 
ATOM      7  C   UNL     1      44.237   4.750  10.943  0.00  0.00    +0.000 A 
ATOM      8  C   UNL     1      45.185   5.575  11.641  0.00  0.00    +0.000 A 
ATOM      9  C   UNL     1      46.524   5.406  12.058  0.00  0.00    +0.000 A 
ATOM     10  H   UNL     1      42.600   7.456  11.480  0.00  0.00    +0.000 HD
ENDROOT
BRANCH   1  12
ATOM     11  C   UNL     1      49.399   7.250  13.092  0.00  0.00    +0.000 C 
ATOM     12  O   UNL     1      48.495   6.154  13.043  0.00  0.00    +0.000 OA
ENDBRANCH   1  12
BRANCH   7  13
ATOM     13  C   UNL     1      44.444   3.338  10.452  0.00  0.00    +0.000 C 
BRANCH  13  14
ATOM     14  C   UNL     1      45.587   3.121   9.430  0.00  0.00    +0.000 C 
ATOM     15  C   UNL     1      45.716   4.299   8.450  0.00  0.00    +0.000 C 
ATOM     16  C   UNL     1      46.692   4.054   7.304  0.00  0.00    +0.000 C 
ATOM     17  C   UNL     1      46.387   2.736   6.579  0.00  0.00    +0.000 C 
ATOM     18  C   UNL     1      46.477   1.579   7.583  0.00  0.00    +0.000 C 
ATOM     19  C   UNL     1      45.491   1.753   8.736  0.00  0.00    +0.000 C 
BRANCH  17  20
ATOM     20  C   UNL     1      47.338   2.490   5.396  0.00  0.00    +0.000 C 
BRANCH  20  21
ATOM     21  N   UNL     1      48.520   1.734   5.795  0.00  0.00    +0.000 NA
ATOM     22  H   UNL     1      48.434   1.451   6.771  0.00  0.00    +0.000 HD
ATOM     23  H   UNL     1      49.342   2.332   5.738  0.00  0.00    +0.000 HD
ENDBRANCH  20  21
ENDBRANCH  17  20
ENDBRANCH  13  14
ENDBRANCH   7  13
TORSDOF 5
ENDMDL
MODEL 3
REMARK VINA RESULT:    -7.593      1.895      2.567
REMARK INTER + INTRA:         -10.167
REMARK INTER:                  -9.625
REMARK INTRA:                  -0.541
REMARK UNBOUND:                -0.576
REMARK  Name = 
REMARK  6 active torsions:
REMARK  status: ('A' for Active; 'I' for Inactive)
REMARK    1  A    between atoms: C_1  and  O_2
REMARK    2  A    between atoms: O_2  and  C_3
REMARK    3  A    between atoms: C_9  and  C_10
REMARK    4  A    between atoms: C_10  and  C_11
REMARK    5  A    between atoms: C_14  and  C_15
REMARK    6  A    between atoms: C_15  and  N_16
REMARK                            x       y       z     vdW  Elec       q    Type
REMARK                         _______ _______ _______ _____ _____    ______ ____
ROOT
ATOM      1  C   UNL     1      47.082   4.322  13.982  0.00  0.00    +0.000 A 
ATOM      2  C   UNL     1      47.628   5.578  14.229  0.00  0.00    +0.000 A 
ATOM      3  C   UNL     1      47.194   6.706  13.519  0.00  0.00    +0.000 A 
ATOM      4  C   UNL     1      46.198   6.526  12.551  0.00  0.00    +0.000 A 
ATOM      5  N   UNL     1      45.597   7.439  11.717  0.00  0.00    +0.000 N 
ATOM      6  C   UNL     1      44.667   6.819  10.928  0.00  0.00    +0.000 A 
ATOM      7  C   UNL     1      44.656   5.471  11.232  0.00  0.00    +0.000 A 
ATOM      8  C   UNL     1      45.626   5.284  12.276  0.00  0.00    +0.000 A 
ATOM      9  C   UNL     1      46.082   4.168  13.012  0.00  0.00    +0.000 A 
ATOM     10  H   UNL     1      45.814   8.426  11.699  0.00  0.00    +0.000 HD
ENDROOT
BRANCH   1  12
ATOM     11  C   UNL     1      47.772   3.230  15.979  0.00  0.00    +0.000 C 
ATOM     12  O   UNL     1      47.451   3.153  14.597  0.00  0.00    +0.000 OA
ENDBRANCH   1  12
BRANCH   7  13
ATOM     13  C   UNL     1      43.768   4.421  10.611  0.00  0.00    +0.000 C 
BRANCH  13  14
ATOM     14  C   UNL     1      44.320   3.703   9.354  0.00  0.00    +0.000 C 
ATOM     15  C   UNL     1      44.720   2.249   9.649  0.00  0.00    +0.000 C 
ATOM     16  C   UNL     1      45.449   1.556   8.501  0.00  0.00    +0.000 C 
ATOM     17  C   UNL     1      46.640   2.390   8.009  0.00  0.00    +0.000 C 
ATOM     18  C   UNL     1      46.134   3.760   7.539  0.00  0.00    +0.000 C 
ATOM     19  C   UNL     1      45.426   4.516   8.663  0.00  0.00    +0.000 C 
BRANCH  17  20
ATOM     20  C   UNL     1      47.411   1.690   6.877  0.00  0.00    +0.000 C 
BRANCH  20  21
ATOM     21  N   UNL     1      48.555   2.478   6.429  0.00  0.00    +0.000 NA
ATOM     22  H   UNL     1      49.215   2.593   7.198  0.00  0.00    +0.000 HD
ATOM     23  H   UNL     1      48.244   3.413   6.171  0.00  0.00    +0.000 HD
ENDBRANCH  20  21
ENDBRANCH  17  20
ENDBRANCH  13  14
ENDBRANCH   7  13
TORSDOF 5
ENDMDL
MODEL 4
REMARK VINA RESULT:    -7.089      2.412      5.721
REMARK INTER + INTRA:          -9.531
REMARK INTER:                  -8.908
REMARK INTRA:                  -0.623
REMARK UNBOUND:                -0.576
REMARK  Name = 
REMARK  6 active torsions:
REMARK  status: ('A' for Active; 'I' for Inactive)
REMARK    1  A    between atoms: C_1  and  O_2
REMARK    2  A    between atoms: O_2  and  C_3
REMARK    3  A    between atoms: C_9  and  C_10
REMARK    4  A    between atoms: C_10  and  C_11
REMARK    5  A    between atoms: C_14  and  C_15
REMARK    6  A    between atoms: C_15  and  N_16
REMARK                            x       y       z     vdW  Elec       q    Type
REMARK                         _______ _______ _______ _____ _____    ______ ____
ROOT
ATOM      1  C   UNL     1      45.702   3.713   8.139  0.00  0.00    +0.000 A 
ATOM      2  C   UNL     1      45.426   2.350   8.191  0.00  0.00    +0.000 A 
ATOM      3  C   UNL     1      44.688   1.803   9.249  0.00  0.00    +0.000 A 
ATOM      4  C   UNL     1      44.242   2.671  10.253  0.00  0.00    +0.000 A 
ATOM      5  N   UNL     1      43.513   2.413  11.390  0.00  0.00    +0.000 N 
ATOM      6  C   UNL     1      43.299   3.570  12.089  0.00  0.00    +0.000 A 
ATOM      7  C   UNL     1      43.904   4.613  11.414  0.00  0.00    +0.000 A 
ATOM      8  C   UNL     1      44.497   4.043  10.235  0.00  0.00    +0.000 A 
ATOM      9  C   UNL     1      45.240   4.563   9.153  0.00  0.00    +0.000 A 
ATOM     10  H   UNL     1      43.184   1.497  11.662  0.00  0.00    +0.000 HD
ENDROOT
BRANCH   1  12
ATOM     11  C   UNL     1      46.885   3.546   6.083  0.00  0.00    +0.000 C 
ATOM     12  O   UNL     1      46.436   4.346   7.169  0.00  0.00    +0.000 OA
ENDBRANCH   1  12
BRANCH   7  13
ATOM     13  C   UNL     1      43.900   6.066  11.823  0.00  0.00    +0.000 C 
BRANCH  13  14
ATOM     14  C   UNL     1      45.186   6.596  12.504  0.00  0.00    +0.000 C 
ATOM     15  C   UNL     1      45.807   7.770  11.730  0.00  0.00    +0.000 C 
ATOM     16  C   UNL     1      47.176   8.204  12.244  0.00  0.00    +0.000 C 
ATOM     17  C   UNL     1      48.138   7.013  12.349  0.00  0.00    +0.000 C 
ATOM     18  C   UNL     1      47.543   5.968  13.301  0.00  0.00    +0.000 C 
ATOM     19  C   UNL     1      46.184   5.468  12.814  0.00  0.00    +0.000 C 
BRANCH  17  20
ATOM     20  C   UNL     1      49.536   7.436  12.829  0.00  0.00    +0.000 C 
BRANCH  20  21
ATOM     21  N   UNL     1      49.817   6.957  14.179  0.00  0.00    +0.000 NA
ATOM     22  H   UNL     1      49.168   7.387  14.838  0.00  0.00    +0.000 HD
ATOM     23  H   UNL     1      50.751   7.252  14.458  0.00  0.00    +0.000 HD
ENDBRANCH  20  21
ENDBRANCH  17  20
ENDBRANCH  13  14
ENDBRANCH   7  13
TORSDOF 5
ENDMDL
MODEL 5
REMARK VINA RESULT:    -6.216      2.619      5.937
REMARK INTER + INTRA:          -8.427
REMARK INTER:                  -7.900
REMARK INTRA:                  -0.527
REMARK UNBOUND:                -0.576
REMARK  Name = 
REMARK  6 active torsions:
REMARK  status: ('A' for Active; 'I' for Inactive)
REMARK    1  A    between atoms: C_1  and  O_2
REMARK    2  A    between atoms: O_2  and  C_3
REMARK    3  A    between atoms: C_9  and  C_10
REMARK    4  A    between atoms: C_10  and  C_11
REMARK    5  A    between atoms: C_14  and  C_15
REMARK    6  A    between atoms: C_15  and  N_16
REMARK                            x       y       z     vdW  Elec       q    Type
REMARK                         _______ _______ _______ _____ _____    ______ ____
ROOT
ATOM      1  C   UNL     1      45.187   3.815   8.578  0.00  0.00    +0.000 A 
ATOM      2  C   UNL     1      44.669   2.620   9.067  0.00  0.00    +0.000 A 
ATOM      3  C   UNL     1      44.135   2.541  10.361  0.00  0.00    +0.000 A 
ATOM      4  C   UNL     1      44.144   3.702  11.144  0.00  0.00    +0.000 A 
ATOM      5  N   UNL     1      43.696   3.909  12.428  0.00  0.00    +0.000 N 
ATOM      6  C   UNL     1      43.903   5.210  12.797  0.00  0.00    +0.000 A 
ATOM      7  C   UNL     1      44.508   5.877  11.749  0.00  0.00    +0.000 A 
ATOM      8  C   UNL     1      44.652   4.918  10.688  0.00  0.00    +0.000 A 
ATOM      9  C   UNL     1      45.179   4.966   9.379  0.00  0.00    +0.000 A 
ATOM     10  H   UNL     1      43.273   3.197  13.008  0.00  0.00    +0.000 HD
ENDROOT
BRANCH   1  12
ATOM     11  C   UNL     1      46.991   3.335   7.106  0.00  0.00    +0.000 C 
ATOM     12  O   UNL     1      45.756   3.997   7.343  0.00  0.00    +0.000 OA
ENDBRANCH   1  12
BRANCH   7  13
ATOM     13  C   UNL     1      44.897   7.335  11.722  0.00  0.00    +0.000 C 
BRANCH  13  14
ATOM     14  C   UNL     1      46.254   7.701  12.372  0.00  0.00    +0.000 C 
ATOM     15  C   UNL     1      46.650   9.161  12.100  0.00  0.00    +0.000 C 
ATOM     16  C   UNL     1      48.063   9.519  12.548  0.00  0.00    +0.000 C 
ATOM     17  C   UNL     1      49.096   8.532  11.989  0.00  0.00    +0.000 C 
ATOM     18  C   UNL     1      48.751   7.117  12.472  0.00  0.00    +0.000 C 
ATOM     19  C   UNL     1      47.356   6.690  12.018  0.00  0.00    +0.000 C 
BRANCH  17  20
ATOM     20  C   UNL     1      50.532   8.899  12.399  0.00  0.00    +0.000 C 
BRANCH  20  21
ATOM     21  N   UNL     1      51.486   7.854  12.040  0.00  0.00    +0.000 NA
ATOM     22  H   UNL     1      51.409   7.646  11.044  0.00  0.00    +0.000 HD
ATOM     23  H   UNL     1      51.251   6.995  12.534  0.00  0.00    +0.000 HD
ENDBRANCH  20  21
ENDBRANCH  17  20
ENDBRANCH  13  14
ENDBRANCH   7  13
TORSDOF 5
ENDMDL
MODEL 6
REMARK VINA RESULT:    -5.578      3.221      7.330
REMARK INTER + INTRA:          -7.622
REMARK INTER:                  -7.131
REMARK INTRA:                  -0.491
REMARK UNBOUND:                -0.576
REMARK  Name = 
REMARK  6 active torsions:
REMARK  status: ('A' for Active; 'I' for Inactive)
REMARK    1  A    between atoms: C_1  and  O_2
REMARK    2  A    between atoms: O_2  and  C_3
REMARK    3  A    between atoms: C_9  and  C_10
REMARK    4  A    between atoms: C_10  and  C_11
REMARK    5  A    between atoms: C_14  and  C_15
REMARK    6  A    between atoms: C_15  and  N_16
REMARK                            x       y       z     vdW  Elec       q    Type
REMARK                         _______ _______ _______ _____ _____    ______ ____
ROOT
ATOM      1  C   UNL     1      44.393   4.069  11.043  0.00  0.00    +0.000 A 
ATOM      2  C   UNL     1      43.357   4.930  10.698  0.00  0.00    +0.000 A 
ATOM      3  C   UNL     1      43.378   6.277  11.086  0.00  0.00    +0.000 A 
ATOM      4  C   UNL     1      44.472   6.724  11.836  0.00  0.00    +0.000 A 
ATOM      5  N   UNL     1      44.748   7.972  12.346  0.00  0.00    +0.000 N 
ATOM      6  C   UNL     1      45.941   7.956  13.016  0.00  0.00    +0.000 A 
ATOM      7  C   UNL     1      46.462   6.677  12.963  0.00  0.00    +0.000 A 
ATOM      8  C   UNL     1      45.531   5.892  12.200  0.00  0.00    +0.000 A 
ATOM      9  C   UNL     1      45.482   4.542  11.789  0.00  0.00    +0.000 A 
ATOM     10  H   UNL     1      44.151   8.780  12.234  0.00  0.00    +0.000 HD
ENDROOT
BRANCH   1  12
ATOM     11  C   UNL     1      44.606   2.395   9.368  0.00  0.00    +0.000 C 
ATOM     12  O   UNL     1      44.460   2.733  10.741  0.00  0.00    +0.000 OA
ENDBRANCH   1  12
BRANCH   7  13
ATOM     13  C   UNL     1      47.771   6.219  13.558  0.00  0.00    +0.000 C 
BRANCH  13  14
ATOM     14  C   UNL     1      47.796   6.004  15.092  0.00  0.00    +0.000 C 
ATOM     15  C   UNL     1      49.129   6.446  15.715  0.00  0.00    +0.000 C 
ATOM     16  C   UNL     1      49.283   6.078  17.188  0.00  0.00    +0.000 C 
ATOM     17  C   UNL     1      49.007   4.587  17.424  0.00  0.00    +0.000 C 
ATOM     18  C   UNL     1      47.580   4.262  16.964  0.00  0.00    +0.000 C 
ATOM     19  C   UNL     1      47.379   4.577  15.482  0.00  0.00    +0.000 C 
BRANCH  17  20
ATOM     20  C   UNL     1      49.195   4.188  18.898  0.00  0.00    +0.000 C 
BRANCH  20  21
ATOM     21  N   UNL     1      48.317   3.087  19.280  0.00  0.00    +0.000 NA
ATOM     22  H   UNL     1      47.359   3.425  19.368  0.00  0.00    +0.000 HD
ATOM     23  H   UNL     1      48.586   2.740  20.199  0.00  0.00    +0.000 HD
ENDBRANCH  20  21
ENDBRANCH  17  20
ENDBRANCH  13  14
ENDBRANCH   7  13
TORSDOF 5
ENDMDL
MODEL 7
REMARK VINA RESULT:    -5.539      3.403      6.249
REMARK INTER + INTRA:          -7.572
REMARK INTER:                  -7.084
REMARK INTRA:                  -0.488
REMARK UNBOUND:                -0.576
REMARK  Name = 
REMARK  6 active torsions:
REMARK  status: ('A' for Active; 'I' for Inactive)
REMARK    1  A    between atoms: C_1  and  O_2
REMARK    2  A    between atoms: O_2  and  C_3
REMARK    3  A    between atoms: C_9  and  C_10
REMARK    4  A    between atoms: C_10  and  C_11
REMARK    5  A    between atoms: C_14  and  C_15
REMARK    6  A    between atoms: C_15  and  N_16
REMARK                            x       y       z     vdW  Elec       q    Type
REMARK                         _______ _______ _______ _____ _____    ______ ____
ROOT
ATOM      1  C   UNL     1      46.522   3.892  13.456  0.00  0.00    +0.000 A 
ATOM      2  C   UNL     1      45.738   3.273  12.487  0.00  0.00    +0.000 A 
ATOM      3  C   UNL     1      44.972   4.027  11.588  0.00  0.00    +0.000 A 
ATOM      4  C   UNL     1      45.016   5.422  11.700  0.00  0.00    +0.000 A 
ATOM      5  N   UNL     1      44.374   6.392  10.967  0.00  0.00    +0.000 N 
ATOM      6  C   UNL     1      44.716   7.635  11.425  0.00  0.00    +0.000 A 
ATOM      7  C   UNL     1      45.588   7.492  12.486  0.00  0.00    +0.000 A 
ATOM      8  C   UNL     1      45.791   6.079  12.657  0.00  0.00    +0.000 A 
ATOM      9  C   UNL     1      46.555   5.291  13.544  0.00  0.00    +0.000 A 
ATOM     10  H   UNL     1      43.744   6.205  10.199  0.00  0.00    +0.000 HD
ENDROOT
BRANCH   1  12
ATOM     11  C   UNL     1      47.445   3.913  15.647  0.00  0.00    +0.000 C 
ATOM     12  O   UNL     1      47.285   3.253  14.399  0.00  0.00    +0.000 OA
ENDBRANCH   1  12
BRANCH   7  13
ATOM     13  C   UNL     1      46.228   8.608  13.276  0.00  0.00    +0.000 C 
BRANCH  13  14
ATOM     14  C   UNL     1      47.666   9.010  12.865  0.00  0.00    +0.000 C 
ATOM     15  C   UNL     1      48.269   8.031  11.844  0.00  0.00    +0.000 C 
ATOM     16  C   UNL     1      49.748   8.266  11.553  0.00  0.00    +0.000 C 
ATOM     17  C   UNL     1      50.572   8.324  12.846  0.00  0.00    +0.000 C 
ATOM     18  C   UNL     1      50.040   9.461  13.729  0.00  0.00    +0.000 C 
ATOM     19  C   UNL     1      48.568   9.258  14.085  0.00  0.00    +0.000 C 
BRANCH  17  20
ATOM     20  C   UNL     1      52.072   8.522  12.570  0.00  0.00    +0.000 C 
BRANCH  20  21
ATOM     21  N   UNL     1      52.528   7.725  11.436  0.00  0.00    +0.000 NA
ATOM     22  H   UNL     1      53.030   6.903  11.773  0.00  0.00    +0.000 HD
ATOM     23  H   UNL     1      53.193   8.264  10.886  0.00  0.00    +0.000 HD
ENDBRANCH  20  21
ENDBRANCH  17  20
ENDBRANCH  13  14
ENDBRANCH   7  13
TORSDOF 5
ENDMDL
MODEL 8
REMARK VINA RESULT:    -5.456      2.589      4.092
REMARK INTER + INTRA:          -7.468
REMARK INTER:                  -6.958
REMARK INTRA:                  -0.510
REMARK UNBOUND:                -0.576
REMARK  Name = 
REMARK  6 active torsions:
REMARK  status: ('A' for Active; 'I' for Inactive)
REMARK    1  A    between atoms: C_1  and  O_2
REMARK    2  A    between atoms: O_2  and  C_3
REMARK    3  A    between atoms: C_9  and  C_10
REMARK    4  A    between atoms: C_10  and  C_11
REMARK    5  A    between atoms: C_14  and  C_15
REMARK    6  A    between atoms: C_15  and  N_16
REMARK                            x       y       z     vdW  Elec       q    Type
REMARK                         _______ _______ _______ _____ _____    ______ ____
ROOT
ATOM      1  C   UNL     1      49.667   9.384  11.382  0.00  0.00    +0.000 A 
ATOM      2  C   UNL     1      49.212  10.688  11.215  0.00  0.00    +0.000 A 
ATOM      3  C   UNL     1      47.891  11.037  11.527  0.00  0.00    +0.000 A 
ATOM      4  C   UNL     1      47.045  10.031  12.007  0.00  0.00    +0.000 A 
ATOM      5  N   UNL     1      45.723  10.087  12.382  0.00  0.00    +0.000 N 
ATOM      6  C   UNL     1      45.294   8.855  12.795  0.00  0.00    +0.000 A 
ATOM      7  C   UNL     1      46.342   7.961  12.682  0.00  0.00    +0.000 A 
ATOM      8  C   UNL     1      47.464   8.712  12.190  0.00  0.00    +0.000 A 
ATOM      9  C   UNL     1      48.802   8.394  11.870  0.00  0.00    +0.000 A 
ATOM     10  H   UNL     1      45.157  10.924  12.357  0.00  0.00    +0.000 HD
ENDROOT
BRANCH   1  12
ATOM     11  C   UNL     1      52.016   9.670  11.614  0.00  0.00    +0.000 C 
ATOM     12  O   UNL     1      50.926   8.929  11.083  0.00  0.00    +0.000 OA
ENDBRANCH   1  12
BRANCH   7  13
ATOM     13  C   UNL     1      46.312   6.497  13.046  0.00  0.00    +0.000 C 
BRANCH  13  14
ATOM     14  C   UNL     1      45.415   5.585  12.172  0.00  0.00    +0.000 C 
ATOM     15  C   UNL     1      45.412   4.131  12.670  0.00  0.00    +0.000 C 
ATOM     16  C   UNL     1      44.704   3.153  11.737  0.00  0.00    +0.000 C 
ATOM     17  C   UNL     1      45.232   3.266  10.301  0.00  0.00    +0.000 C 
ATOM     18  C   UNL     1      45.015   4.699   9.798  0.00  0.00    +0.000 C 
ATOM     19  C   UNL     1      45.736   5.721  10.675  0.00  0.00    +0.000 C 
BRANCH  17  20
ATOM     20  C   UNL     1      44.558   2.260   9.353  0.00  0.00    +0.000 C 
BRANCH  20  21
ATOM     21  N   UNL     1      45.510   1.294   8.815  0.00  0.00    +0.000 NA
ATOM     22  H   UNL     1      45.907   1.650   7.946  0.00  0.00    +0.000 HD
ATOM     23  H   UNL     1      45.024   0.431   8.580  0.00  0.00    +0.000 HD
ENDBRANCH  20  21
ENDBRANCH  17  20
ENDBRANCH  13  14
ENDBRANCH   7  13
TORSDOF 5
ENDMDL
MODEL 9
REMARK VINA RESULT:    -5.282      3.307      5.353
REMARK INTER + INTRA:          -7.247
REMARK INTER:                  -6.699
REMARK INTRA:                  -0.548
REMARK UNBOUND:                -0.576
REMARK  Name = 
REMARK  6 active torsions:
REMARK  status: ('A' for Active; 'I' for Inactive)
REMARK    1  A    between atoms: C_1  and  O_2
REMARK    2  A    between atoms: O_2  and  C_3
REMARK    3  A    between atoms: C_9  and  C_10
REMARK    4  A    between atoms: C_10  and  C_11
REMARK    5  A    between atoms: C_14  and  C_15
REMARK    6  A    between atoms: C_15  and  N_16
REMARK                            x       y       z     vdW  Elec       q    Type
REMARK                         _______ _______ _______ _____ _____    ______ ____
ROOT
ATOM      1  C   UNL     1      49.054   6.975  16.674  0.00  0.00    +0.000 A 
ATOM      2  C   UNL     1      49.092   8.251  17.228  0.00  0.00    +0.000 A 
ATOM      3  C   UNL     1      48.781   9.381  16.459  0.00  0.00    +0.000 A 
ATOM      4  C   UNL     1      48.437   9.185  15.116  0.00  0.00    +0.000 A 
ATOM      5  N   UNL     1      48.095  10.097  14.145  0.00  0.00    +0.000 N 
ATOM      6  C   UNL     1      47.831   9.456  12.966  0.00  0.00    +0.000 A 
ATOM      7  C   UNL     1      48.011   8.098  13.149  0.00  0.00    +0.000 A 
ATOM      8  C   UNL     1      48.387   7.922  14.525  0.00  0.00    +0.000 A 
ATOM      9  C   UNL     1      48.701   6.803  15.328  0.00  0.00    +0.000 A 
ATOM     10  H   UNL     1      48.046  11.096  14.292  0.00  0.00    +0.000 HD
ENDROOT
BRANCH   1  12
ATOM     11  C   UNL     1      48.290   4.917  17.586  0.00  0.00    +0.000 C 
ATOM     12  O   UNL     1      49.365   5.809  17.324  0.00  0.00    +0.000 OA
ENDBRANCH   1  12
BRANCH   7  13
ATOM     13  C   UNL     1      47.808   7.021  12.112  0.00  0.00    +0.000 C 
BRANCH  13  14
ATOM     14  C   UNL     1      46.417   6.341  12.083  0.00  0.00    +0.000 C 
ATOM     15  C   UNL     1      46.329   5.164  13.068  0.00  0.00    +0.000 C 
ATOM     16  C   UNL     1      45.052   4.339  12.942  0.00  0.00    +0.000 C 
ATOM     17  C   UNL     1      44.812   3.894  11.494  0.00  0.00    +0.000 C 
ATOM     18  C   UNL     1      44.708   5.135  10.598  0.00  0.00    +0.000 C 
ATOM     19  C   UNL     1      45.978   5.981  10.655  0.00  0.00    +0.000 C 
BRANCH  17  20
ATOM     20  C   UNL     1      43.549   3.027  11.353  0.00  0.00    +0.000 C 
BRANCH  20  21
ATOM     21  N   UNL     1      43.476   1.999  12.386  0.00  0.00    +0.000 NA
ATOM     22  H   UNL     1      42.638   1.434  12.249  0.00  0.00    +0.000 HD
ATOM     23  H   UNL     1      43.381   2.440  13.299  0.00  0.00    +0.000 HD
ENDBRANCH  20  21
ENDBRANCH  17  20
ENDBRANCH  13  14
ENDBRANCH   7  13
TORSDOF 5
ENDMDL
