MODEL 1
REMARK VINA RESULT:    -8.753      0.000      0.000
REMARK INTER + INTRA:         -13.194
REMARK INTER:                 -11.824
REMARK INTRA:                  -1.371
REMARK UNBOUND:                -1.371
REMARK  Name = 
REMARK  7 active torsions:
REMARK  status: ('A' for Active; 'I' for Inactive)
REMARK    1  A    between atoms: C_1  and  C_2
REMARK    2  A    between atoms: C_2  and  C_3
REMARK    3  A    between atoms: C_7  and  C_8
REMARK    4  A    between atoms: C_8  and  C_9
REMARK    5  A    between atoms: C_9  and  N_10
REMARK    6  A    between atoms: C_14  and  C_15
REMARK    7  A    between atoms: C_23  and  C_24
REMARK                            x       y       z     vdW  Elec       q    Type
REMARK                         _______ _______ _______ _____ _____    ______ ____
ROOT
ATOM      1  C   UNL     1      46.792   6.538  13.032  0.00  0.00    +0.000 A 
ATOM      2  C   UNL     1      47.428   5.437  13.620  0.00  0.00    +0.000 A 
ATOM      3  C   UNL     1      46.766   4.213  13.757  0.00  0.00    +0.000 A 
ATOM      4  C   UNL     1      45.446   4.071  13.329  0.00  0.00    +0.000 A 
ATOM      5  C   UNL     1      44.770   5.147  12.747  0.00  0.00    +0.000 A 
ATOM      6  C   UNL     1      45.469   6.357  12.586  0.00  0.00    +0.000 A 
ENDROOT
BRANCH   1   8
ATOM      7  C   UNL     1      46.392   9.039  12.804  0.00  0.00    +0.000 C 
ATOM      8  C   UNL     1      47.445   7.923  12.899  0.00  0.00    +0.000 C 
ATOM      9  C   UNL     1      48.402   8.177  14.057  0.00  0.00    +0.000 C 
ATOM     10  C   UNL     1      49.660   8.323  13.611  0.00  0.00    +0.000 C 
ATOM     11  C   UNL     1      49.672   8.221  12.167  0.00  0.00    +0.000 C 
ATOM     12  C   UNL     1      48.411   8.036  11.734  0.00  0.00    +0.000 C 
BRANCH  11  13
ATOM     13  C   UNL     1      50.915   8.293  11.346  0.00  0.00    +0.000 C 
ATOM     14  F   UNL     1      51.024   9.458  10.659  0.00  0.00    +0.000 F 
ATOM     15  F   UNL     1      52.027   8.191  12.121  0.00  0.00    +0.000 F 
ATOM     16  F   UNL     1      50.978   7.290  10.436  0.00  0.00    +0.000 F 
ENDBRANCH  11  13
ENDBRANCH   1   8
BRANCH   5  17
ATOM     17  C   UNL     1      43.309   4.986  12.356  0.00  0.00    +0.000 C 
BRANCH  17  18
ATOM     18  C   UNL     1      43.108   4.256  11.024  0.00  0.00    +0.000 C 
BRANCH  18  19
ATOM     19  N   UNL     1      43.834   4.865   9.907  0.00  0.00    +0.000 N 
ATOM     20  C   UNL     1      44.664   3.904   9.272  0.00  0.00    +0.000 A 
ATOM     21  C   UNL     1      45.448   4.302   8.198  0.00  0.00    +0.000 A 
ATOM     22  C   UNL     1      46.254   3.365   7.552  0.00  0.00    +0.000 A 
ATOM     23  C   UNL     1      46.241   2.061   8.015  0.00  0.00    +0.000 A 
ATOM     24  N   UNL     1      45.472   1.678   9.056  0.00  0.00    +0.000 NA
ATOM     25  N   UNL     1      44.676   2.609   9.671  0.00  0.00    +0.000 NA
ATOM     26  H   UNL     1      44.414   5.646  10.204  0.00  0.00    +0.000 HD
BRANCH  23  27
ATOM     27  C   UNL     1      47.086   1.007   7.389  0.00  0.00    +0.000 C 
ATOM     28  N   UNL     1      46.722  -0.291   7.645  0.00  0.00    +0.000 N 
ATOM     29  O   UNL     1      48.051   1.275   6.691  0.00  0.00    +0.000 OA
ATOM     30  H   UNL     1      45.919  -0.504   8.224  0.00  0.00    +0.000 HD
ATOM     31  H   UNL     1      47.264  -1.043   7.240  0.00  0.00    +0.000 HD
ENDBRANCH  23  27
ENDBRANCH  18  19
ENDBRANCH  17  18
ENDBRANCH   5  17
TORSDOF 6
ENDMDL
MODEL 2
REMARK VINA RESULT:    -7.818      2.793      3.693
REMARK INTER + INTRA:         -11.931
REMARK INTER:                 -10.753
REMARK INTRA:                  -1.178
REMARK UNBOUND:                -1.371
REMARK  Name = 
REMARK  7 active torsions:
REMARK  status: ('A' for Active; 'I' for Inactive)
REMARK    1  A    between atoms: C_1  and  C_2
REMARK    2  A    between atoms: C_2  and  C_3
REMARK    3  A    between atoms: C_7  and  C_8
REMARK    4  A    between atoms: C_8  and  C_9
REMARK    5  A    between atoms: C_9  and  N_10
REMARK    6  A    between atoms: C_14  and  C_15
REMARK    7  A    between atoms: C_23  and  C_24
REMARK                            x       y       z     vdW  Elec       q    Type
REMARK                         _______ _______ _______ _____ _____    ______ ____
ROOT
ATOM      1  C   UNL     1      46.896   7.691  12.824  0.00  0.00    +0.000 A 
ATOM      2  C   UNL     1      46.525   8.912  12.247  0.00  0.00    +0.000 A 
ATOM      3  C   UNL     1      45.271   9.074  11.651  0.00  0.00    +0.000 A 
ATOM      4  C   UNL     1      44.369   8.011  11.600  0.00  0.00    +0.000 A 
ATOM      5  C   UNL     1      44.703   6.771  12.153  0.00  0.00    +0.000 A 
ATOM      6  C   UNL     1      45.956   6.644  12.780  0.00  0.00    +0.000 A 
ENDROOT
BRANCH   1   8
ATOM      7  C   UNL     1      49.380   7.380  12.380  0.00  0.00    +0.000 C 
ATOM      8  C   UNL     1      48.276   7.434  13.449  0.00  0.00    +0.000 C 
ATOM      9  C   UNL     1      48.593   8.490  14.501  0.00  0.00    +0.000 C 
ATOM     10  C   UNL     1      48.725   7.928  15.713  0.00  0.00    +0.000 C 
ATOM     11  C   UNL     1      48.552   6.496  15.599  0.00  0.00    +0.000 C 
ATOM     12  C   UNL     1      48.339   6.184  14.307  0.00  0.00    +0.000 C 
BRANCH  11  13
ATOM     13  C   UNL     1      48.593   5.565  16.764  0.00  0.00    +0.000 C 
ATOM     14  F   UNL     1      47.983   6.074  17.865  0.00  0.00    +0.000 F 
ATOM     15  F   UNL     1      47.971   4.390  16.481  0.00  0.00    +0.000 F 
ATOM     16  F   UNL     1      49.864   5.259  17.122  0.00  0.00    +0.000 F 
ENDBRANCH  11  13
ENDBRANCH   1   8
BRANCH   5  17
ATOM     17  C   UNL     1      43.731   5.609  12.020  0.00  0.00    +0.000 C 
BRANCH  17  18
ATOM     18  C   UNL     1      43.616   5.067  10.592  0.00  0.00    +0.000 C 
BRANCH  18  19
ATOM     19  N   UNL     1      43.941   3.643  10.479  0.00  0.00    +0.000 N 
ATOM     20  C   UNL     1      44.799   3.417   9.371  0.00  0.00    +0.000 A 
ATOM     21  C   UNL     1      45.202   2.118   9.090  0.00  0.00    +0.000 A 
ATOM     22  C   UNL     1      46.061   1.883   8.016  0.00  0.00    +0.000 A 
ATOM     23  C   UNL     1      46.479   2.967   7.263  0.00  0.00    +0.000 A 
ATOM     24  N   UNL     1      46.089   4.227   7.544  0.00  0.00    +0.000 NA
ATOM     25  N   UNL     1      45.255   4.442   8.611  0.00  0.00    +0.000 NA
ATOM     26  H   UNL     1      43.111   3.065  10.366  0.00  0.00    +0.000 HD
BRANCH  23  27
ATOM     27  C   UNL     1      47.382   2.795   6.092  0.00  0.00    +0.000 C 
ATOM     28  N   UNL     1      48.697   2.528   6.377  0.00  0.00    +0.000 N 
ATOM     29  O   UNL     1      46.983   2.891   4.942  0.00  0.00    +0.000 OA
ATOM     30  H   UNL     1      49.019   2.449   7.334  0.00  0.00    +0.000 HD
ATOM     31  H   UNL     1      49.350   2.401   5.615  0.00  0.00    +0.000 HD
ENDBRANCH  23  27
ENDBRANCH  18  19
ENDBRANCH  17  18
ENDBRANCH   5  17
TORSDOF 6
ENDMDL
MODEL 3
REMARK VINA RESULT:    -7.734      5.467      7.991
REMARK INTER + INTRA:         -11.818
REMARK INTER:                 -10.849
REMARK INTRA:                  -0.969
REMARK UNBOUND:                -1.371
REMARK  Name = 
REMARK  7 active torsions:
REMARK  status: ('A' for Active; 'I' for Inactive)
REMARK    1  A    between atoms: C_1  and  C_2
REMARK    2  A    between atoms: C_2  and  C_3
REMARK    3  A    between atoms: C_7  and  C_8
REMARK    4  A    between atoms: C_8  and  C_9
REMARK    5  A    between atoms: C_9  and  N_10
REMARK    6  A    between atoms: C_14  and  C_15
REMARK    7  A    between atoms: C_23  and  C_24
REMARK                            x       y       z     vdW  Elec       q    Type
REMARK                         _______ _______ _______ _____ _____    ______ ____
ROOT
ATOM      1  C   UNL     1      45.362   4.446  10.964  0.00  0.00    +0.000 A 
ATOM      2  C   UNL     1      45.784   5.721  10.564  0.00  0.00    +0.000 A 
ATOM      3  C   UNL     1      46.291   6.634  11.494  0.00  0.00    +0.000 A 
ATOM      4  C   UNL     1      46.366   6.299  12.846  0.00  0.00    +0.000 A 
ATOM      5  C   UNL     1      45.945   5.042  13.289  0.00  0.00    +0.000 A 
ATOM      6  C   UNL     1      45.473   4.127  12.330  0.00  0.00    +0.000 A 
ENDROOT
BRANCH   1   8
ATOM      7  C   UNL     1      43.588   2.650  10.656  0.00  0.00    +0.000 C 
ATOM      8  C   UNL     1      44.749   3.417  10.001  0.00  0.00    +0.000 C 
ATOM      9  C   UNL     1      44.293   4.093   8.713  0.00  0.00    +0.000 C 
ATOM     10  C   UNL     1      44.977   3.617   7.660  0.00  0.00    +0.000 C 
ATOM     11  C   UNL     1      45.897   2.594   8.108  0.00  0.00    +0.000 C 
ATOM     12  C   UNL     1      45.753   2.430   9.436  0.00  0.00    +0.000 C 
BRANCH  11  13
ATOM     13  C   UNL     1      46.845   1.884   7.200  0.00  0.00    +0.000 C 
ATOM     14  F   UNL     1      46.923   0.554   7.457  0.00  0.00    +0.000 F 
ATOM     15  F   UNL     1      46.473   2.010   5.899  0.00  0.00    +0.000 F 
ATOM     16  F   UNL     1      48.103   2.379   7.298  0.00  0.00    +0.000 F 
ENDBRANCH  11  13
ENDBRANCH   1   8
BRANCH   5  17
ATOM     17  C   UNL     1      45.970   4.729  14.778  0.00  0.00    +0.000 C 
BRANCH  17  18
ATOM     18  C   UNL     1      47.150   3.848  15.199  0.00  0.00    +0.000 C 
BRANCH  18  19
ATOM     19  N   UNL     1      47.999   4.458  16.224  0.00  0.00    +0.000 N 
ATOM     20  C   UNL     1      49.044   3.572  16.595  0.00  0.00    +0.000 A 
ATOM     21  C   UNL     1      49.945   3.970  17.573  0.00  0.00    +0.000 A 
ATOM     22  C   UNL     1      50.988   3.117  17.935  0.00  0.00    +0.000 A 
ATOM     23  C   UNL     1      51.082   1.893  17.297  0.00  0.00    +0.000 A 
ATOM     24  N   UNL     1      50.208   1.513  16.342  0.00  0.00    +0.000 NA
ATOM     25  N   UNL     1      49.196   2.369  15.990  0.00  0.00    +0.000 NA
ATOM     26  H   UNL     1      47.477   4.708  17.061  0.00  0.00    +0.000 HD
BRANCH  23  27
ATOM     27  C   UNL     1      52.158   0.922  17.638  0.00  0.00    +0.000 C 
ATOM     28  N   UNL     1      51.772  -0.177  18.364  0.00  0.00    +0.000 N 
ATOM     29  O   UNL     1      53.319   1.090  17.300  0.00  0.00    +0.000 OA
ATOM     30  H   UNL     1      50.806  -0.309  18.639  0.00  0.00    +0.000 HD
ATOM     31  H   UNL     1      52.467  -0.867  18.619  0.00  0.00    +0.000 HD
ENDBRANCH  23  27
ENDBRANCH  18  19
ENDBRANCH  17  18
ENDBRANCH   5  17
TORSDOF 6
ENDMDL
MODEL 4
REMARK VINA RESULT:    -7.620      4.819      7.648
REMARK INTER + INTRA:         -11.663
REMARK INTER:                 -10.195
REMARK INTRA:                  -1.468
REMARK UNBOUND:                -1.371
REMARK  Name = 
REMARK  7 active torsions:
REMARK  status: ('A' for Active; 'I' for Inactive)
REMARK    1  A    between atoms: C_1  and  C_2
REMARK    2  A    between atoms: C_2  and  C_3
REMARK    3  A    between atoms: C_7  and  C_8
REMARK    4  A    between atoms: C_8  and  C_9
REMARK    5  A    between atoms: C_9  and  N_10
REMARK    6  A    between atoms: C_14  and  C_15
REMARK    7  A    between atoms: C_23  and  C_24
REMARK                            x       y       z     vdW  Elec       q    Type
REMARK                         _______ _______ _______ _____ _____    ______ ____
ROOT
ATOM      1  C   UNL     1      45.541   6.985  12.002  0.00  0.00    +0.000 A 
ATOM      2  C   UNL     1      44.684   8.066  11.758  0.00  0.00    +0.000 A 
ATOM      3  C   UNL     1      45.166   9.378  11.752  0.00  0.00    +0.000 A 
ATOM      4  C   UNL     1      46.512   9.639  12.012  0.00  0.00    +0.000 A 
ATOM      5  C   UNL     1      47.399   8.590  12.273  0.00  0.00    +0.000 A 
ATOM      6  C   UNL     1      46.898   7.276  12.237  0.00  0.00    +0.000 A 
ENDROOT
BRANCH   1   8
ATOM      7  C   UNL     1      45.383   4.891  13.437  0.00  0.00    +0.000 C 
ATOM      8  C   UNL     1      45.064   5.525  12.073  0.00  0.00    +0.000 C 
ATOM      9  C   UNL     1      43.573   5.434  11.768  0.00  0.00    +0.000 C 
ATOM     10  C   UNL     1      43.360   4.707  10.659  0.00  0.00    +0.000 C 
ATOM     11  C   UNL     1      44.626   4.229  10.148  0.00  0.00    +0.000 C 
ATOM     12  C   UNL     1      45.612   4.647  10.964  0.00  0.00    +0.000 C 
BRANCH  11  13
ATOM     13  C   UNL     1      44.759   3.424   8.898  0.00  0.00    +0.000 C 
ATOM     14  F   UNL     1      44.262   4.060   7.808  0.00  0.00    +0.000 F 
ATOM     15  F   UNL     1      46.061   3.143   8.627  0.00  0.00    +0.000 F 
ATOM     16  F   UNL     1      44.113   2.236   8.992  0.00  0.00    +0.000 F 
ENDBRANCH  11  13
ENDBRANCH   1   8
BRANCH   5  17
ATOM     17  C   UNL     1      48.844   8.907  12.625  0.00  0.00    +0.000 C 
BRANCH  17  18
ATOM     18  C   UNL     1      49.528   7.813  13.452  0.00  0.00    +0.000 C 
BRANCH  18  19
ATOM     19  N   UNL     1      49.543   8.090  14.890  0.00  0.00    +0.000 N 
ATOM     20  C   UNL     1      49.035   6.979  15.614  0.00  0.00    +0.000 A 
ATOM     21  C   UNL     1      48.953   7.062  16.998  0.00  0.00    +0.000 A 
ATOM     22  C   UNL     1      48.474   5.972  17.724  0.00  0.00    +0.000 A 
ATOM     23  C   UNL     1      48.094   4.838  17.027  0.00  0.00    +0.000 A 
ATOM     24  N   UNL     1      48.181   4.760  15.683  0.00  0.00    +0.000 NA
ATOM     25  N   UNL     1      48.666   5.836  14.986  0.00  0.00    +0.000 NA
ATOM     26  H   UNL     1      48.991   8.910  15.131  0.00  0.00    +0.000 HD
BRANCH  23  27
ATOM     27  C   UNL     1      47.558   3.640  17.730  0.00  0.00    +0.000 C 
ATOM     28  N   UNL     1      48.266   3.214  18.825  0.00  0.00    +0.000 N 
ATOM     29  O   UNL     1      46.550   3.061  17.355  0.00  0.00    +0.000 OA
ATOM     30  H   UNL     1      49.101   3.701  19.129  0.00  0.00    +0.000 HD
ATOM     31  H   UNL     1      47.941   2.405  19.337  0.00  0.00    +0.000 HD
ENDBRANCH  23  27
ENDBRANCH  18  19
ENDBRANCH  17  18
ENDBRANCH   5  17
TORSDOF 6
ENDMDL
MODEL 5
REMARK VINA RESULT:    -7.056      5.550      7.830
REMARK INTER + INTRA:         -10.901
REMARK INTER:                  -9.382
REMARK INTRA:                  -1.519
REMARK UNBOUND:                -1.371
REMARK  Name = 
REMARK  7 active torsions:
REMARK  status: ('A' for Active; 'I' for Inactive)
REMARK    1  A    between atoms: C_1  and  C_2
REMARK    2  A    between atoms: C_2  and  C_3
REMARK    3  A    between atoms: C_7  and  C_8
REMARK    4  A    between atoms: C_8  and  C_9
REMARK    5  A    between atoms: C_9  and  N_10
REMARK    6  A    between atoms: C_14  and  C_15
REMARK    7  A    between atoms: C_23  and  C_24
REMARK                            x       y       z     vdW  Elec       q    Type
REMARK                         _______ _______ _______ _____ _____    ______ ____
ROOT
ATOM      1  C   UNL     1      47.087   7.380  12.664  0.00  0.00    +0.000 A 
ATOM      2  C   UNL     1      48.303   7.027  12.063  0.00  0.00    +0.000 A 
ATOM      3  C   UNL     1      49.521   7.298  12.693  0.00  0.00    +0.000 A 
ATOM      4  C   UNL     1      49.551   7.948  13.928  0.00  0.00    +0.000 A 
ATOM      5  C   UNL     1      48.361   8.328  14.557  0.00  0.00    +0.000 A 
ATOM      6  C   UNL     1      47.147   8.012  13.921  0.00  0.00    +0.000 A 
ENDROOT
BRANCH   1   8
ATOM      7  C   UNL     1      44.972   8.483  11.783  0.00  0.00    +0.000 C 
ATOM      8  C   UNL     1      45.719   7.156  12.002  0.00  0.00    +0.000 C 
ATOM      9  C   UNL     1      45.877   6.401  10.688  0.00  0.00    +0.000 C 
ATOM     10  C   UNL     1      45.251   5.214  10.745  0.00  0.00    +0.000 C 
ATOM     11  C   UNL     1      44.608   5.072  12.033  0.00  0.00    +0.000 C 
ATOM     12  C   UNL     1      44.824   6.189  12.753  0.00  0.00    +0.000 C 
BRANCH  11  13
ATOM     13  C   UNL     1      43.859   3.851  12.450  0.00  0.00    +0.000 C 
ATOM     14  F   UNL     1      44.669   2.783  12.662  0.00  0.00    +0.000 F 
ATOM     15  F   UNL     1      43.177   4.060  13.607  0.00  0.00    +0.000 F 
ATOM     16  F   UNL     1      42.947   3.477  11.520  0.00  0.00    +0.000 F 
ENDBRANCH  11  13
ENDBRANCH   1   8
BRANCH   5  17
ATOM     17  C   UNL     1      48.424   9.100  15.866  0.00  0.00    +0.000 C 
BRANCH  17  18
ATOM     18  C   UNL     1      48.877   8.249  17.058  0.00  0.00    +0.000 C 
BRANCH  18  19
ATOM     19  N   UNL     1      47.967   7.143  17.365  0.00  0.00    +0.000 N 
ATOM     20  C   UNL     1      48.667   5.908  17.354  0.00  0.00    +0.000 A 
ATOM     21  C   UNL     1      47.965   4.737  17.605  0.00  0.00    +0.000 A 
ATOM     22  C   UNL     1      48.643   3.518  17.616  0.00  0.00    +0.000 A 
ATOM     23  C   UNL     1      50.004   3.525  17.370  0.00  0.00    +0.000 A 
ATOM     24  N   UNL     1      50.684   4.666  17.132  0.00  0.00    +0.000 NA
ATOM     25  N   UNL     1      50.004   5.857  17.138  0.00  0.00    +0.000 NA
ATOM     26  H   UNL     1      47.196   7.082  16.705  0.00  0.00    +0.000 HD
BRANCH  23  27
ATOM     27  C   UNL     1      50.795   2.263  17.348  0.00  0.00    +0.000 C 
ATOM     28  N   UNL     1      51.931   2.249  18.116  0.00  0.00    +0.000 N 
ATOM     29  O   UNL     1      50.459   1.295  16.683  0.00  0.00    +0.000 OA
ATOM     30  H   UNL     1      52.202   3.056  18.665  0.00  0.00    +0.000 HD
ATOM     31  H   UNL     1      52.501   1.413  18.136  0.00  0.00    +0.000 HD
ENDBRANCH  23  27
ENDBRANCH  18  19
ENDBRANCH  17  18
ENDBRANCH   5  17
TORSDOF 6
ENDMDL
MODEL 6
REMARK VINA RESULT:    -6.749      5.450      7.610
REMARK INTER + INTRA:         -10.487
REMARK INTER:                  -9.035
REMARK INTRA:                  -1.452
REMARK UNBOUND:                -1.371
REMARK  Name = 
REMARK  7 active torsions:
REMARK  status: ('A' for Active; 'I' for Inactive)
REMARK    1  A    between atoms: C_1  and  C_2
REMARK    2  A    between atoms: C_2  and  C_3
REMARK    3  A    between atoms: C_7  and  C_8
REMARK    4  A    between atoms: C_8  and  C_9
REMARK    5  A    between atoms: C_9  and  N_10
REMARK    6  A    between atoms: C_14  and  C_15
REMARK    7  A    between atoms: C_23  and  C_24
REMARK                            x       y       z     vdW  Elec       q    Type
REMARK                         _______ _______ _______ _____ _____    ______ ____
ROOT
ATOM      1  C   UNL     1      48.728   8.802  13.633  0.00  0.00    +0.000 A 
ATOM      2  C   UNL     1      49.324  10.032  13.325  0.00  0.00    +0.000 A 
ATOM      3  C   UNL     1      49.509  11.008  14.308  0.00  0.00    +0.000 A 
ATOM      4  C   UNL     1      49.081  10.784  15.617  0.00  0.00    +0.000 A 
ATOM      5  C   UNL     1      48.470   9.576  15.966  0.00  0.00    +0.000 A 
ATOM      6  C   UNL     1      48.329   8.595  14.967  0.00  0.00    +0.000 A 
ENDROOT
BRANCH   1   8
ATOM      7  C   UNL     1      49.457   7.766  11.428  0.00  0.00    +0.000 C 
ATOM      8  C   UNL     1      48.450   7.709  12.589  0.00  0.00    +0.000 C 
ATOM      9  C   UNL     1      48.453   6.332  13.242  0.00  0.00    +0.000 C 
ATOM     10  C   UNL     1      47.247   5.752  13.131  0.00  0.00    +0.000 C 
ATOM     11  C   UNL     1      46.360   6.627  12.396  0.00  0.00    +0.000 C 
ATOM     12  C   UNL     1      47.037   7.733  12.037  0.00  0.00    +0.000 C 
BRANCH  11  13
ATOM     13  C   UNL     1      44.926   6.310  12.129  0.00  0.00    +0.000 C 
ATOM     14  F   UNL     1      44.764   5.171  11.411  0.00  0.00    +0.000 F 
ATOM     15  F   UNL     1      44.232   6.146  13.286  0.00  0.00    +0.000 F 
ATOM     16  F   UNL     1      44.311   7.303  11.440  0.00  0.00    +0.000 F 
ENDBRANCH  11  13
ENDBRANCH   1   8
BRANCH   5  17
ATOM     17  C   UNL     1      47.947   9.386  17.381  0.00  0.00    +0.000 C 
BRANCH  17  18
ATOM     18  C   UNL     1      48.556   8.180  18.103  0.00  0.00    +0.000 C 
BRANCH  18  19
ATOM     19  N   UNL     1      47.600   7.096  18.341  0.00  0.00    +0.000 N 
ATOM     20  C   UNL     1      48.167   5.846  17.977  0.00  0.00    +0.000 A 
ATOM     21  C   UNL     1      47.399   4.697  18.113  0.00  0.00    +0.000 A 
ATOM     22  C   UNL     1      47.950   3.460  17.777  0.00  0.00    +0.000 A 
ATOM     23  C   UNL     1      49.253   3.428  17.313  0.00  0.00    +0.000 A 
ATOM     24  N   UNL     1      49.997   4.547  17.188  0.00  0.00    +0.000 NA
ATOM     25  N   UNL     1      49.445   5.753  17.535  0.00  0.00    +0.000 NA
ATOM     26  H   UNL     1      46.736   7.222  17.819  0.00  0.00    +0.000 HD
BRANCH  23  27
ATOM     27  C   UNL     1      49.904   2.149  16.919  0.00  0.00    +0.000 C 
ATOM     28  N   UNL     1      50.865   1.672  17.773  0.00  0.00    +0.000 N 
ATOM     29  O   UNL     1      49.609   1.556  15.893  0.00  0.00    +0.000 OA
ATOM     30  H   UNL     1      51.104   2.170  18.623  0.00  0.00    +0.000 HD
ATOM     31  H   UNL     1      51.336   0.804  17.551  0.00  0.00    +0.000 HD
ENDBRANCH  23  27
ENDBRANCH  18  19
ENDBRANCH  17  18
ENDBRANCH   5  17
TORSDOF 6
ENDMDL
MODEL 7
REMARK VINA RESULT:    -6.747      4.503      6.753
REMARK INTER + INTRA:         -10.484
REMARK INTER:                  -8.835
REMARK INTRA:                  -1.649
REMARK UNBOUND:                -1.371
REMARK  Name = 
REMARK  7 active torsions:
REMARK  status: ('A' for Active; 'I' for Inactive)
REMARK    1  A    between atoms: C_1  and  C_2
REMARK    2  A    between atoms: C_2  and  C_3
REMARK    3  A    between atoms: C_7  and  C_8
REMARK    4  A    between atoms: C_8  and  C_9
REMARK    5  A    between atoms: C_9  and  N_10
REMARK    6  A    between atoms: C_14  and  C_15
REMARK    7  A    between atoms: C_23  and  C_24
REMARK                            x       y       z     vdW  Elec       q    Type
REMARK                         _______ _______ _______ _____ _____    ______ ____
ROOT
ATOM      1  C   UNL     1      48.991   7.695  17.037  0.00  0.00    +0.000 A 
ATOM      2  C   UNL     1      48.487   8.963  17.355  0.00  0.00    +0.000 A 
ATOM      3  C   UNL     1      48.486   9.994  16.410  0.00  0.00    +0.000 A 
ATOM      4  C   UNL     1      49.011   9.785  15.135  0.00  0.00    +0.000 A 
ATOM      5  C   UNL     1      49.535   8.539  14.780  0.00  0.00    +0.000 A 
ATOM      6  C   UNL     1      49.491   7.507  15.735  0.00  0.00    +0.000 A 
ENDROOT
BRANCH   1   8
ATOM      7  C   UNL     1      50.184   6.757  19.078  0.00  0.00    +0.000 C 
ATOM      8  C   UNL     1      49.067   6.537  18.044  0.00  0.00    +0.000 C 
ATOM      9  C   UNL     1      47.722   6.338  18.734  0.00  0.00    +0.000 C 
ATOM     10  C   UNL     1      47.219   5.126  18.453  0.00  0.00    +0.000 C 
ATOM     11  C   UNL     1      48.149   4.404  17.611  0.00  0.00    +0.000 C 
ATOM     12  C   UNL     1      49.233   5.174  17.400  0.00  0.00    +0.000 C 
BRANCH  11  13
ATOM     13  C   UNL     1      47.884   3.037  17.074  0.00  0.00    +0.000 C 
ATOM     14  F   UNL     1      46.831   2.430  17.677  0.00  0.00    +0.000 F 
ATOM     15  F   UNL     1      47.606   3.073  15.744  0.00  0.00    +0.000 F 
ATOM     16  F   UNL     1      48.954   2.219  17.229  0.00  0.00    +0.000 F 
ENDBRANCH  11  13
ENDBRANCH   1   8
BRANCH   5  17
ATOM     17  C   UNL     1      50.167   8.359  13.408  0.00  0.00    +0.000 C 
BRANCH  17  18
ATOM     18  C   UNL     1      49.533   7.234  12.584  0.00  0.00    +0.000 C 
BRANCH  18  19
ATOM     19  N   UNL     1      48.404   7.675  11.762  0.00  0.00    +0.000 N 
ATOM     20  C   UNL     1      47.246   6.908  12.057  0.00  0.00    +0.000 A 
ATOM     21  C   UNL     1      46.074   7.168  11.360  0.00  0.00    +0.000 A 
ATOM     22  C   UNL     1      44.924   6.435  11.653  0.00  0.00    +0.000 A 
ATOM     23  C   UNL     1      45.000   5.464  12.635  0.00  0.00    +0.000 A 
ATOM     24  N   UNL     1      46.140   5.218  13.314  0.00  0.00    +0.000 NA
ATOM     25  N   UNL     1      47.258   5.957  13.023  0.00  0.00    +0.000 NA
ATOM     26  H   UNL     1      48.597   7.597  10.766  0.00  0.00    +0.000 HD
BRANCH  23  27
ATOM     27  C   UNL     1      43.820   4.629  12.993  0.00  0.00    +0.000 C 
ATOM     28  N   UNL     1      42.646   5.303  13.210  0.00  0.00    +0.000 N 
ATOM     29  O   UNL     1      43.888   3.414  13.094  0.00  0.00    +0.000 OA
ATOM     30  H   UNL     1      42.598   6.312  13.123  0.00  0.00    +0.000 HD
ATOM     31  H   UNL     1      41.815   4.780  13.454  0.00  0.00    +0.000 HD
ENDBRANCH  23  27
ENDBRANCH  18  19
ENDBRANCH  17  18
ENDBRANCH   5  17
TORSDOF 6
ENDMDL
MODEL 8
REMARK VINA RESULT:    -6.721      2.529      3.422
REMARK INTER + INTRA:         -10.449
REMARK INTER:                  -9.329
REMARK INTRA:                  -1.121
REMARK UNBOUND:                -1.371
REMARK  Name = 
REMARK  7 active torsions:
REMARK  status: ('A' for Active; 'I' for Inactive)
REMARK    1  A    between atoms: C_1  and  C_2
REMARK    2  A    between atoms: C_2  and  C_3
REMARK    3  A    between atoms: C_7  and  C_8
REMARK    4  A    between atoms: C_8  and  C_9
REMARK    5  A    between atoms: C_9  and  N_10
REMARK    6  A    between atoms: C_14  and  C_15
REMARK    7  A    between atoms: C_23  and  C_24
REMARK                            x       y       z     vdW  Elec       q    Type
REMARK                         _______ _______ _______ _____ _____    ______ ____
ROOT
ATOM      1  C   UNL     1      47.514   8.418  12.612  0.00  0.00    +0.000 A 
ATOM      2  C   UNL     1      46.897   9.588  12.151  0.00  0.00    +0.000 A 
ATOM      3  C   UNL     1      45.538   9.602  11.822  0.00  0.00    +0.000 A 
ATOM      4  C   UNL     1      44.772   8.441  11.925  0.00  0.00    +0.000 A 
ATOM      5  C   UNL     1      45.351   7.248  12.369  0.00  0.00    +0.000 A 
ATOM      6  C   UNL     1      46.711   7.268  12.730  0.00  0.00    +0.000 A 
ENDROOT
BRANCH   1   8
ATOM      7  C   UNL     1      49.762   7.449  11.923  0.00  0.00    +0.000 C 
ATOM      8  C   UNL     1      49.012   8.324  12.942  0.00  0.00    +0.000 C 
ATOM      9  C   UNL     1      49.631   9.714  13.021  0.00  0.00    +0.000 C 
ATOM     10  C   UNL     1      50.098   9.955  14.257  0.00  0.00    +0.000 C 
ATOM     11  C   UNL     1      49.881   8.791  15.088  0.00  0.00    +0.000 C 
ATOM     12  C   UNL     1      49.301   7.829  14.346  0.00  0.00    +0.000 C 
BRANCH  11  13
ATOM     13  C   UNL     1      50.242   8.732  16.535  0.00  0.00    +0.000 C 
ATOM     14  F   UNL     1      49.170   8.893  17.351  0.00  0.00    +0.000 F 
ATOM     15  F   UNL     1      50.802   7.536  16.857  0.00  0.00    +0.000 F 
ATOM     16  F   UNL     1      51.141   9.689  16.869  0.00  0.00    +0.000 F 
ENDBRANCH  11  13
ENDBRANCH   1   8
BRANCH   5  17
ATOM     17  C   UNL     1      44.513   5.979  12.403  0.00  0.00    +0.000 C 
BRANCH  17  18
ATOM     18  C   UNL     1      44.024   5.531  11.022  0.00  0.00    +0.000 C 
BRANCH  18  19
ATOM     19  N   UNL     1      43.992   4.076  10.857  0.00  0.00    +0.000 N 
ATOM     20  C   UNL     1      44.818   3.681   9.773  0.00  0.00    +0.000 A 
ATOM     21  C   UNL     1      44.901   2.334   9.449  0.00  0.00    +0.000 A 
ATOM     22  C   UNL     1      45.724   1.930   8.397  0.00  0.00    +0.000 A 
ATOM     23  C   UNL     1      46.430   2.901   7.709  0.00  0.00    +0.000 A 
ATOM     24  N   UNL     1      46.351   4.208   8.032  0.00  0.00    +0.000 NA
ATOM     25  N   UNL     1      45.548   4.587   9.076  0.00  0.00    +0.000 NA
ATOM     26  H   UNL     1      43.051   3.726  10.690  0.00  0.00    +0.000 HD
BRANCH  23  27
ATOM     27  C   UNL     1      47.316   2.550   6.565  0.00  0.00    +0.000 C 
ATOM     28  N   UNL     1      47.228   3.360   5.462  0.00  0.00    +0.000 N 
ATOM     29  O   UNL     1      48.076   1.594   6.598  0.00  0.00    +0.000 OA
ATOM     30  H   UNL     1      46.596   4.152   5.443  0.00  0.00    +0.000 HD
ATOM     31  H   UNL     1      47.811   3.164   4.659  0.00  0.00    +0.000 HD
ENDBRANCH  23  27
ENDBRANCH  18  19
ENDBRANCH  17  18
ENDBRANCH   5  17
TORSDOF 6
ENDMDL
MODEL 9
REMARK VINA RESULT:    -6.638      5.848      7.216
REMARK INTER + INTRA:         -10.337
REMARK INTER:                  -9.212
REMARK INTRA:                  -1.125
REMARK UNBOUND:                -1.371
REMARK  Name = 
REMARK  7 active torsions:
REMARK  status: ('A' for Active; 'I' for Inactive)
REMARK    1  A    between atoms: C_1  and  C_2
REMARK    2  A    between atoms: C_2  and  C_3
REMARK    3  A    between atoms: C_7  and  C_8
REMARK    4  A    between atoms: C_8  and  C_9
REMARK    5  A    between atoms: C_9  and  N_10
REMARK    6  A    between atoms: C_14  and  C_15
REMARK    7  A    between atoms: C_23  and  C_24
REMARK                            x       y       z     vdW  Elec       q    Type
REMARK                         _______ _______ _______ _____ _____    ______ ____
ROOT
ATOM      1  C   UNL     1      50.473   5.203  18.762  0.00  0.00    +0.000 A 
ATOM      2  C   UNL     1      49.970   6.138  19.675  0.00  0.00    +0.000 A 
ATOM      3  C   UNL     1      48.592   6.310  19.842  0.00  0.00    +0.000 A 
ATOM      4  C   UNL     1      47.689   5.567  19.081  0.00  0.00    +0.000 A 
ATOM      5  C   UNL     1      48.149   4.632  18.150  0.00  0.00    +0.000 A 
ATOM      6  C   UNL     1      49.538   4.450  18.027  0.00  0.00    +0.000 A 
ENDROOT
BRANCH   1   8
ATOM      7  C   UNL     1      52.589   6.215  17.778  0.00  0.00    +0.000 C 
ATOM      8  C   UNL     1      51.974   5.002  18.496  0.00  0.00    +0.000 C 
ATOM      9  C   UNL     1      52.714   4.709  19.796  0.00  0.00    +0.000 C 
ATOM     10  C   UNL     1      53.266   3.486  19.762  0.00  0.00    +0.000 C 
ATOM     11  C   UNL     1      52.995   2.872  18.480  0.00  0.00    +0.000 C 
ATOM     12  C   UNL     1      52.295   3.737  17.722  0.00  0.00    +0.000 C 
BRANCH  11  13
ATOM     13  C   UNL     1      53.428   1.490  18.120  0.00  0.00    +0.000 C 
ATOM     14  F   UNL     1      54.286   0.956  19.025  0.00  0.00    +0.000 F 
ATOM     15  F   UNL     1      52.366   0.645  18.040  0.00  0.00    +0.000 F 
ATOM     16  F   UNL     1      54.049   1.454  16.916  0.00  0.00    +0.000 F 
ENDBRANCH  11  13
ENDBRANCH   1   8
BRANCH   5  17
ATOM     17  C   UNL     1      47.145   3.888  17.283  0.00  0.00    +0.000 C 
BRANCH  17  18
ATOM     18  C   UNL     1      47.518   3.861  15.797  0.00  0.00    +0.000 C 
BRANCH  18  19
ATOM     19  N   UNL     1      47.150   5.084  15.080  0.00  0.00    +0.000 N 
ATOM     20  C   UNL     1      46.416   4.769  13.906  0.00  0.00    +0.000 A 
ATOM     21  C   UNL     1      45.994   5.802  13.081  0.00  0.00    +0.000 A 
ATOM     22  C   UNL     1      45.256   5.509  11.934  0.00  0.00    +0.000 A 
ATOM     23  C   UNL     1      44.974   4.182  11.661  0.00  0.00    +0.000 A 
ATOM     24  N   UNL     1      45.381   3.181  12.469  0.00  0.00    +0.000 NA
ATOM     25  N   UNL     1      46.094   3.488  13.599  0.00  0.00    +0.000 NA
ATOM     26  H   UNL     1      47.962   5.636  14.813  0.00  0.00    +0.000 HD
BRANCH  23  27
ATOM     27  C   UNL     1      44.205   3.787  10.448  0.00  0.00    +0.000 C 
ATOM     28  N   UNL     1      43.901   4.796   9.571  0.00  0.00    +0.000 N 
ATOM     29  O   UNL     1      43.858   2.634  10.243  0.00  0.00    +0.000 OA
ATOM     30  H   UNL     1      44.193   5.750   9.748  0.00  0.00    +0.000 HD
ATOM     31  H   UNL     1      43.381   4.578   8.730  0.00  0.00    +0.000 HD
ENDBRANCH  23  27
ENDBRANCH  18  19
ENDBRANCH  17  18
ENDBRANCH   5  17
TORSDOF 6
ENDMDL
