MODEL 1
REMARK VINA RESULT:    -7.675      0.000      0.000
REMARK INTER + INTRA:          -9.847
REMARK INTER:                  -9.470
REMARK INTRA:                  -0.377
REMARK UNBOUND:                -0.377
REMARK  Name = 
REMARK  6 active torsions:
REMARK  status: ('A' for Active; 'I' for Inactive)
REMARK    1  A    between atoms: C_1  and  N_2
REMARK    2  A    between atoms: C_3  and  C_5
REMARK    3  A    between atoms: C_8  and  N_9
REMARK    4  A    between atoms: N_9  and  C_10
REMARK    5  A    between atoms: C_10  and  C_11
REMARK    6  A    between atoms: C_17  and  C_18
REMARK                            x       y       z     vdW  Elec       q    Type
REMARK                         _______ _______ _______ _____ _____    ______ ____
ROOT
ATOM      1  C   UNL     1      46.718   4.302  13.880  0.00  0.00    +0.000 A 
ATOM      2  C   UNL     1      45.909   3.381  13.205  0.00  0.00    +0.000 A 
ATOM      3  C   UNL     1      45.312   3.716  11.977  0.00  0.00    +0.000 A 
ATOM      4  C   UNL     1      45.395   5.014  11.444  0.00  0.00    +0.000 A 
ATOM      5  C   UNL     1      46.173   5.961  12.148  0.00  0.00    +0.000 A 
ATOM      6  C   UNL     1      46.292   7.407  11.725  0.00  0.00    +0.000 C 
ATOM      7  C   UNL     1      46.839   5.590  13.347  0.00  0.00    +0.000 A 
ENDROOT
BRANCH   1  10
ATOM      8  C   UNL     1      47.748   4.532  17.561  0.00  0.00    +0.000 C 
ATOM      9  N   UNL     1      47.145   4.777  16.264  0.00  0.00    +0.000 N 
ATOM     10  C   UNL     1      47.348   3.931  15.185  0.00  0.00    +0.000 C 
ATOM     11  O   UNL     1      48.063   2.925  15.251  0.00  0.00    +0.000 OA
ATOM     12  H   UNL     1      47.118   5.746  15.988  0.00  0.00    +0.000 HD
ENDBRANCH   1  10
BRANCH   4  13
ATOM     13  N   UNL     1      44.842   5.328  10.195  0.00  0.00    +0.000 N 
ATOM     14  H   UNL     1      44.243   6.145  10.234  0.00  0.00    +0.000 HD
BRANCH  13  15
ATOM     15  C   UNL     1      44.178   4.280   9.409  0.00  0.00    +0.000 C 
BRANCH  15  16
ATOM     16  C   UNL     1      45.193   3.540   8.557  0.00  0.00    +0.000 A 
ATOM     17  C   UNL     1      45.382   2.169   8.725  0.00  0.00    +0.000 A 
ATOM     18  C   UNL     1      46.377   1.531   7.990  0.00  0.00    +0.000 A 
ATOM     19  C   UNL     1      47.133   2.268   7.088  0.00  0.00    +0.000 A 
ATOM     20  C   UNL     1      46.859   3.618   6.952  0.00  0.00    +0.000 A 
ATOM     21  N   UNL     1      45.917   4.269   7.669  0.00  0.00    +0.000 NA
ENDBRANCH  15  16
ENDBRANCH  13  15
ENDBRANCH   4  13
TORSDOF 4
ENDMDL
MODEL 2
REMARK VINA RESULT:    -7.660      1.230      1.501
REMARK INTER + INTRA:          -9.828
REMARK INTER:                  -9.384
REMARK INTRA:                  -0.444
REMARK UNBOUND:                -0.377
REMARK  Name = 
REMARK  6 active torsions:
REMARK  status: ('A' for Active; 'I' for Inactive)
REMARK    1  A    between atoms: C_1  and  N_2
REMARK    2  A    between atoms: C_3  and  C_5
REMARK    3  A    between atoms: C_8  and  N_9
REMARK    4  A    between atoms: N_9  and  C_10
REMARK    5  A    between atoms: C_10  and  C_11
REMARK    6  A    between atoms: C_17  and  C_18
REMARK                            x       y       z     vdW  Elec       q    Type
REMARK                         _______ _______ _______ _____ _____    ______ ____
ROOT
ATOM      1  C   UNL     1      46.548   4.671  13.801  0.00  0.00    +0.000 A 
ATOM      2  C   UNL     1      46.249   3.396  13.307  0.00  0.00    +0.000 A 
ATOM      3  C   UNL     1      45.585   3.241  12.078  0.00  0.00    +0.000 A 
ATOM      4  C   UNL     1      45.085   4.343  11.363  0.00  0.00    +0.000 A 
ATOM      5  C   UNL     1      45.344   5.632  11.883  0.00  0.00    +0.000 A 
ATOM      6  C   UNL     1      44.808   6.896  11.254  0.00  0.00    +0.000 C 
ATOM      7  C   UNL     1      46.086   5.781  13.085  0.00  0.00    +0.000 A 
ENDROOT
BRANCH   1  10
ATOM      8  C   UNL     1      47.277   4.344  17.546  0.00  0.00    +0.000 C 
ATOM      9  N   UNL     1      46.692   4.221  16.223  0.00  0.00    +0.000 N 
ATOM     10  C   UNL     1      47.257   4.821  15.109  0.00  0.00    +0.000 C 
ATOM     11  O   UNL     1      48.284   5.507  15.169  0.00  0.00    +0.000 OA
ATOM     12  H   UNL     1      45.685   4.254  16.203  0.00  0.00    +0.000 HD
ENDBRANCH   1  10
BRANCH   4  13
ATOM     13  N   UNL     1      44.469   4.185  10.113  0.00  0.00    +0.000 N 
ATOM     14  H   UNL     1      43.577   4.666  10.061  0.00  0.00    +0.000 HD
BRANCH  13  15
ATOM     15  C   UNL     1      44.329   2.843   9.536  0.00  0.00    +0.000 C 
BRANCH  15  16
ATOM     16  C   UNL     1      45.419   2.596   8.509  0.00  0.00    +0.000 A 
ATOM     17  C   UNL     1      45.779   3.603   7.614  0.00  0.00    +0.000 A 
ATOM     18  C   UNL     1      46.720   3.322   6.628  0.00  0.00    +0.000 A 
ATOM     19  C   UNL     1      47.298   2.059   6.579  0.00  0.00    +0.000 A 
ATOM     20  C   UNL     1      46.913   1.125   7.526  0.00  0.00    +0.000 A 
ATOM     21  N   UNL     1      45.984   1.361   8.479  0.00  0.00    +0.000 NA
ENDBRANCH  15  16
ENDBRANCH  13  15
ENDBRANCH   4  13
TORSDOF 4
ENDMDL
MODEL 3
REMARK VINA RESULT:    -7.182      2.161      2.804
REMARK INTER + INTRA:          -9.238
REMARK INTER:                  -9.056
REMARK INTRA:                  -0.182
REMARK UNBOUND:                -0.377
REMARK  Name = 
REMARK  6 active torsions:
REMARK  status: ('A' for Active; 'I' for Inactive)
REMARK    1  A    between atoms: C_1  and  N_2
REMARK    2  A    between atoms: C_3  and  C_5
REMARK    3  A    between atoms: C_8  and  N_9
REMARK    4  A    between atoms: N_9  and  C_10
REMARK    5  A    between atoms: C_10  and  C_11
REMARK    6  A    between atoms: C_17  and  C_18
REMARK                            x       y       z     vdW  Elec       q    Type
REMARK                         _______ _______ _______ _____ _____    ______ ____
ROOT
ATOM      1  C   UNL     1      46.416   6.403  12.687  0.00  0.00    +0.000 A 
ATOM      2  C   UNL     1      46.669   6.535  11.318  0.00  0.00    +0.000 A 
ATOM      3  C   UNL     1      45.914   5.813  10.377  0.00  0.00    +0.000 A 
ATOM      4  C   UNL     1      44.974   4.845  10.768  0.00  0.00    +0.000 A 
ATOM      5  C   UNL     1      44.749   4.675  12.154  0.00  0.00    +0.000 A 
ATOM      6  C   UNL     1      43.818   3.625  12.714  0.00  0.00    +0.000 C 
ATOM      7  C   UNL     1      45.459   5.467  13.095  0.00  0.00    +0.000 A 
ENDROOT
BRANCH   1  10
ATOM      8  C   UNL     1      48.739   7.123  15.645  0.00  0.00    +0.000 C 
ATOM      9  N   UNL     1      47.957   6.466  14.614  0.00  0.00    +0.000 N 
ATOM     10  C   UNL     1      47.226   7.179  13.678  0.00  0.00    +0.000 C 
ATOM     11  O   UNL     1      47.180   8.415  13.666  0.00  0.00    +0.000 OA
ATOM     12  H   UNL     1      47.479   5.631  14.915  0.00  0.00    +0.000 HD
ENDBRANCH   1  10
BRANCH   4  13
ATOM     13  N   UNL     1      44.188   4.166   9.826  0.00  0.00    +0.000 N 
ATOM     14  H   UNL     1      43.198   4.347   9.950  0.00  0.00    +0.000 HD
BRANCH  13  15
ATOM     15  C   UNL     1      44.394   2.729   9.609  0.00  0.00    +0.000 C 
BRANCH  15  16
ATOM     16  C   UNL     1      45.437   2.504   8.529  0.00  0.00    +0.000 A 
ATOM     17  C   UNL     1      45.712   3.508   7.602  0.00  0.00    +0.000 A 
ATOM     18  C   UNL     1      46.611   3.245   6.572  0.00  0.00    +0.000 A 
ATOM     19  C   UNL     1      47.232   2.003   6.512  0.00  0.00    +0.000 A 
ATOM     20  C   UNL     1      46.932   1.073   7.493  0.00  0.00    +0.000 A 
ATOM     21  N   UNL     1      46.046   1.291   8.489  0.00  0.00    +0.000 NA
ENDBRANCH  15  16
ENDBRANCH  13  15
ENDBRANCH   4  13
TORSDOF 4
ENDMDL
MODEL 4
REMARK VINA RESULT:    -7.163      2.669      3.973
REMARK INTER + INTRA:          -9.214
REMARK INTER:                  -8.837
REMARK INTRA:                  -0.377
REMARK UNBOUND:                -0.377
REMARK  Name = 
REMARK  6 active torsions:
REMARK  status: ('A' for Active; 'I' for Inactive)
REMARK    1  A    between atoms: C_1  and  N_2
REMARK    2  A    between atoms: C_3  and  C_5
REMARK    3  A    between atoms: C_8  and  N_9
REMARK    4  A    between atoms: N_9  and  C_10
REMARK    5  A    between atoms: C_10  and  C_11
REMARK    6  A    between atoms: C_17  and  C_18
REMARK                            x       y       z     vdW  Elec       q    Type
REMARK                         _______ _______ _______ _____ _____    ______ ____
ROOT
ATOM      1  C   UNL     1      45.037   6.834  12.006  0.00  0.00    +0.000 A 
ATOM      2  C   UNL     1      44.420   6.424  10.819  0.00  0.00    +0.000 A 
ATOM      3  C   UNL     1      44.353   5.062  10.479  0.00  0.00    +0.000 A 
ATOM      4  C   UNL     1      45.004   4.076  11.240  0.00  0.00    +0.000 A 
ATOM      5  C   UNL     1      45.668   4.492  12.417  0.00  0.00    +0.000 A 
ATOM      6  C   UNL     1      46.464   3.550  13.290  0.00  0.00    +0.000 C 
ATOM      7  C   UNL     1      45.662   5.861  12.795  0.00  0.00    +0.000 A 
ENDROOT
BRANCH   1  10
ATOM      8  C   UNL     1      44.364  10.599  11.832  0.00  0.00    +0.000 C 
ATOM      9  N   UNL     1      44.340   9.167  11.602  0.00  0.00    +0.000 N 
ATOM     10  C   UNL     1      45.099   8.287  12.357  0.00  0.00    +0.000 C 
ATOM     11  O   UNL     1      45.853   8.662  13.263  0.00  0.00    +0.000 OA
ATOM     12  H   UNL     1      44.296   8.896  10.633  0.00  0.00    +0.000 HD
ENDBRANCH   1  10
BRANCH   4  13
ATOM     13  N   UNL     1      44.890   2.715  10.925  0.00  0.00    +0.000 N 
ATOM     14  H   UNL     1      45.752   2.208  11.092  0.00  0.00    +0.000 HD
BRANCH  13  15
ATOM     15  C   UNL     1      44.337   2.314   9.626  0.00  0.00    +0.000 C 
BRANCH  15  16
ATOM     16  C   UNL     1      45.441   2.228   8.588  0.00  0.00    +0.000 A 
ATOM     17  C   UNL     1      45.723   3.323   7.773  0.00  0.00    +0.000 A 
ATOM     18  C   UNL     1      46.682   3.190   6.774  0.00  0.00    +0.000 A 
ATOM     19  C   UNL     1      47.355   1.982   6.634  0.00  0.00    +0.000 A 
ATOM     20  C   UNL     1      47.043   0.953   7.506  0.00  0.00    +0.000 A 
ATOM     21  N   UNL     1      46.099   1.045   8.469  0.00  0.00    +0.000 NA
ENDBRANCH  15  16
ENDBRANCH  13  15
ENDBRANCH   4  13
TORSDOF 4
ENDMDL
MODEL 5
REMARK VINA RESULT:    -6.558      2.188      2.907
REMARK INTER + INTRA:          -8.468
REMARK INTER:                  -7.845
REMARK INTRA:                  -0.623
REMARK UNBOUND:                -0.377
REMARK  Name = 
REMARK  6 active torsions:
REMARK  status: ('A' for Active; 'I' for Inactive)
REMARK    1  A    between atoms: C_1  and  N_2
REMARK    2  A    between atoms: C_3  and  C_5
REMARK    3  A    between atoms: C_8  and  N_9
REMARK    4  A    between atoms: N_9  and  C_10
REMARK    5  A    between atoms: C_10  and  C_11
REMARK    6  A    between atoms: C_17  and  C_18
REMARK                            x       y       z     vdW  Elec       q    Type
REMARK                         _______ _______ _______ _____ _____    ______ ____
ROOT
ATOM      1  C   UNL     1      47.161   6.888  13.153  0.00  0.00    +0.000 A 
ATOM      2  C   UNL     1      46.303   7.489  12.226  0.00  0.00    +0.000 A 
ATOM      3  C   UNL     1      45.276   6.749  11.615  0.00  0.00    +0.000 A 
ATOM      4  C   UNL     1      45.148   5.362  11.807  0.00  0.00    +0.000 A 
ATOM      5  C   UNL     1      46.045   4.742  12.708  0.00  0.00    +0.000 A 
ATOM      6  C   UNL     1      46.063   3.252  12.956  0.00  0.00    +0.000 C 
ATOM      7  C   UNL     1      47.028   5.514  13.382  0.00  0.00    +0.000 A 
ENDROOT
BRANCH   1  10
ATOM      8  C   UNL     1      50.644   7.833  14.433  0.00  0.00    +0.000 C 
ATOM      9  N   UNL     1      49.529   7.158  13.796  0.00  0.00    +0.000 N 
ATOM     10  C   UNL     1      48.248   7.689  13.798  0.00  0.00    +0.000 C 
ATOM     11  O   UNL     1      47.970   8.760  14.349  0.00  0.00    +0.000 OA
ATOM     12  H   UNL     1      49.525   6.156  13.904  0.00  0.00    +0.000 HD
ENDBRANCH   1  10
BRANCH   4  13
ATOM     13  N   UNL     1      44.092   4.639  11.236  0.00  0.00    +0.000 N 
ATOM     14  H   UNL     1      44.112   3.659  11.496  0.00  0.00    +0.000 HD
BRANCH  13  15
ATOM     15  C   UNL     1      43.829   4.752   9.796  0.00  0.00    +0.000 C 
BRANCH  15  16
ATOM     16  C   UNL     1      44.730   3.807   9.021  0.00  0.00    +0.000 A 
ATOM     17  C   UNL     1      44.744   2.446   9.325  0.00  0.00    +0.000 A 
ATOM     18  C   UNL     1      45.641   1.617   8.658  0.00  0.00    +0.000 A 
ATOM     19  C   UNL     1      46.475   2.159   7.687  0.00  0.00    +0.000 A 
ATOM     20  C   UNL     1      46.374   3.513   7.418  0.00  0.00    +0.000 A 
ATOM     21  N   UNL     1      45.532   4.347   8.067  0.00  0.00    +0.000 NA
ENDBRANCH  15  16
ENDBRANCH  13  15
ENDBRANCH   4  13
TORSDOF 4
ENDMDL
MODEL 6
REMARK VINA RESULT:    -6.096      2.485      6.622
REMARK INTER + INTRA:          -7.899
REMARK INTER:                  -7.550
REMARK INTRA:                  -0.349
REMARK UNBOUND:                -0.377
REMARK  Name = 
REMARK  6 active torsions:
REMARK  status: ('A' for Active; 'I' for Inactive)
REMARK    1  A    between atoms: C_1  and  N_2
REMARK    2  A    between atoms: C_3  and  C_5
REMARK    3  A    between atoms: C_8  and  N_9
REMARK    4  A    between atoms: N_9  and  C_10
REMARK    5  A    between atoms: C_10  and  C_11
REMARK    6  A    between atoms: C_17  and  C_18
REMARK                            x       y       z     vdW  Elec       q    Type
REMARK                         _______ _______ _______ _____ _____    ______ ____
ROOT
ATOM      1  C   UNL     1      45.898   3.147   8.514  0.00  0.00    +0.000 A 
ATOM      2  C   UNL     1      45.951   4.545   8.521  0.00  0.00    +0.000 A 
ATOM      3  C   UNL     1      45.293   5.283   9.520  0.00  0.00    +0.000 A 
ATOM      4  C   UNL     1      44.460   4.665  10.468  0.00  0.00    +0.000 A 
ATOM      5  C   UNL     1      44.366   3.255  10.435  0.00  0.00    +0.000 A 
ATOM      6  C   UNL     1      43.455   2.469  11.349  0.00  0.00    +0.000 C 
ATOM      7  C   UNL     1      45.099   2.512   9.471  0.00  0.00    +0.000 A 
ENDROOT
BRANCH   1  10
ATOM      8  C   UNL     1      47.695   2.404   5.215  0.00  0.00    +0.000 C 
ATOM      9  N   UNL     1      47.040   3.067   6.327  0.00  0.00    +0.000 N 
ATOM     10  C   UNL     1      46.605   2.374   7.445  0.00  0.00    +0.000 C 
ATOM     11  O   UNL     1      46.736   1.151   7.566  0.00  0.00    +0.000 OA
ATOM     12  H   UNL     1      46.401   3.801   6.063  0.00  0.00    +0.000 HD
ENDBRANCH   1  10
BRANCH   4  13
ATOM     13  N   UNL     1      43.848   5.400  11.493  0.00  0.00    +0.000 N 
ATOM     14  H   UNL     1      42.846   5.486  11.359  0.00  0.00    +0.000 HD
BRANCH  13  15
ATOM     15  C   UNL     1      44.397   6.706  11.878  0.00  0.00    +0.000 C 
BRANCH  15  16
ATOM     16  C   UNL     1      45.622   6.523  12.755  0.00  0.00    +0.000 A 
ATOM     17  C   UNL     1      46.616   7.501  12.782  0.00  0.00    +0.000 A 
ATOM     18  C   UNL     1      47.768   7.269  13.528  0.00  0.00    +0.000 A 
ATOM     19  C   UNL     1      47.885   6.087  14.249  0.00  0.00    +0.000 A 
ATOM     20  C   UNL     1      46.838   5.183  14.199  0.00  0.00    +0.000 A 
ATOM     21  N   UNL     1      45.719   5.369  13.465  0.00  0.00    +0.000 NA
ENDBRANCH  15  16
ENDBRANCH  13  15
ENDBRANCH   4  13
TORSDOF 4
ENDMDL
MODEL 7
REMARK VINA RESULT:    -6.094      2.459      7.149
REMARK INTER + INTRA:          -7.896
REMARK INTER:                  -7.515
REMARK INTRA:                  -0.381
REMARK UNBOUND:                -0.377
REMARK  Name = 
REMARK  6 active torsions:
REMARK  status: ('A' for Active; 'I' for Inactive)
REMARK    1  A    between atoms: C_1  and  N_2
REMARK    2  A    between atoms: C_3  and  C_5
REMARK    3  A    between atoms: C_8  and  N_9
REMARK    4  A    between atoms: N_9  and  C_10
REMARK    5  A    between atoms: C_10  and  C_11
REMARK    6  A    between atoms: C_17  and  C_18
REMARK                            x       y       z     vdW  Elec       q    Type
REMARK                         _______ _______ _______ _____ _____    ______ ____
ROOT
ATOM      1  C   UNL     1      45.315   4.700  11.564  0.00  0.00    +0.000 A 
ATOM      2  C   UNL     1      45.590   3.630  12.422  0.00  0.00    +0.000 A 
ATOM      3  C   UNL     1      46.274   3.839  13.632  0.00  0.00    +0.000 A 
ATOM      4  C   UNL     1      46.816   5.091  13.969  0.00  0.00    +0.000 A 
ATOM      5  C   UNL     1      46.580   6.166  13.080  0.00  0.00    +0.000 A 
ATOM      6  C   UNL     1      47.161   7.545  13.285  0.00  0.00    +0.000 C 
ATOM      7  C   UNL     1      45.819   5.962  11.899  0.00  0.00    +0.000 A 
ENDROOT
BRANCH   1  10
ATOM      8  C   UNL     1      44.680   3.644   7.938  0.00  0.00    +0.000 C 
ATOM      9  N   UNL     1      45.283   3.876   9.237  0.00  0.00    +0.000 N 
ATOM     10  C   UNL     1      44.584   4.463  10.280  0.00  0.00    +0.000 C 
ATOM     11  O   UNL     1      43.411   4.838  10.170  0.00  0.00    +0.000 OA
ATOM     12  H   UNL     1      46.245   4.175   9.208  0.00  0.00    +0.000 HD
ENDBRANCH   1  10
BRANCH   4  13
ATOM     13  N   UNL     1      47.452   5.305  15.200  0.00  0.00    +0.000 N 
ATOM     14  H   UNL     1      48.428   5.559  15.089  0.00  0.00    +0.000 HD
BRANCH  13  15
ATOM     15  C   UNL     1      47.331   4.303  16.265  0.00  0.00    +0.000 C 
BRANCH  15  16
ATOM     16  C   UNL     1      48.706   3.832  16.702  0.00  0.00    +0.000 A 
ATOM     17  C   UNL     1      48.986   2.468  16.785  0.00  0.00    +0.000 A 
ATOM     18  C   UNL     1      50.226   2.064  17.269  0.00  0.00    +0.000 A 
ATOM     19  C   UNL     1      51.163   3.026  17.628  0.00  0.00    +0.000 A 
ATOM     20  C   UNL     1      50.821   4.359  17.482  0.00  0.00    +0.000 A 
ATOM     21  N   UNL     1      49.617   4.782  17.038  0.00  0.00    +0.000 NA
ENDBRANCH  15  16
ENDBRANCH  13  15
ENDBRANCH   4  13
TORSDOF 4
ENDMDL
MODEL 8
REMARK VINA RESULT:    -5.793      3.182      6.698
REMARK INTER + INTRA:          -7.524
REMARK INTER:                  -7.049
REMARK INTRA:                  -0.475
REMARK UNBOUND:                -0.377
REMARK  Name = 
REMARK  6 active torsions:
REMARK  status: ('A' for Active; 'I' for Inactive)
REMARK    1  A    between atoms: C_1  and  N_2
REMARK    2  A    between atoms: C_3  and  C_5
REMARK    3  A    between atoms: C_8  and  N_9
REMARK    4  A    between atoms: N_9  and  C_10
REMARK    5  A    between atoms: C_10  and  C_11
REMARK    6  A    between atoms: C_17  and  C_18
REMARK                            x       y       z     vdW  Elec       q    Type
REMARK                         _______ _______ _______ _____ _____    ______ ____
ROOT
ATOM      1  C   UNL     1      45.568   3.332   8.840  0.00  0.00    +0.000 A 
ATOM      2  C   UNL     1      45.761   4.717   8.792  0.00  0.00    +0.000 A 
ATOM      3  C   UNL     1      45.278   5.544   9.820  0.00  0.00    +0.000 A 
ATOM      4  C   UNL     1      44.481   5.040  10.863  0.00  0.00    +0.000 A 
ATOM      5  C   UNL     1      44.245   3.646  10.889  0.00  0.00    +0.000 A 
ATOM      6  C   UNL     1      43.353   2.982  11.911  0.00  0.00    +0.000 C 
ATOM      7  C   UNL     1      44.805   2.807   9.889  0.00  0.00    +0.000 A 
ENDROOT
BRANCH   1  10
ATOM      8  C   UNL     1      46.980   0.244   7.069  0.00  0.00    +0.000 C 
ATOM      9  N   UNL     1      46.425   1.155   8.053  0.00  0.00    +0.000 N 
ATOM     10  C   UNL     1      46.090   2.462   7.739  0.00  0.00    +0.000 C 
ATOM     11  O   UNL     1      46.251   2.941   6.611  0.00  0.00    +0.000 OA
ATOM     12  H   UNL     1      46.826   1.075   8.974  0.00  0.00    +0.000 HD
ENDBRANCH   1  10
BRANCH   4  13
ATOM     13  N   UNL     1      44.046   5.861  11.913  0.00  0.00    +0.000 N 
ATOM     14  H   UNL     1      43.618   6.717  11.579  0.00  0.00    +0.000 HD
BRANCH  13  15
ATOM     15  C   UNL     1      44.962   6.177  13.016  0.00  0.00    +0.000 C 
BRANCH  15  16
ATOM     16  C   UNL     1      45.609   7.531  12.790  0.00  0.00    +0.000 A 
ATOM     17  C   UNL     1      44.941   8.514  12.061  0.00  0.00    +0.000 A 
ATOM     18  C   UNL     1      45.592   9.715  11.797  0.00  0.00    +0.000 A 
ATOM     19  C   UNL     1      46.874   9.917  12.292  0.00  0.00    +0.000 A 
ATOM     20  C   UNL     1      47.455   8.906  13.039  0.00  0.00    +0.000 A 
ATOM     21  N   UNL     1      46.858   7.721  13.290  0.00  0.00    +0.000 NA
ENDBRANCH  15  16
ENDBRANCH  13  15
ENDBRANCH   4  13
TORSDOF 4
ENDMDL
MODEL 9
REMARK VINA RESULT:    -5.659      3.117      6.179
REMARK INTER + INTRA:          -7.360
REMARK INTER:                  -6.703
REMARK INTRA:                  -0.656
REMARK UNBOUND:                -0.377
REMARK  Name = 
REMARK  6 active torsions:
REMARK  status: ('A' for Active; 'I' for Inactive)
REMARK    1  A    between atoms: C_1  and  N_2
REMARK    2  A    between atoms: C_3  and  C_5
REMARK    3  A    between atoms: C_8  and  N_9
REMARK    4  A    between atoms: N_9  and  C_10
REMARK    5  A    between atoms: C_10  and  C_11
REMARK    6  A    between atoms: C_17  and  C_18
REMARK                            x       y       z     vdW  Elec       q    Type
REMARK                         _______ _______ _______ _____ _____    ______ ____
ROOT
ATOM      1  C   UNL     1      44.810   4.398  11.347  0.00  0.00    +0.000 A 
ATOM      2  C   UNL     1      44.149   5.601  11.074  0.00  0.00    +0.000 A 
ATOM      3  C   UNL     1      44.540   6.793  11.707  0.00  0.00    +0.000 A 
ATOM      4  C   UNL     1      45.513   6.809  12.721  0.00  0.00    +0.000 A 
ATOM      5  C   UNL     1      46.151   5.586  13.033  0.00  0.00    +0.000 A 
ATOM      6  C   UNL     1      47.164   5.446  14.145  0.00  0.00    +0.000 C 
ATOM      7  C   UNL     1      45.805   4.400  12.331  0.00  0.00    +0.000 A 
ENDROOT
BRANCH   1  10
ATOM      8  C   UNL     1      44.801   1.499   8.846  0.00  0.00    +0.000 C 
ATOM      9  N   UNL     1      45.152   2.686   9.602  0.00  0.00    +0.000 N 
ATOM     10  C   UNL     1      44.385   3.136  10.665  0.00  0.00    +0.000 C 
ATOM     11  O   UNL     1      43.350   2.566  11.031  0.00  0.00    +0.000 OA
ATOM     12  H   UNL     1      45.517   3.445   9.049  0.00  0.00    +0.000 HD
ENDBRANCH   1  10
BRANCH   4  13
ATOM     13  N   UNL     1      45.935   8.008  13.311  0.00  0.00    +0.000 N 
ATOM     14  H   UNL     1      45.212   8.430  13.883  0.00  0.00    +0.000 HD
BRANCH  13  15
ATOM     15  C   UNL     1      46.563   9.045  12.483  0.00  0.00    +0.000 C 
BRANCH  15  16
ATOM     16  C   UNL     1      48.067   8.847  12.442  0.00  0.00    +0.000 A 
ATOM     17  C   UNL     1      48.629   7.931  11.553  0.00  0.00    +0.000 A 
ATOM     18  C   UNL     1      50.002   7.708  11.595  0.00  0.00    +0.000 A 
ATOM     19  C   UNL     1      50.780   8.422  12.498  0.00  0.00    +0.000 A 
ATOM     20  C   UNL     1      50.151   9.340  13.322  0.00  0.00    +0.000 A 
ATOM     21  N   UNL     1      48.818   9.560  13.321  0.00  0.00    +0.000 NA
ENDBRANCH  15  16
ENDBRANCH  13  15
ENDBRANCH   4  13
TORSDOF 4
ENDMDL
