MODEL 1
REMARK VINA RESULT:    -9.001      0.000      0.000
REMARK INTER + INTRA:         -12.575
REMARK INTER:                 -11.632
REMARK INTRA:                  -0.943
REMARK UNBOUND:                -0.943
REMARK  Name = 
REMARK  5 active torsions:
REMARK  status: ('A' for Active; 'I' for Inactive)
REMARK    1  A    between atoms: C_2  and  C_4
REMARK    2  A    between atoms: C_7  and  O_8
REMARK    3  A    between atoms: O_8  and  C_9
REMARK    4  A    between atoms: C_9  and  C_10
REMARK    5  A    between atoms: C_14  and  C_15
REMARK                            x       y       z     vdW  Elec       q    Type
REMARK                         _______ _______ _______ _____ _____    ______ ____
ROOT
ATOM      1  C   UNL     1      43.656   4.263  11.232  0.00  0.00    +0.000 C 
ENDROOT
BRANCH   1   2
ATOM      2  C   UNL     1      44.867   4.654  12.052  0.00  0.00    +0.000 A 
ATOM      3  C   UNL     1      45.555   3.728  12.839  0.00  0.00    +0.000 A 
ATOM      4  C   UNL     1      46.697   4.113  13.533  0.00  0.00    +0.000 A 
ATOM      5  C   UNL     1      47.180   5.420  13.419  0.00  0.00    +0.000 A 
ATOM      6  C   UNL     1      46.555   6.369  12.589  0.00  0.00    +0.000 A 
ATOM      7  C   UNL     1      45.381   5.960  11.931  0.00  0.00    +0.000 A 
BRANCH   6   8
ATOM      8  C   UNL     1      47.161   7.703  12.343  0.00  0.00    +0.000 A 
ATOM      9  C   UNL     1      48.467   7.806  11.820  0.00  0.00    +0.000 A 
ATOM     10  C   UNL     1      49.040   9.041  11.496  0.00  0.00    +0.000 A 
ATOM     11  C   UNL     1      48.316  10.214  11.679  0.00  0.00    +0.000 A 
ATOM     12  C   UNL     1      47.031  10.149  12.207  0.00  0.00    +0.000 A 
ATOM     13  C   UNL     1      46.471   8.912  12.540  0.00  0.00    +0.000 A 
ATOM     14  F   UNL     1      45.232   8.918  13.056  0.00  0.00    +0.000 F 
ENDBRANCH   6   8
ENDBRANCH   1   2
BRANCH   1  15
ATOM     15  O   UNL     1      43.767   4.726   9.880  0.00  0.00    +0.000 OA
BRANCH  15  19
ATOM     16  C   UNL     1      46.440   2.465   7.717  0.00  0.00    +0.000 A 
ATOM     17  C   UNL     1      45.574   1.838   8.616  0.00  0.00    +0.000 A 
ATOM     18  C   UNL     1      44.679   2.615   9.353  0.00  0.00    +0.000 A 
ATOM     19  C   UNL     1      44.684   3.988   9.160  0.00  0.00    +0.000 A 
ATOM     20  N   UNL     1      45.527   4.621   8.313  0.00  0.00    +0.000 NA
ATOM     21  C   UNL     1      46.393   3.847   7.620  0.00  0.00    +0.000 A 
BRANCH  16  23
ATOM     22  N   UNL     1      48.493   2.422   6.429  0.00  0.00    +0.000 N 
ATOM     23  C   UNL     1      47.401   1.734   6.866  0.00  0.00    +0.000 C 
ATOM     24  O   UNL     1      47.248   0.545   6.607  0.00  0.00    +0.000 OA
ATOM     25  H   UNL     1      49.207   1.873   5.963  0.00  0.00    +0.000 HD
ATOM     26  H   UNL     1      48.782   3.298   6.842  0.00  0.00    +0.000 HD
ENDBRANCH  16  23
ENDBRANCH  15  19
ENDBRANCH   1  15
TORSDOF 5
ENDMDL
MODEL 2
REMARK VINA RESULT:    -8.157      2.120      3.818
REMARK INTER + INTRA:         -11.484
REMARK INTER:                 -10.993
REMARK INTRA:                  -0.491
REMARK UNBOUND:                -0.943
REMARK  Name = 
REMARK  5 active torsions:
REMARK  status: ('A' for Active; 'I' for Inactive)
REMARK    1  A    between atoms: C_2  and  C_4
REMARK    2  A    between atoms: C_7  and  O_8
REMARK    3  A    between atoms: O_8  and  C_9
REMARK    4  A    between atoms: C_9  and  C_10
REMARK    5  A    between atoms: C_14  and  C_15
REMARK                            x       y       z     vdW  Elec       q    Type
REMARK                         _______ _______ _______ _____ _____    ______ ____
ROOT
ATOM      1  C   UNL     1      44.224   4.334  11.575  0.00  0.00    +0.000 C 
ENDROOT
BRANCH   1   2
ATOM      2  C   UNL     1      45.453   5.029  12.120  0.00  0.00    +0.000 A 
ATOM      3  C   UNL     1      45.968   6.185  11.529  0.00  0.00    +0.000 A 
ATOM      4  C   UNL     1      47.066   6.828  12.093  0.00  0.00    +0.000 A 
ATOM      5  C   UNL     1      47.636   6.338  13.271  0.00  0.00    +0.000 A 
ATOM      6  C   UNL     1      47.112   5.214  13.934  0.00  0.00    +0.000 A 
ATOM      7  C   UNL     1      46.027   4.563  13.319  0.00  0.00    +0.000 A 
BRANCH   6   8
ATOM      8  C   UNL     1      47.616   4.794  15.267  0.00  0.00    +0.000 A 
ATOM      9  C   UNL     1      47.478   3.456  15.691  0.00  0.00    +0.000 A 
ATOM     10  C   UNL     1      48.014   3.004  16.902  0.00  0.00    +0.000 A 
ATOM     11  C   UNL     1      48.713   3.879  17.725  0.00  0.00    +0.000 A 
ATOM     12  C   UNL     1      48.854   5.210  17.344  0.00  0.00    +0.000 A 
ATOM     13  C   UNL     1      48.304   5.656  16.139  0.00  0.00    +0.000 A 
ATOM     14  F   UNL     1      48.466   6.954  15.834  0.00  0.00    +0.000 F 
ENDBRANCH   6   8
ENDBRANCH   1   2
BRANCH   1  15
ATOM     15  O   UNL     1      44.021   4.636  10.189  0.00  0.00    +0.000 OA
BRANCH  15  19
ATOM     16  C   UNL     1      46.435   2.350   7.764  0.00  0.00    +0.000 A 
ATOM     17  C   UNL     1      46.416   3.738   7.608  0.00  0.00    +0.000 A 
ATOM     18  C   UNL     1      45.585   4.503   8.429  0.00  0.00    +0.000 A 
ATOM     19  C   UNL     1      44.808   3.850   9.374  0.00  0.00    +0.000 A 
ATOM     20  N   UNL     1      44.792   2.507   9.529  0.00  0.00    +0.000 NA
ATOM     21  C   UNL     1      45.597   1.787   8.714  0.00  0.00    +0.000 A 
BRANCH  16  23
ATOM     22  N   UNL     1      48.405   2.005   6.394  0.00  0.00    +0.000 N 
ATOM     23  C   UNL     1      47.301   1.453   6.972  0.00  0.00    +0.000 C 
ATOM     24  O   UNL     1      47.064   0.253   6.883  0.00  0.00    +0.000 OA
ATOM     25  H   UNL     1      49.057   1.354   5.971  0.00  0.00    +0.000 HD
ATOM     26  H   UNL     1      48.767   2.906   6.672  0.00  0.00    +0.000 HD
ENDBRANCH  16  23
ENDBRANCH  15  19
ENDBRANCH   1  15
TORSDOF 5
ENDMDL
MODEL 3
REMARK VINA RESULT:    -8.050      1.566      2.206
REMARK INTER + INTRA:         -11.346
REMARK INTER:                 -10.450
REMARK INTRA:                  -0.897
REMARK UNBOUND:                -0.943
REMARK  Name = 
REMARK  5 active torsions:
REMARK  status: ('A' for Active; 'I' for Inactive)
REMARK    1  A    between atoms: C_2  and  C_4
REMARK    2  A    between atoms: C_7  and  O_8
REMARK    3  A    between atoms: O_8  and  C_9
REMARK    4  A    between atoms: C_9  and  C_10
REMARK    5  A    between atoms: C_14  and  C_15
REMARK                            x       y       z     vdW  Elec       q    Type
REMARK                         _______ _______ _______ _____ _____    ______ ____
ROOT
ATOM      1  C   UNL     1      44.334   3.796  11.455  0.00  0.00    +0.000 C 
ENDROOT
BRANCH   1   2
ATOM      2  C   UNL     1      44.747   5.251  11.516  0.00  0.00    +0.000 A 
ATOM      3  C   UNL     1      43.814   6.287  11.417  0.00  0.00    +0.000 A 
ATOM      4  C   UNL     1      44.226   7.611  11.536  0.00  0.00    +0.000 A 
ATOM      5  C   UNL     1      45.569   7.908  11.787  0.00  0.00    +0.000 A 
ATOM      6  C   UNL     1      46.531   6.896  11.955  0.00  0.00    +0.000 A 
ATOM      7  C   UNL     1      46.091   5.569  11.791  0.00  0.00    +0.000 A 
BRANCH   6   8
ATOM      8  C   UNL     1      47.919   7.208  12.382  0.00  0.00    +0.000 A 
ATOM      9  C   UNL     1      48.795   7.890  11.511  0.00  0.00    +0.000 A 
ATOM     10  C   UNL     1      50.080   8.276  11.907  0.00  0.00    +0.000 A 
ATOM     11  C   UNL     1      50.527   7.996  13.193  0.00  0.00    +0.000 A 
ATOM     12  C   UNL     1      49.695   7.312  14.072  0.00  0.00    +0.000 A 
ATOM     13  C   UNL     1      48.416   6.918  13.664  0.00  0.00    +0.000 A 
ATOM     14  F   UNL     1      47.667   6.251  14.556  0.00  0.00    +0.000 F 
ENDBRANCH   6   8
ENDBRANCH   1   2
BRANCH   1  15
ATOM     15  O   UNL     1      43.745   3.472  10.189  0.00  0.00    +0.000 OA
BRANCH  15  19
ATOM     16  C   UNL     1      46.558   2.565   7.326  0.00  0.00    +0.000 A 
ATOM     17  C   UNL     1      46.110   1.566   8.195  0.00  0.00    +0.000 A 
ATOM     18  C   UNL     1      45.164   1.887   9.169  0.00  0.00    +0.000 A 
ATOM     19  C   UNL     1      44.702   3.193   9.236  0.00  0.00    +0.000 A 
ATOM     20  N   UNL     1      45.136   4.181   8.421  0.00  0.00    +0.000 NA
ATOM     21  C   UNL     1      46.061   3.848   7.493  0.00  0.00    +0.000 A 
BRANCH  16  23
ATOM     22  N   UNL     1      47.409   3.088   5.117  0.00  0.00    +0.000 N 
ATOM     23  C   UNL     1      47.530   2.324   6.240  0.00  0.00    +0.000 C 
ATOM     24  O   UNL     1      48.438   1.509   6.365  0.00  0.00    +0.000 OA
ATOM     25  H   UNL     1      48.162   3.007   4.442  0.00  0.00    +0.000 HD
ATOM     26  H   UNL     1      46.860   3.935   5.096  0.00  0.00    +0.000 HD
ENDBRANCH  16  23
ENDBRANCH  15  19
ENDBRANCH   1  15
TORSDOF 5
ENDMDL
MODEL 4
REMARK VINA RESULT:    -7.927      1.639      1.997
REMARK INTER + INTRA:         -11.187
REMARK INTER:                 -10.493
REMARK INTRA:                  -0.694
REMARK UNBOUND:                -0.943
REMARK  Name = 
REMARK  5 active torsions:
REMARK  status: ('A' for Active; 'I' for Inactive)
REMARK    1  A    between atoms: C_2  and  C_4
REMARK    2  A    between atoms: C_7  and  O_8
REMARK    3  A    between atoms: O_8  and  C_9
REMARK    4  A    between atoms: C_9  and  C_10
REMARK    5  A    between atoms: C_14  and  C_15
REMARK                            x       y       z     vdW  Elec       q    Type
REMARK                         _______ _______ _______ _____ _____    ______ ____
ROOT
ATOM      1  C   UNL     1      44.440   5.694  10.656  0.00  0.00    +0.000 C 
ENDROOT
BRANCH   1   2
ATOM      2  C   UNL     1      45.344   5.400  11.834  0.00  0.00    +0.000 A 
ATOM      3  C   UNL     1      45.228   4.222  12.576  0.00  0.00    +0.000 A 
ATOM      4  C   UNL     1      46.115   3.963  13.616  0.00  0.00    +0.000 A 
ATOM      5  C   UNL     1      47.146   4.863  13.901  0.00  0.00    +0.000 A 
ATOM      6  C   UNL     1      47.338   6.031  13.140  0.00  0.00    +0.000 A 
ATOM      7  C   UNL     1      46.402   6.285  12.121  0.00  0.00    +0.000 A 
BRANCH   6   8
ATOM      8  C   UNL     1      48.526   6.900  13.339  0.00  0.00    +0.000 A 
ATOM      9  C   UNL     1      49.048   7.105  14.634  0.00  0.00    +0.000 A 
ATOM     10  C   UNL     1      50.214   7.848  14.853  0.00  0.00    +0.000 A 
ATOM     11  C   UNL     1      50.899   8.402  13.778  0.00  0.00    +0.000 A 
ATOM     12  C   UNL     1      50.403   8.232  12.489  0.00  0.00    +0.000 A 
ATOM     13  C   UNL     1      49.230   7.499  12.281  0.00  0.00    +0.000 A 
ATOM     14  F   UNL     1      48.798   7.381  11.015  0.00  0.00    +0.000 F 
ENDBRANCH   6   8
ENDBRANCH   1   2
BRANCH   1  15
ATOM     15  O   UNL     1      43.935   4.488  10.069  0.00  0.00    +0.000 OA
BRANCH  15  19
ATOM     16  C   UNL     1      46.608   2.714   7.491  0.00  0.00    +0.000 A 
ATOM     17  C   UNL     1      45.864   1.921   8.368  0.00  0.00    +0.000 A 
ATOM     18  C   UNL     1      44.968   2.533   9.245  0.00  0.00    +0.000 A 
ATOM     19  C   UNL     1      44.850   3.915   9.211  0.00  0.00    +0.000 A 
ATOM     20  N   UNL     1      45.575   4.705   8.387  0.00  0.00    +0.000 NA
ATOM     21  C   UNL     1      46.445   4.089   7.555  0.00  0.00    +0.000 A 
BRANCH  16  23
ATOM     22  N   UNL     1      47.858   2.950   5.428  0.00  0.00    +0.000 N 
ATOM     23  C   UNL     1      47.556   2.165   6.500  0.00  0.00    +0.000 C 
ATOM     24  O   UNL     1      48.088   1.072   6.664  0.00  0.00    +0.000 OA
ATOM     25  H   UNL     1      48.610   2.618   4.833  0.00  0.00    +0.000 HD
ATOM     26  H   UNL     1      47.658   3.939   5.408  0.00  0.00    +0.000 HD
ENDBRANCH  16  23
ENDBRANCH  15  19
ENDBRANCH   1  15
TORSDOF 5
ENDMDL
MODEL 5
REMARK VINA RESULT:    -7.771      1.738      2.598
REMARK INTER + INTRA:         -10.986
REMARK INTER:                 -10.029
REMARK INTRA:                  -0.956
REMARK UNBOUND:                -0.943
REMARK  Name = 
REMARK  5 active torsions:
REMARK  status: ('A' for Active; 'I' for Inactive)
REMARK    1  A    between atoms: C_2  and  C_4
REMARK    2  A    between atoms: C_7  and  O_8
REMARK    3  A    between atoms: O_8  and  C_9
REMARK    4  A    between atoms: C_9  and  C_10
REMARK    5  A    between atoms: C_14  and  C_15
REMARK                            x       y       z     vdW  Elec       q    Type
REMARK                         _______ _______ _______ _____ _____    ______ ____
ROOT
ATOM      1  C   UNL     1      44.550   4.878  11.453  0.00  0.00    +0.000 C 
ENDROOT
BRANCH   1   2
ATOM      2  C   UNL     1      45.084   6.285  11.617  0.00  0.00    +0.000 A 
ATOM      3  C   UNL     1      44.291   7.408  11.371  0.00  0.00    +0.000 A 
ATOM      4  C   UNL     1      44.802   8.684  11.589  0.00  0.00    +0.000 A 
ATOM      5  C   UNL     1      46.098   8.846  12.085  0.00  0.00    +0.000 A 
ATOM      6  C   UNL     1      46.910   7.742  12.406  0.00  0.00    +0.000 A 
ATOM      7  C   UNL     1      46.380   6.467  12.138  0.00  0.00    +0.000 A 
BRANCH   6   8
ATOM      8  C   UNL     1      48.220   7.914  13.084  0.00  0.00    +0.000 A 
ATOM      9  C   UNL     1      48.282   8.059  14.486  0.00  0.00    +0.000 A 
ATOM     10  C   UNL     1      49.501   8.139  15.169  0.00  0.00    +0.000 A 
ATOM     11  C   UNL     1      50.699   8.068  14.468  0.00  0.00    +0.000 A 
ATOM     12  C   UNL     1      50.674   7.941  13.083  0.00  0.00    +0.000 A 
ATOM     13  C   UNL     1      49.451   7.875  12.407  0.00  0.00    +0.000 A 
ATOM     14  F   UNL     1      49.495   7.764  11.070  0.00  0.00    +0.000 F 
ENDBRANCH   6   8
ENDBRANCH   1   2
BRANCH   1  15
ATOM     15  O   UNL     1      44.000   4.676  10.145  0.00  0.00    +0.000 OA
BRANCH  15  19
ATOM     16  C   UNL     1      46.516   2.522   7.702  0.00  0.00    +0.000 A 
ATOM     17  C   UNL     1      45.750   1.857   8.663  0.00  0.00    +0.000 A 
ATOM     18  C   UNL     1      44.908   2.598   9.494  0.00  0.00    +0.000 A 
ATOM     19  C   UNL     1      44.864   3.974   9.330  0.00  0.00    +0.000 A 
ATOM     20  N   UNL     1      45.612   4.643   8.422  0.00  0.00    +0.000 NA
ATOM     21  C   UNL     1      46.428   3.903   7.638  0.00  0.00    +0.000 A 
BRANCH  16  23
ATOM     22  N   UNL     1      48.506   2.517   6.317  0.00  0.00    +0.000 N 
ATOM     23  C   UNL     1      47.411   1.830   6.752  0.00  0.00    +0.000 C 
ATOM     24  O   UNL     1      47.207   0.670   6.411  0.00  0.00    +0.000 OA
ATOM     25  H   UNL     1      49.178   1.984   5.777  0.00  0.00    +0.000 HD
ATOM     26  H   UNL     1      48.842   3.348   6.781  0.00  0.00    +0.000 HD
ENDBRANCH  16  23
ENDBRANCH  15  19
ENDBRANCH   1  15
TORSDOF 5
ENDMDL
MODEL 6
REMARK VINA RESULT:    -7.437      4.942      8.071
REMARK INTER + INTRA:         -10.553
REMARK INTER:                  -9.764
REMARK INTRA:                  -0.790
REMARK UNBOUND:                -0.943
REMARK  Name = 
REMARK  5 active torsions:
REMARK  status: ('A' for Active; 'I' for Inactive)
REMARK    1  A    between atoms: C_2  and  C_4
REMARK    2  A    between atoms: C_7  and  O_8
REMARK    3  A    between atoms: O_8  and  C_9
REMARK    4  A    between atoms: C_9  and  C_10
REMARK    5  A    between atoms: C_14  and  C_15
REMARK                            x       y       z     vdW  Elec       q    Type
REMARK                         _______ _______ _______ _____ _____    ______ ____
ROOT
ATOM      1  C   UNL     1      46.011   5.162  14.021  0.00  0.00    +0.000 C 
ENDROOT
BRANCH   1   2
ATOM      2  C   UNL     1      45.059   4.957  12.863  0.00  0.00    +0.000 A 
ATOM      3  C   UNL     1      43.747   5.433  12.894  0.00  0.00    +0.000 A 
ATOM      4  C   UNL     1      42.920   5.274  11.786  0.00  0.00    +0.000 A 
ATOM      5  C   UNL     1      43.410   4.667  10.627  0.00  0.00    +0.000 A 
ATOM      6  C   UNL     1      44.743   4.229  10.529  0.00  0.00    +0.000 A 
ATOM      7  C   UNL     1      45.542   4.368  11.678  0.00  0.00    +0.000 A 
BRANCH   6   8
ATOM      8  C   UNL     1      45.304   3.735   9.245  0.00  0.00    +0.000 A 
ATOM      9  C   UNL     1      46.009   4.610   8.393  0.00  0.00    +0.000 A 
ATOM     10  C   UNL     1      46.624   4.164   7.218  0.00  0.00    +0.000 A 
ATOM     11  C   UNL     1      46.559   2.822   6.863  0.00  0.00    +0.000 A 
ATOM     12  C   UNL     1      45.859   1.934   7.673  0.00  0.00    +0.000 A 
ATOM     13  C   UNL     1      45.236   2.391   8.839  0.00  0.00    +0.000 A 
ATOM     14  F   UNL     1      44.567   1.486   9.572  0.00  0.00    +0.000 F 
ENDBRANCH   6   8
ENDBRANCH   1   2
BRANCH   1  15
ATOM     15  O   UNL     1      46.608   3.926  14.434  0.00  0.00    +0.000 OA
BRANCH  15  19
ATOM     16  C   UNL     1      48.521   4.383  18.049  0.00  0.00    +0.000 A 
ATOM     17  C   UNL     1      48.541   5.426  17.121  0.00  0.00    +0.000 A 
ATOM     18  C   UNL     1      47.898   5.257  15.894  0.00  0.00    +0.000 A 
ATOM     19  C   UNL     1      47.260   4.052  15.643  0.00  0.00    +0.000 A 
ATOM     20  N   UNL     1      47.245   3.019  16.517  0.00  0.00    +0.000 NA
ATOM     21  C   UNL     1      47.885   3.204  17.694  0.00  0.00    +0.000 A 
BRANCH  16  23
ATOM     22  N   UNL     1      48.479   3.870  20.419  0.00  0.00    +0.000 N 
ATOM     23  C   UNL     1      49.140   4.470  19.388  0.00  0.00    +0.000 C 
ATOM     24  O   UNL     1      50.226   5.014  19.554  0.00  0.00    +0.000 OA
ATOM     25  H   UNL     1      48.980   3.822  21.299  0.00  0.00    +0.000 HD
ATOM     26  H   UNL     1      47.744   3.195  20.269  0.00  0.00    +0.000 HD
ENDBRANCH  16  23
ENDBRANCH  15  19
ENDBRANCH   1  15
TORSDOF 5
ENDMDL
MODEL 7
REMARK VINA RESULT:    -7.391      3.546      6.742
REMARK INTER + INTRA:         -10.494
REMARK INTER:                  -9.792
REMARK INTRA:                  -0.703
REMARK UNBOUND:                -0.943
REMARK  Name = 
REMARK  5 active torsions:
REMARK  status: ('A' for Active; 'I' for Inactive)
REMARK    1  A    between atoms: C_2  and  C_4
REMARK    2  A    between atoms: C_7  and  O_8
REMARK    3  A    between atoms: O_8  and  C_9
REMARK    4  A    between atoms: C_9  and  C_10
REMARK    5  A    between atoms: C_14  and  C_15
REMARK                            x       y       z     vdW  Elec       q    Type
REMARK                         _______ _______ _______ _____ _____    ______ ____
ROOT
ATOM      1  C   UNL     1      44.233   6.618  11.421  0.00  0.00    +0.000 C 
ENDROOT
BRANCH   1   2
ATOM      2  C   UNL     1      44.249   5.152  11.046  0.00  0.00    +0.000 A 
ATOM      3  C   UNL     1      43.407   4.224  11.662  0.00  0.00    +0.000 A 
ATOM      4  C   UNL     1      43.411   2.895  11.249  0.00  0.00    +0.000 A 
ATOM      5  C   UNL     1      44.234   2.491  10.194  0.00  0.00    +0.000 A 
ATOM      6  C   UNL     1      45.052   3.403   9.503  0.00  0.00    +0.000 A 
ATOM      7  C   UNL     1      45.055   4.731   9.969  0.00  0.00    +0.000 A 
BRANCH   6   8
ATOM      8  C   UNL     1      45.798   3.006   8.282  0.00  0.00    +0.000 A 
ATOM      9  C   UNL     1      46.275   3.987   7.388  0.00  0.00    +0.000 A 
ATOM     10  C   UNL     1      47.053   3.658   6.273  0.00  0.00    +0.000 A 
ATOM     11  C   UNL     1      47.386   2.332   6.023  0.00  0.00    +0.000 A 
ATOM     12  C   UNL     1      46.920   1.337   6.876  0.00  0.00    +0.000 A 
ATOM     13  C   UNL     1      46.132   1.674   7.981  0.00  0.00    +0.000 A 
ATOM     14  F   UNL     1      45.705   0.667   8.759  0.00  0.00    +0.000 F 
ENDBRANCH   6   8
ENDBRANCH   1   2
BRANCH   1  15
ATOM     15  O   UNL     1      44.857   6.840  12.692  0.00  0.00    +0.000 OA
BRANCH  15  19
ATOM     16  C   UNL     1      48.817   7.868  12.244  0.00  0.00    +0.000 A 
ATOM     17  C   UNL     1      48.480   6.570  12.635  0.00  0.00    +0.000 A 
ATOM     18  C   UNL     1      47.135   6.235  12.794  0.00  0.00    +0.000 A 
ATOM     19  C   UNL     1      46.179   7.211  12.555  0.00  0.00    +0.000 A 
ATOM     20  N   UNL     1      46.480   8.479  12.197  0.00  0.00    +0.000 NA
ATOM     21  C   UNL     1      47.791   8.782  12.061  0.00  0.00    +0.000 A 
BRANCH  16  23
ATOM     22  N   UNL     1      51.085   7.392  11.533  0.00  0.00    +0.000 N 
ATOM     23  C   UNL     1      50.205   8.316  12.014  0.00  0.00    +0.000 C 
ATOM     24  O   UNL     1      50.539   9.481  12.199  0.00  0.00    +0.000 OA
ATOM     25  H   UNL     1      51.993   7.747  11.253  0.00  0.00    +0.000 HD
ATOM     26  H   UNL     1      50.782   6.522  11.119  0.00  0.00    +0.000 HD
ENDBRANCH  16  23
ENDBRANCH  15  19
ENDBRANCH   1  15
TORSDOF 5
ENDMDL
MODEL 8
REMARK VINA RESULT:    -7.291      4.257      7.431
REMARK INTER + INTRA:         -10.365
REMARK INTER:                  -9.464
REMARK INTRA:                  -0.901
REMARK UNBOUND:                -0.943
REMARK  Name = 
REMARK  5 active torsions:
REMARK  status: ('A' for Active; 'I' for Inactive)
REMARK    1  A    between atoms: C_2  and  C_4
REMARK    2  A    between atoms: C_7  and  O_8
REMARK    3  A    between atoms: O_8  and  C_9
REMARK    4  A    between atoms: C_9  and  C_10
REMARK    5  A    between atoms: C_14  and  C_15
REMARK                            x       y       z     vdW  Elec       q    Type
REMARK                         _______ _______ _______ _____ _____    ______ ____
ROOT
ATOM      1  C   UNL     1      46.071   6.843  12.904  0.00  0.00    +0.000 C 
ENDROOT
BRANCH   1   2
ATOM      2  C   UNL     1      45.137   6.042  12.022  0.00  0.00    +0.000 A 
ATOM      3  C   UNL     1      43.749   6.184  12.097  0.00  0.00    +0.000 A 
ATOM      4  C   UNL     1      42.927   5.472  11.229  0.00  0.00    +0.000 A 
ATOM      5  C   UNL     1      43.487   4.639  10.257  0.00  0.00    +0.000 A 
ATOM      6  C   UNL     1      44.880   4.514  10.104  0.00  0.00    +0.000 A 
ATOM      7  C   UNL     1      45.684   5.215  11.021  0.00  0.00    +0.000 A 
BRANCH   6   8
ATOM      8  C   UNL     1      45.471   3.759   8.970  0.00  0.00    +0.000 A 
ATOM      9  C   UNL     1      46.198   4.434   7.967  0.00  0.00    +0.000 A 
ATOM     10  C   UNL     1      46.840   3.749   6.929  0.00  0.00    +0.000 A 
ATOM     11  C   UNL     1      46.780   2.361   6.868  0.00  0.00    +0.000 A 
ATOM     12  C   UNL     1      46.059   1.665   7.833  0.00  0.00    +0.000 A 
ATOM     13  C   UNL     1      45.409   2.358   8.859  0.00  0.00    +0.000 A 
ATOM     14  F   UNL     1      44.721   1.629   9.752  0.00  0.00    +0.000 F 
ENDBRANCH   6   8
ENDBRANCH   1   2
BRANCH   1  15
ATOM     15  O   UNL     1      47.373   6.247  12.964  0.00  0.00    +0.000 OA
BRANCH  15  19
ATOM     16  C   UNL     1      48.171   4.605  16.652  0.00  0.00    +0.000 A 
ATOM     17  C   UNL     1      47.261   3.977  15.798  0.00  0.00    +0.000 A 
ATOM     18  C   UNL     1      46.990   4.548  14.554  0.00  0.00    +0.000 A 
ATOM     19  C   UNL     1      47.640   5.724  14.212  0.00  0.00    +0.000 A 
ATOM     20  N   UNL     1      48.507   6.363  15.029  0.00  0.00    +0.000 NA
ATOM     21  C   UNL     1      48.744   5.796  16.234  0.00  0.00    +0.000 A 
BRANCH  16  23
ATOM     22  N   UNL     1      47.991   4.652  19.069  0.00  0.00    +0.000 N 
ATOM     23  C   UNL     1      48.554   4.068  17.973  0.00  0.00    +0.000 C 
ATOM     24  O   UNL     1      49.306   3.104  18.077  0.00  0.00    +0.000 OA
ATOM     25  H   UNL     1      48.157   4.186  19.954  0.00  0.00    +0.000 HD
ATOM     26  H   UNL     1      47.178   5.247  19.006  0.00  0.00    +0.000 HD
ENDBRANCH  16  23
ENDBRANCH  15  19
ENDBRANCH   1  15
TORSDOF 5
ENDMDL
MODEL 9
REMARK VINA RESULT:    -7.008      4.946      8.121
REMARK INTER + INTRA:         -10.000
REMARK INTER:                  -9.067
REMARK INTRA:                  -0.933
REMARK UNBOUND:                -0.943
REMARK  Name = 
REMARK  5 active torsions:
REMARK  status: ('A' for Active; 'I' for Inactive)
REMARK    1  A    between atoms: C_2  and  C_4
REMARK    2  A    between atoms: C_7  and  O_8
REMARK    3  A    between atoms: O_8  and  C_9
REMARK    4  A    between atoms: C_9  and  C_10
REMARK    5  A    between atoms: C_14  and  C_15
REMARK                            x       y       z     vdW  Elec       q    Type
REMARK                         _______ _______ _______ _____ _____    ______ ____
ROOT
ATOM      1  C   UNL     1      48.229   7.145  13.962  0.00  0.00    +0.000 C 
ENDROOT
BRANCH   1   2
ATOM      2  C   UNL     1      46.983   7.243  13.108  0.00  0.00    +0.000 A 
ATOM      3  C   UNL     1      46.261   8.433  12.991  0.00  0.00    +0.000 A 
ATOM      4  C   UNL     1      45.154   8.497  12.151  0.00  0.00    +0.000 A 
ATOM      5  C   UNL     1      44.779   7.382  11.396  0.00  0.00    +0.000 A 
ATOM      6  C   UNL     1      45.513   6.183  11.436  0.00  0.00    +0.000 A 
ATOM      7  C   UNL     1      46.604   6.136  12.324  0.00  0.00    +0.000 A 
BRANCH   6   8
ATOM      8  C   UNL     1      45.211   5.057  10.515  0.00  0.00    +0.000 A 
ATOM      9  C   UNL     1      45.676   5.083   9.183  0.00  0.00    +0.000 A 
ATOM     10  C   UNL     1      45.484   4.006   8.310  0.00  0.00    +0.000 A 
ATOM     11  C   UNL     1      44.825   2.864   8.749  0.00  0.00    +0.000 A 
ATOM     12  C   UNL     1      44.340   2.811  10.051  0.00  0.00    +0.000 A 
ATOM     13  C   UNL     1      44.525   3.897  10.912  0.00  0.00    +0.000 A 
ATOM     14  F   UNL     1      44.023   3.788  12.153  0.00  0.00    +0.000 F 
ENDBRANCH   6   8
ENDBRANCH   1   2
BRANCH   1  15
ATOM     15  O   UNL     1      48.478   5.794  14.372  0.00  0.00    +0.000 OA
BRANCH  15  19
ATOM     16  C   UNL     1      48.096   5.252  18.434  0.00  0.00    +0.000 A 
ATOM     17  C   UNL     1      47.430   4.392  17.556  0.00  0.00    +0.000 A 
ATOM     18  C   UNL     1      47.558   4.592  16.181  0.00  0.00    +0.000 A 
ATOM     19  C   UNL     1      48.347   5.642  15.737  0.00  0.00    +0.000 A 
ATOM     20  N   UNL     1      48.984   6.500  16.566  0.00  0.00    +0.000 NA
ATOM     21  C   UNL     1      48.835   6.293  17.894  0.00  0.00    +0.000 A 
BRANCH  16  23
ATOM     22  N   UNL     1      48.481   3.922  20.424  0.00  0.00    +0.000 N 
ATOM     23  C   UNL     1      48.055   5.108  19.903  0.00  0.00    +0.000 C 
ATOM     24  O   UNL     1      47.703   6.034  20.625  0.00  0.00    +0.000 OA
ATOM     25  H   UNL     1      48.575   3.889  21.433  0.00  0.00    +0.000 HD
ATOM     26  H   UNL     1      49.023   3.260  19.888  0.00  0.00    +0.000 HD
ENDBRANCH  16  23
ENDBRANCH  15  19
ENDBRANCH   1  15
TORSDOF 5
ENDMDL
