MODEL 1
REMARK VINA RESULT:    -8.039      0.000      0.000
REMARK INTER + INTRA:         -11.951
REMARK INTER:                 -10.858
REMARK INTRA:                  -1.092
REMARK UNBOUND:                -1.092
REMARK  Name = 
REMARK  10 active torsions:
REMARK  status: ('A' for Active; 'I' for Inactive)
REMARK    1  A    between atoms: C_1  and  C_2
REMARK    2  A    between atoms: N_4  and  C_5
REMARK    3  A    between atoms: C_9  and  C_10
REMARK    4  A    between atoms: C_10  and  C_11
REMARK    5  A    between atoms: C_10  and  C_12
REMARK    6  A    between atoms: C_10  and  C_13
REMARK    7  A    between atoms: C_13  and  N_14
REMARK    8  A    between atoms: N_14  and  C_15
REMARK    9  A    between atoms: C_18  and  C_19
REMARK   10  A    between atoms: C_26  and  C_27
REMARK                            x       y       z     vdW  Elec       q    Type
REMARK                         _______ _______ _______ _____ _____    ______ ____
ROOT
ATOM      1  C   UNL     1      43.960   4.638  12.241  0.00  0.00    +0.000 C 
ATOM      2  C   UNL     1      43.761   3.151  12.630  0.00  0.00    +0.000 C 
ATOM      3  C   UNL     1      42.860   5.493  12.906  0.00  0.00    +0.000 C 
ENDROOT
BRANCH   1   8
ATOM      4  C   UNL     1      47.179   6.771  12.638  0.00  0.00    +0.000 A 
ATOM      5  C   UNL     1      47.775   6.137  13.733  0.00  0.00    +0.000 A 
ATOM      6  C   UNL     1      47.208   5.008  14.321  0.00  0.00    +0.000 A 
ATOM      7  C   UNL     1      46.004   4.496  13.841  0.00  0.00    +0.000 A 
ATOM      8  C   UNL     1      45.348   5.098  12.757  0.00  0.00    +0.000 A 
ATOM      9  C   UNL     1      45.986   6.207  12.158  0.00  0.00    +0.000 A 
BRANCH   4  13
ATOM     10  C   UNL     1      48.630   9.657  14.575  0.00  0.00    +0.000 C 
ATOM     11  C   UNL     1      48.456  10.044  13.108  0.00  0.00    +0.000 C 
ATOM     12  C   UNL     1      47.339   9.261  12.388  0.00  0.00    +0.000 C 
ATOM     13  N   UNL     1      47.754   7.890  12.069  0.00  0.00    +0.000 N 
ATOM     14  C   UNL     1      49.056   7.798  11.386  0.00  0.00    +0.000 C 
ATOM     15  C   UNL     1      50.125   8.607  12.155  0.00  0.00    +0.000 C 
ATOM     16  C   UNL     1      51.424   8.673  11.362  0.00  0.00    +0.000 C 
ATOM     17  O   UNL     1      49.705   9.964  12.395  0.00  0.00    +0.000 OA
ENDBRANCH   4  13
ENDBRANCH   1   8
BRANCH   1  18
ATOM     18  C   UNL     1      43.855   4.755  10.687  0.00  0.00    +0.000 C 
BRANCH  18  19
ATOM     19  N   UNL     1      43.727   3.467   9.989  0.00  0.00    +0.000 N 
ATOM     20  H   UNL     1      42.819   3.355   9.541  0.00  0.00    +0.000 HD
BRANCH  19  21
ATOM     21  C   UNL     1      44.763   3.121   9.104  0.00  0.00    +0.000 A 
ATOM     22  C   UNL     1      45.216   1.810   8.925  0.00  0.00    +0.000 A 
ATOM     23  C   UNL     1      46.207   1.519   7.990  0.00  0.00    +0.000 A 
ATOM     24  C   UNL     1      46.709   2.557   7.224  0.00  0.00    +0.000 A 
ATOM     25  N   UNL     1      46.280   3.845   7.318  0.00  0.00    +0.000 NA
ATOM     26  C   UNL     1      45.310   4.076   8.239  0.00  0.00    +0.000 A 
BRANCH  24  27
ATOM     27  C   UNL     1      47.778   2.277   6.216  0.00  0.00    +0.000 C 
ATOM     28  N   UNL     1      47.764   3.085   5.109  0.00  0.00    +0.000 N 
ATOM     29  O   UNL     1      48.611   1.392   6.358  0.00  0.00    +0.000 OA
ATOM     30  H   UNL     1      47.046   3.795   5.024  0.00  0.00    +0.000 HD
ATOM     31  H   UNL     1      48.446   2.945   4.381  0.00  0.00    +0.000 HD
ENDBRANCH  24  27
ENDBRANCH  19  21
ENDBRANCH  18  19
ENDBRANCH   1  18
TORSDOF 6
ENDMDL
MODEL 2
REMARK VINA RESULT:    -7.862      1.632      2.577
REMARK INTER + INTRA:         -11.712
REMARK INTER:                 -10.856
REMARK INTRA:                  -0.856
REMARK UNBOUND:                -1.092
REMARK  Name = 
REMARK  10 active torsions:
REMARK  status: ('A' for Active; 'I' for Inactive)
REMARK    1  A    between atoms: C_1  and  C_2
REMARK    2  A    between atoms: N_4  and  C_5
REMARK    3  A    between atoms: C_9  and  C_10
REMARK    4  A    between atoms: C_10  and  C_11
REMARK    5  A    between atoms: C_10  and  C_12
REMARK    6  A    between atoms: C_10  and  C_13
REMARK    7  A    between atoms: C_13  and  N_14
REMARK    8  A    between atoms: N_14  and  C_15
REMARK    9  A    between atoms: C_18  and  C_19
REMARK   10  A    between atoms: C_26  and  C_27
REMARK                            x       y       z     vdW  Elec       q    Type
REMARK                         _______ _______ _______ _____ _____    ______ ____
ROOT
ATOM      1  C   UNL     1      44.284   5.050  12.221  0.00  0.00    +0.000 C 
ATOM      2  C   UNL     1      45.090   3.787  12.617  0.00  0.00    +0.000 C 
ATOM      3  C   UNL     1      43.022   5.151  13.105  0.00  0.00    +0.000 C 
ENDROOT
BRANCH   1   8
ATOM      4  C   UNL     1      47.296   7.210  13.377  0.00  0.00    +0.000 A 
ATOM      5  C   UNL     1      46.968   8.441  12.798  0.00  0.00    +0.000 A 
ATOM      6  C   UNL     1      45.782   8.621  12.089  0.00  0.00    +0.000 A 
ATOM      7  C   UNL     1      44.896   7.558  11.918  0.00  0.00    +0.000 A 
ATOM      8  C   UNL     1      45.177   6.296  12.461  0.00  0.00    +0.000 A 
ATOM      9  C   UNL     1      46.365   6.171  13.216  0.00  0.00    +0.000 A 
BRANCH   4  13
ATOM     10  C   UNL     1      48.918   9.869  15.495  0.00  0.00    +0.000 C 
ATOM     11  C   UNL     1      49.902   8.729  15.239  0.00  0.00    +0.000 C 
ATOM     12  C   UNL     1      49.626   7.951  13.936  0.00  0.00    +0.000 C 
ATOM     13  N   UNL     1      48.476   7.048  14.074  0.00  0.00    +0.000 N 
ATOM     14  C   UNL     1      48.532   6.180  15.263  0.00  0.00    +0.000 C 
ATOM     15  C   UNL     1      48.817   7.021  16.529  0.00  0.00    +0.000 C 
ATOM     16  C   UNL     1      49.060   6.116  17.731  0.00  0.00    +0.000 C 
ATOM     17  O   UNL     1      49.987   7.848  16.376  0.00  0.00    +0.000 OA
ENDBRANCH   4  13
ENDBRANCH   1   8
BRANCH   1  18
ATOM     18  C   UNL     1      43.871   4.917  10.721  0.00  0.00    +0.000 C 
BRANCH  18  19
ATOM     19  N   UNL     1      43.836   3.533  10.222  0.00  0.00    +0.000 N 
ATOM     20  H   UNL     1      42.909   3.257   9.903  0.00  0.00    +0.000 HD
BRANCH  19  21
ATOM     21  C   UNL     1      44.813   3.176   9.277  0.00  0.00    +0.000 A 
ATOM     22  C   UNL     1      45.222   1.857   9.054  0.00  0.00    +0.000 A 
ATOM     23  C   UNL     1      46.153   1.557   8.062  0.00  0.00    +0.000 A 
ATOM     24  C   UNL     1      46.639   2.594   7.285  0.00  0.00    +0.000 A 
ATOM     25  N   UNL     1      46.247   3.891   7.420  0.00  0.00    +0.000 NA
ATOM     26  C   UNL     1      45.335   4.131   8.396  0.00  0.00    +0.000 A 
BRANCH  24  27
ATOM     27  C   UNL     1      47.643   2.304   6.215  0.00  0.00    +0.000 C 
ATOM     28  N   UNL     1      47.635   3.171   5.154  0.00  0.00    +0.000 N 
ATOM     29  O   UNL     1      48.422   1.362   6.273  0.00  0.00    +0.000 OA
ATOM     30  H   UNL     1      46.962   3.928   5.140  0.00  0.00    +0.000 HD
ATOM     31  H   UNL     1      48.275   3.029   4.389  0.00  0.00    +0.000 HD
ENDBRANCH  24  27
ENDBRANCH  19  21
ENDBRANCH  18  19
ENDBRANCH   1  18
TORSDOF 6
ENDMDL
MODEL 3
REMARK VINA RESULT:    -7.453      1.301      2.473
REMARK INTER + INTRA:         -11.160
REMARK INTER:                 -10.023
REMARK INTRA:                  -1.137
REMARK UNBOUND:                -1.092
REMARK  Name = 
REMARK  10 active torsions:
REMARK  status: ('A' for Active; 'I' for Inactive)
REMARK    1  A    between atoms: C_1  and  C_2
REMARK    2  A    between atoms: N_4  and  C_5
REMARK    3  A    between atoms: C_9  and  C_10
REMARK    4  A    between atoms: C_10  and  C_11
REMARK    5  A    between atoms: C_10  and  C_12
REMARK    6  A    between atoms: C_10  and  C_13
REMARK    7  A    between atoms: C_13  and  N_14
REMARK    8  A    between atoms: N_14  and  C_15
REMARK    9  A    between atoms: C_18  and  C_19
REMARK   10  A    between atoms: C_26  and  C_27
REMARK                            x       y       z     vdW  Elec       q    Type
REMARK                         _______ _______ _______ _____ _____    ______ ____
ROOT
ATOM      1  C   UNL     1      43.668   5.043  12.196  0.00  0.00    +0.000 C 
ATOM      2  C   UNL     1      43.233   4.686  13.639  0.00  0.00    +0.000 C 
ATOM      3  C   UNL     1      42.415   5.227  11.313  0.00  0.00    +0.000 C 
ENDROOT
BRANCH   1   8
ATOM      4  C   UNL     1      46.500   7.573  13.000  0.00  0.00    +0.000 A 
ATOM      5  C   UNL     1      46.088   8.672  12.239  0.00  0.00    +0.000 A 
ATOM      6  C   UNL     1      44.899   8.653  11.513  0.00  0.00    +0.000 A 
ATOM      7  C   UNL     1      44.096   7.513  11.509  0.00  0.00    +0.000 A 
ATOM      8  C   UNL     1      44.464   6.373  12.239  0.00  0.00    +0.000 A 
ATOM      9  C   UNL     1      45.650   6.455  13.003  0.00  0.00    +0.000 A 
BRANCH   4  13
ATOM     10  C   UNL     1      49.872   8.353  11.515  0.00  0.00    +0.000 C 
ATOM     11  C   UNL     1      50.039   7.754  12.910  0.00  0.00    +0.000 C 
ATOM     12  C   UNL     1      48.874   6.837  13.336  0.00  0.00    +0.000 C 
ATOM     13  N   UNL     1      47.683   7.608  13.711  0.00  0.00    +0.000 N 
ATOM     14  C   UNL     1      47.946   8.692  14.675  0.00  0.00    +0.000 C 
ATOM     15  C   UNL     1      49.126   9.567  14.191  0.00  0.00    +0.000 C 
ATOM     16  C   UNL     1      49.525  10.571  15.265  0.00  0.00    +0.000 C 
ATOM     17  O   UNL     1      50.294   8.779  13.891  0.00  0.00    +0.000 OA
ENDBRANCH   4  13
ENDBRANCH   1   8
BRANCH   1  18
ATOM     18  C   UNL     1      44.538   3.869  11.642  0.00  0.00    +0.000 C 
BRANCH  18  19
ATOM     19  N   UNL     1      43.973   3.202  10.459  0.00  0.00    +0.000 N 
ATOM     20  H   UNL     1      43.083   3.603  10.173  0.00  0.00    +0.000 HD
BRANCH  19  21
ATOM     21  C   UNL     1      44.827   3.047   9.352  0.00  0.00    +0.000 A 
ATOM     22  C   UNL     1      45.410   4.123   8.675  0.00  0.00    +0.000 A 
ATOM     23  C   UNL     1      46.294   3.906   7.620  0.00  0.00    +0.000 A 
ATOM     24  C   UNL     1      46.602   2.600   7.281  0.00  0.00    +0.000 A 
ATOM     25  N   UNL     1      46.104   1.511   7.930  0.00  0.00    +0.000 NA
ATOM     26  C   UNL     1      45.252   1.775   8.953  0.00  0.00    +0.000 A 
BRANCH  24  27
ATOM     27  C   UNL     1      47.544   2.336   6.150  0.00  0.00    +0.000 C 
ATOM     28  N   UNL     1      47.292   3.041   5.003  0.00  0.00    +0.000 N 
ATOM     29  O   UNL     1      48.477   1.549   6.232  0.00  0.00    +0.000 OA
ATOM     30  H   UNL     1      46.498   3.670   4.973  0.00  0.00    +0.000 HD
ATOM     31  H   UNL     1      47.878   2.904   4.194  0.00  0.00    +0.000 HD
ENDBRANCH  24  27
ENDBRANCH  19  21
ENDBRANCH  18  19
ENDBRANCH   1  18
TORSDOF 6
ENDMDL
MODEL 4
REMARK VINA RESULT:    -7.192      3.010      4.453
REMARK INTER + INTRA:         -10.807
REMARK INTER:                 -10.271
REMARK INTRA:                  -0.537
REMARK UNBOUND:                -1.092
REMARK  Name = 
REMARK  10 active torsions:
REMARK  status: ('A' for Active; 'I' for Inactive)
REMARK    1  A    between atoms: C_1  and  C_2
REMARK    2  A    between atoms: N_4  and  C_5
REMARK    3  A    between atoms: C_9  and  C_10
REMARK    4  A    between atoms: C_10  and  C_11
REMARK    5  A    between atoms: C_10  and  C_12
REMARK    6  A    between atoms: C_10  and  C_13
REMARK    7  A    between atoms: C_13  and  N_14
REMARK    8  A    between atoms: N_14  and  C_15
REMARK    9  A    between atoms: C_18  and  C_19
REMARK   10  A    between atoms: C_26  and  C_27
REMARK                            x       y       z     vdW  Elec       q    Type
REMARK                         _______ _______ _______ _____ _____    ______ ____
ROOT
ATOM      1  C   UNL     1      44.686   4.728  12.422  0.00  0.00    +0.000 C 
ATOM      2  C   UNL     1      43.434   4.683  13.333  0.00  0.00    +0.000 C 
ATOM      3  C   UNL     1      44.459   5.753  11.289  0.00  0.00    +0.000 C 
ENDROOT
BRANCH   1   8
ATOM      4  C   UNL     1      47.230   4.854  15.351  0.00  0.00    +0.000 A 
ATOM      5  C   UNL     1      48.166   5.761  14.842  0.00  0.00    +0.000 A 
ATOM      6  C   UNL     1      47.984   6.380  13.607  0.00  0.00    +0.000 A 
ATOM      7  C   UNL     1      46.864   6.087  12.831  0.00  0.00    +0.000 A 
ATOM      8  C   UNL     1      45.900   5.173  13.279  0.00  0.00    +0.000 A 
ATOM      9  C   UNL     1      46.096   4.608  14.560  0.00  0.00    +0.000 A 
BRANCH   4  13
ATOM     10  C   UNL     1      50.564   4.535  17.074  0.00  0.00    +0.000 C 
ATOM     11  C   UNL     1      49.540   3.616  17.738  0.00  0.00    +0.000 C 
ATOM     12  C   UNL     1      48.402   3.172  16.796  0.00  0.00    +0.000 C 
ATOM     13  N   UNL     1      47.427   4.247  16.575  0.00  0.00    +0.000 N 
ATOM     14  C   UNL     1      46.938   4.880  17.813  0.00  0.00    +0.000 C 
ATOM     15  C   UNL     1      48.127   5.294  18.711  0.00  0.00    +0.000 C 
ATOM     16  C   UNL     1      47.632   5.777  20.069  0.00  0.00    +0.000 C 
ATOM     17  O   UNL     1      49.028   4.196  18.953  0.00  0.00    +0.000 OA
ENDBRANCH   4  13
ENDBRANCH   1   8
BRANCH   1  18
ATOM     18  C   UNL     1      44.900   3.306  11.814  0.00  0.00    +0.000 C 
BRANCH  18  19
ATOM     19  N   UNL     1      44.153   3.059  10.571  0.00  0.00    +0.000 N 
ATOM     20  H   UNL     1      43.365   3.693  10.458  0.00  0.00    +0.000 HD
BRANCH  19  21
ATOM     21  C   UNL     1      44.904   2.984   9.385  0.00  0.00    +0.000 A 
ATOM     22  C   UNL     1      45.192   4.094   8.585  0.00  0.00    +0.000 A 
ATOM     23  C   UNL     1      45.991   3.968   7.451  0.00  0.00    +0.000 A 
ATOM     24  C   UNL     1      46.516   2.721   7.154  0.00  0.00    +0.000 A 
ATOM     25  N   UNL     1      46.311   1.612   7.917  0.00  0.00    +0.000 NA
ATOM     26  C   UNL     1      45.530   1.788   9.013  0.00  0.00    +0.000 A 
BRANCH  24  27
ATOM     27  C   UNL     1      47.373   2.554   5.940  0.00  0.00    +0.000 C 
ATOM     28  N   UNL     1      48.613   2.018   6.170  0.00  0.00    +0.000 N 
ATOM     29  O   UNL     1      47.004   2.869   4.817  0.00  0.00    +0.000 OA
ATOM     30  H   UNL     1      48.884   1.786   7.118  0.00  0.00    +0.000 HD
ATOM     31  H   UNL     1      49.251   1.889   5.400  0.00  0.00    +0.000 HD
ENDBRANCH  24  27
ENDBRANCH  19  21
ENDBRANCH  18  19
ENDBRANCH   1  18
TORSDOF 6
ENDMDL
MODEL 5
REMARK VINA RESULT:    -7.134      3.457      7.974
REMARK INTER + INTRA:         -10.729
REMARK INTER:                  -9.481
REMARK INTRA:                  -1.248
REMARK UNBOUND:                -1.092
REMARK  Name = 
REMARK  10 active torsions:
REMARK  status: ('A' for Active; 'I' for Inactive)
REMARK    1  A    between atoms: C_1  and  C_2
REMARK    2  A    between atoms: N_4  and  C_5
REMARK    3  A    between atoms: C_9  and  C_10
REMARK    4  A    between atoms: C_10  and  C_11
REMARK    5  A    between atoms: C_10  and  C_12
REMARK    6  A    between atoms: C_10  and  C_13
REMARK    7  A    between atoms: C_13  and  N_14
REMARK    8  A    between atoms: N_14  and  C_15
REMARK    9  A    between atoms: C_18  and  C_19
REMARK   10  A    between atoms: C_26  and  C_27
REMARK                            x       y       z     vdW  Elec       q    Type
REMARK                         _______ _______ _______ _____ _____    ______ ____
ROOT
ATOM      1  C   UNL     1      48.931   8.925  12.706  0.00  0.00    +0.000 C 
ATOM      2  C   UNL     1      49.697   9.410  11.450  0.00  0.00    +0.000 C 
ATOM      3  C   UNL     1      48.910  10.053  13.761  0.00  0.00    +0.000 C 
ENDROOT
BRANCH   1   8
ATOM      4  C   UNL     1      45.801   6.825  11.775  0.00  0.00    +0.000 A 
ATOM      5  C   UNL     1      44.826   7.827  11.719  0.00  0.00    +0.000 A 
ATOM      6  C   UNL     1      45.145   9.169  11.917  0.00  0.00    +0.000 A 
ATOM      7  C   UNL     1      46.456   9.544  12.205  0.00  0.00    +0.000 A 
ATOM      8  C   UNL     1      47.475   8.585  12.292  0.00  0.00    +0.000 A 
ATOM      9  C   UNL     1      47.118   7.243  12.031  0.00  0.00    +0.000 A 
BRANCH   4  13
ATOM     10  C   UNL     1      42.283   5.481  11.761  0.00  0.00    +0.000 C 
ATOM     11  C   UNL     1      43.284   4.331  11.864  0.00  0.00    +0.000 C 
ATOM     12  C   UNL     1      44.628   4.733  12.507  0.00  0.00    +0.000 C 
ATOM     13  N   UNL     1      45.467   5.500  11.579  0.00  0.00    +0.000 N 
ATOM     14  C   UNL     1      45.626   4.876  10.253  0.00  0.00    +0.000 C 
ATOM     15  C   UNL     1      44.245   4.493   9.671  0.00  0.00    +0.000 C 
ATOM     16  C   UNL     1      44.408   3.683   8.391  0.00  0.00    +0.000 C 
ATOM     17  O   UNL     1      43.476   3.691  10.588  0.00  0.00    +0.000 OA
ENDBRANCH   4  13
ENDBRANCH   1   8
BRANCH   1  18
ATOM     18  C   UNL     1      49.673   7.677  13.281  0.00  0.00    +0.000 C 
BRANCH  18  19
ATOM     19  N   UNL     1      49.851   7.697  14.741  0.00  0.00    +0.000 N 
ATOM     20  H   UNL     1      49.643   8.607  15.147  0.00  0.00    +0.000 HD
BRANCH  19  21
ATOM     21  C   UNL     1      49.222   6.672  15.470  0.00  0.00    +0.000 A 
ATOM     22  C   UNL     1      48.138   5.935  14.981  0.00  0.00    +0.000 A 
ATOM     23  C   UNL     1      47.593   4.891  15.726  0.00  0.00    +0.000 A 
ATOM     24  C   UNL     1      48.170   4.585  16.946  0.00  0.00    +0.000 A 
ATOM     25  N   UNL     1      49.253   5.233  17.455  0.00  0.00    +0.000 NA
ATOM     26  C   UNL     1      49.751   6.238  16.691  0.00  0.00    +0.000 A 
BRANCH  24  27
ATOM     27  C   UNL     1      47.603   3.473  17.770  0.00  0.00    +0.000 C 
ATOM     28  N   UNL     1      48.324   3.148  18.888  0.00  0.00    +0.000 N 
ATOM     29  O   UNL     1      46.569   2.888  17.475  0.00  0.00    +0.000 OA
ATOM     30  H   UNL     1      49.183   3.647  19.085  0.00  0.00    +0.000 HD
ATOM     31  H   UNL     1      48.009   2.399  19.484  0.00  0.00    +0.000 HD
ENDBRANCH  24  27
ENDBRANCH  19  21
ENDBRANCH  18  19
ENDBRANCH   1  18
TORSDOF 6
ENDMDL
MODEL 6
REMARK VINA RESULT:    -6.911      3.811      6.519
REMARK INTER + INTRA:         -10.427
REMARK INTER:                  -9.297
REMARK INTRA:                  -1.130
REMARK UNBOUND:                -1.092
REMARK  Name = 
REMARK  10 active torsions:
REMARK  status: ('A' for Active; 'I' for Inactive)
REMARK    1  A    between atoms: C_1  and  C_2
REMARK    2  A    between atoms: N_4  and  C_5
REMARK    3  A    between atoms: C_9  and  C_10
REMARK    4  A    between atoms: C_10  and  C_11
REMARK    5  A    between atoms: C_10  and  C_12
REMARK    6  A    between atoms: C_10  and  C_13
REMARK    7  A    between atoms: C_13  and  N_14
REMARK    8  A    between atoms: N_14  and  C_15
REMARK    9  A    between atoms: C_18  and  C_19
REMARK   10  A    between atoms: C_26  and  C_27
REMARK                            x       y       z     vdW  Elec       q    Type
REMARK                         _______ _______ _______ _____ _____    ______ ____
ROOT
ATOM      1  C   UNL     1      48.947   8.252  14.055  0.00  0.00    +0.000 C 
ATOM      2  C   UNL     1      48.467   9.630  13.535  0.00  0.00    +0.000 C 
ATOM      3  C   UNL     1      50.467   8.115  13.817  0.00  0.00    +0.000 C 
ENDROOT
BRANCH   1   8
ATOM      4  C   UNL     1      48.726   6.820  17.657  0.00  0.00    +0.000 A 
ATOM      5  C   UNL     1      48.350   7.965  18.367  0.00  0.00    +0.000 A 
ATOM      6  C   UNL     1      48.109   9.177  17.723  0.00  0.00    +0.000 A 
ATOM      7  C   UNL     1      48.266   9.283  16.342  0.00  0.00    +0.000 A 
ATOM      8  C   UNL     1      48.659   8.175  15.577  0.00  0.00    +0.000 A 
ATOM      9  C   UNL     1      48.840   6.953  16.263  0.00  0.00    +0.000 A 
BRANCH   4  13
ATOM     10  C   UNL     1      47.611   3.440  16.423  0.00  0.00    +0.000 C 
ATOM     11  C   UNL     1      48.047   3.348  17.884  0.00  0.00    +0.000 C 
ATOM     12  C   UNL     1      47.903   4.674  18.660  0.00  0.00    +0.000 C 
ATOM     13  N   UNL     1      48.963   5.627  18.310  0.00  0.00    +0.000 N 
ATOM     14  C   UNL     1      50.324   5.066  18.375  0.00  0.00    +0.000 C 
ATOM     15  C   UNL     1      50.396   3.739  17.585  0.00  0.00    +0.000 C 
ATOM     16  C   UNL     1      51.742   3.059  17.800  0.00  0.00    +0.000 C 
ATOM     17  O   UNL     1      49.378   2.808  17.999  0.00  0.00    +0.000 OA
ENDBRANCH   4  13
ENDBRANCH   1   8
BRANCH   1  18
ATOM     18  C   UNL     1      48.185   7.139  13.267  0.00  0.00    +0.000 C 
BRANCH  18  19
ATOM     19  N   UNL     1      46.726   7.157  13.451  0.00  0.00    +0.000 N 
ATOM     20  H   UNL     1      46.316   8.062  13.229  0.00  0.00    +0.000 HD
BRANCH  19  21
ATOM     21  C   UNL     1      45.999   6.120  12.841  0.00  0.00    +0.000 A 
ATOM     22  C   UNL     1      45.642   6.122  11.488  0.00  0.00    +0.000 A 
ATOM     23  C   UNL     1      44.971   5.038  10.926  0.00  0.00    +0.000 A 
ATOM     24  C   UNL     1      44.694   3.949  11.734  0.00  0.00    +0.000 A 
ATOM     25  N   UNL     1      45.054   3.866  13.044  0.00  0.00    +0.000 NA
ATOM     26  C   UNL     1      45.709   4.944  13.544  0.00  0.00    +0.000 A 
BRANCH  24  27
ATOM     27  C   UNL     1      43.970   2.773  11.160  0.00  0.00    +0.000 C 
ATOM     28  N   UNL     1      44.520   2.248  10.020  0.00  0.00    +0.000 N 
ATOM     29  O   UNL     1      42.958   2.304  11.663  0.00  0.00    +0.000 OA
ATOM     30  H   UNL     1      45.350   2.677   9.628  0.00  0.00    +0.000 HD
ATOM     31  H   UNL     1      44.079   1.462   9.569  0.00  0.00    +0.000 HD
ENDBRANCH  24  27
ENDBRANCH  19  21
ENDBRANCH  18  19
ENDBRANCH   1  18
TORSDOF 6
ENDMDL
MODEL 7
REMARK VINA RESULT:    -6.710      3.470      6.131
REMARK INTER + INTRA:         -10.156
REMARK INTER:                  -8.911
REMARK INTRA:                  -1.246
REMARK UNBOUND:                -1.092
REMARK  Name = 
REMARK  10 active torsions:
REMARK  status: ('A' for Active; 'I' for Inactive)
REMARK    1  A    between atoms: C_1  and  C_2
REMARK    2  A    between atoms: N_4  and  C_5
REMARK    3  A    between atoms: C_9  and  C_10
REMARK    4  A    between atoms: C_10  and  C_11
REMARK    5  A    between atoms: C_10  and  C_12
REMARK    6  A    between atoms: C_10  and  C_13
REMARK    7  A    between atoms: C_13  and  N_14
REMARK    8  A    between atoms: N_14  and  C_15
REMARK    9  A    between atoms: C_18  and  C_19
REMARK   10  A    between atoms: C_26  and  C_27
REMARK                            x       y       z     vdW  Elec       q    Type
REMARK                         _______ _______ _______ _____ _____    ______ ____
ROOT
ATOM      1  C   UNL     1      48.501   8.472  13.120  0.00  0.00    +0.000 C 
ATOM      2  C   UNL     1      48.420  10.019  13.112  0.00  0.00    +0.000 C 
ATOM      3  C   UNL     1      48.958   7.975  11.731  0.00  0.00    +0.000 C 
ENDROOT
BRANCH   1   8
ATOM      4  C   UNL     1      50.056   6.616  16.154  0.00  0.00    +0.000 A 
ATOM      5  C   UNL     1      51.385   7.041  16.063  0.00  0.00    +0.000 A 
ATOM      6  C   UNL     1      51.796   7.951  15.090  0.00  0.00    +0.000 A 
ATOM      7  C   UNL     1      50.883   8.442  14.158  0.00  0.00    +0.000 A 
ATOM      8  C   UNL     1      49.540   8.040  14.187  0.00  0.00    +0.000 A 
ATOM      9  C   UNL     1      49.156   7.158  15.222  0.00  0.00    +0.000 A 
BRANCH   4  13
ATOM     10  C   UNL     1      47.224   4.161  15.782  0.00  0.00    +0.000 C 
ATOM     11  C   UNL     1      47.648   4.254  17.246  0.00  0.00    +0.000 C 
ATOM     12  C   UNL     1      48.290   5.605  17.622  0.00  0.00    +0.000 C 
ATOM     13  N   UNL     1      49.667   5.712  17.123  0.00  0.00    +0.000 N 
ATOM     14  C   UNL     1      50.519   4.557  17.455  0.00  0.00    +0.000 C 
ATOM     15  C   UNL     1      49.815   3.238  17.059  0.00  0.00    +0.000 C 
ATOM     16  C   UNL     1      50.602   2.036  17.566  0.00  0.00    +0.000 C 
ATOM     17  O   UNL     1      48.490   3.145  17.618  0.00  0.00    +0.000 OA
ENDBRANCH   4  13
ENDBRANCH   1   8
BRANCH   1  18
ATOM     18  C   UNL     1      47.079   7.910  13.441  0.00  0.00    +0.000 C 
BRANCH  18  19
ATOM     19  N   UNL     1      46.198   7.783  12.269  0.00  0.00    +0.000 N 
ATOM     20  H   UNL     1      46.613   8.174  11.426  0.00  0.00    +0.000 HD
BRANCH  19  21
ATOM     21  C   UNL     1      45.664   6.507  12.014  0.00  0.00    +0.000 A 
ATOM     22  C   UNL     1      45.193   5.655  13.018  0.00  0.00    +0.000 A 
ATOM     23  C   UNL     1      44.620   4.426  12.699  0.00  0.00    +0.000 A 
ATOM     24  C   UNL     1      44.503   4.085  11.363  0.00  0.00    +0.000 A 
ATOM     25  N   UNL     1      44.900   4.888  10.338  0.00  0.00    +0.000 NA
ATOM     26  C   UNL     1      45.446   6.077  10.699  0.00  0.00    +0.000 A 
BRANCH  24  27
ATOM     27  C   UNL     1      43.896   2.770  10.990  0.00  0.00    +0.000 C 
ATOM     28  N   UNL     1      44.460   2.153   9.904  0.00  0.00    +0.000 N 
ATOM     29  O   UNL     1      42.963   2.270  11.604  0.00  0.00    +0.000 OA
ATOM     30  H   UNL     1      45.221   2.610   9.415  0.00  0.00    +0.000 HD
ATOM     31  H   UNL     1      44.094   1.269   9.587  0.00  0.00    +0.000 HD
ENDBRANCH  24  27
ENDBRANCH  19  21
ENDBRANCH  18  19
ENDBRANCH   1  18
TORSDOF 6
ENDMDL
MODEL 8
REMARK VINA RESULT:    -6.607      3.498      6.213
REMARK INTER + INTRA:         -10.016
REMARK INTER:                  -8.803
REMARK INTRA:                  -1.213
REMARK UNBOUND:                -1.092
REMARK  Name = 
REMARK  10 active torsions:
REMARK  status: ('A' for Active; 'I' for Inactive)
REMARK    1  A    between atoms: C_1  and  C_2
REMARK    2  A    between atoms: N_4  and  C_5
REMARK    3  A    between atoms: C_9  and  C_10
REMARK    4  A    between atoms: C_10  and  C_11
REMARK    5  A    between atoms: C_10  and  C_12
REMARK    6  A    between atoms: C_10  and  C_13
REMARK    7  A    between atoms: C_13  and  N_14
REMARK    8  A    between atoms: N_14  and  C_15
REMARK    9  A    between atoms: C_18  and  C_19
REMARK   10  A    between atoms: C_26  and  C_27
REMARK                            x       y       z     vdW  Elec       q    Type
REMARK                         _______ _______ _______ _____ _____    ______ ____
ROOT
ATOM      1  C   UNL     1      48.637   8.395  12.650  0.00  0.00    +0.000 C 
ATOM      2  C   UNL     1      49.355   9.570  11.941  0.00  0.00    +0.000 C 
ATOM      3  C   UNL     1      49.312   7.065  12.248  0.00  0.00    +0.000 C 
ENDROOT
BRANCH   1   8
ATOM      4  C   UNL     1      49.159   7.554  16.403  0.00  0.00    +0.000 A 
ATOM      5  C   UNL     1      49.203   8.840  16.952  0.00  0.00    +0.000 A 
ATOM      6  C   UNL     1      49.016   9.976  16.167  0.00  0.00    +0.000 A 
ATOM      7  C   UNL     1      48.804   9.854  14.794  0.00  0.00    +0.000 A 
ATOM      8  C   UNL     1      48.768   8.593  14.182  0.00  0.00    +0.000 A 
ATOM      9  C   UNL     1      48.909   7.466  15.024  0.00  0.00    +0.000 A 
BRANCH   4  13
ATOM     10  C   UNL     1      47.424   6.939  19.689  0.00  0.00    +0.000 C 
ATOM     11  C   UNL     1      48.598   5.975  19.527  0.00  0.00    +0.000 C 
ATOM     12  C   UNL     1      49.720   6.511  18.614  0.00  0.00    +0.000 C 
ATOM     13  N   UNL     1      49.349   6.439  17.196  0.00  0.00    +0.000 N 
ATOM     14  C   UNL     1      48.840   5.123  16.772  0.00  0.00    +0.000 C 
ATOM     15  C   UNL     1      47.726   4.644  17.731  0.00  0.00    +0.000 C 
ATOM     16  C   UNL     1      47.325   3.209  17.413  0.00  0.00    +0.000 C 
ATOM     17  O   UNL     1      48.150   4.672  19.108  0.00  0.00    +0.000 OA
ENDBRANCH   4  13
ENDBRANCH   1   8
BRANCH   1  18
ATOM     18  C   UNL     1      47.143   8.389  12.195  0.00  0.00    +0.000 C 
BRANCH  18  19
ATOM     19  N   UNL     1      46.245   7.623  13.072  0.00  0.00    +0.000 N 
ATOM     20  H   UNL     1      45.550   8.211  13.528  0.00  0.00    +0.000 HD
BRANCH  19  21
ATOM     21  C   UNL     1      45.641   6.480  12.518  0.00  0.00    +0.000 A 
ATOM     22  C   UNL     1      45.734   6.140  11.164  0.00  0.00    +0.000 A 
ATOM     23  C   UNL     1      45.163   4.964  10.684  0.00  0.00    +0.000 A 
ATOM     24  C   UNL     1      44.527   4.128  11.585  0.00  0.00    +0.000 A 
ATOM     25  N   UNL     1      44.441   4.379  12.920  0.00  0.00    +0.000 NA
ATOM     26  C   UNL     1      45.017   5.534  13.340  0.00  0.00    +0.000 A 
BRANCH  24  27
ATOM     27  C   UNL     1      43.900   2.861  11.098  0.00  0.00    +0.000 C 
ATOM     28  N   UNL     1      44.498   2.298  10.001  0.00  0.00    +0.000 N 
ATOM     29  O   UNL     1      42.923   2.354  11.632  0.00  0.00    +0.000 OA
ATOM     30  H   UNL     1      45.295   2.760   9.580  0.00  0.00    +0.000 HD
ATOM     31  H   UNL     1      44.121   1.450   9.608  0.00  0.00    +0.000 HD
ENDBRANCH  24  27
ENDBRANCH  19  21
ENDBRANCH  18  19
ENDBRANCH   1  18
TORSDOF 6
ENDMDL
MODEL 9
REMARK VINA RESULT:    -6.331      3.141      5.289
REMARK INTER + INTRA:          -9.644
REMARK INTER:                  -8.241
REMARK INTRA:                  -1.403
REMARK UNBOUND:                -1.092
REMARK  Name = 
REMARK  10 active torsions:
REMARK  status: ('A' for Active; 'I' for Inactive)
REMARK    1  A    between atoms: C_1  and  C_2
REMARK    2  A    between atoms: N_4  and  C_5
REMARK    3  A    between atoms: C_9  and  C_10
REMARK    4  A    between atoms: C_10  and  C_11
REMARK    5  A    between atoms: C_10  and  C_12
REMARK    6  A    between atoms: C_10  and  C_13
REMARK    7  A    between atoms: C_13  and  N_14
REMARK    8  A    between atoms: N_14  and  C_15
REMARK    9  A    between atoms: C_18  and  C_19
REMARK   10  A    between atoms: C_26  and  C_27
REMARK                            x       y       z     vdW  Elec       q    Type
REMARK                         _______ _______ _______ _____ _____    ______ ____
ROOT
ATOM      1  C   UNL     1      48.350   4.346  17.109  0.00  0.00    +0.000 C 
ATOM      2  C   UNL     1      49.003   2.942  17.058  0.00  0.00    +0.000 C 
ATOM      3  C   UNL     1      47.941   4.668  18.563  0.00  0.00    +0.000 C 
ENDROOT
BRANCH   1   8
ATOM      4  C   UNL     1      49.825   7.515  15.420  0.00  0.00    +0.000 A 
ATOM      5  C   UNL     1      51.154   7.442  15.850  0.00  0.00    +0.000 A 
ATOM      6  C   UNL     1      51.613   6.377  16.624  0.00  0.00    +0.000 A 
ATOM      7  C   UNL     1      50.741   5.363  17.012  0.00  0.00    +0.000 A 
ATOM      8  C   UNL     1      49.392   5.389  16.627  0.00  0.00    +0.000 A 
ATOM      9  C   UNL     1      48.981   6.458  15.800  0.00  0.00    +0.000 A 
BRANCH   4  13
ATOM     10  C   UNL     1      50.005   7.675  11.662  0.00  0.00    +0.000 C 
ATOM     11  C   UNL     1      49.706   9.060  12.232  0.00  0.00    +0.000 C 
ATOM     12  C   UNL     1      50.226   9.265  13.670  0.00  0.00    +0.000 C 
ATOM     13  N   UNL     1      49.385   8.578  14.657  0.00  0.00    +0.000 N 
ATOM     14  C   UNL     1      47.945   8.857  14.520  0.00  0.00    +0.000 C 
ATOM     15  C   UNL     1      47.492   8.639  13.058  0.00  0.00    +0.000 C 
ATOM     16  C   UNL     1      46.053   9.102  12.866  0.00  0.00    +0.000 C 
ATOM     17  O   UNL     1      48.305   9.377  12.125  0.00  0.00    +0.000 OA
ENDBRANCH   4  13
ENDBRANCH   1   8
BRANCH   1  18
ATOM     18  C   UNL     1      47.085   4.331  16.194  0.00  0.00    +0.000 C 
BRANCH  18  19
ATOM     19  N   UNL     1      47.295   3.706  14.879  0.00  0.00    +0.000 N 
ATOM     20  H   UNL     1      47.392   2.694  14.939  0.00  0.00    +0.000 HD
BRANCH  19  21
ATOM     21  C   UNL     1      46.392   4.058  13.859  0.00  0.00    +0.000 A 
ATOM     22  C   UNL     1      45.982   5.372  13.614  0.00  0.00    +0.000 A 
ATOM     23  C   UNL     1      45.131   5.667  12.552  0.00  0.00    +0.000 A 
ATOM     24  C   UNL     1      44.727   4.630  11.729  0.00  0.00    +0.000 A 
ATOM     25  N   UNL     1      45.126   3.338  11.886  0.00  0.00    +0.000 NA
ATOM     26  C   UNL     1      45.958   3.103  12.932  0.00  0.00    +0.000 A 
BRANCH  24  27
ATOM     27  C   UNL     1      43.809   4.916  10.583  0.00  0.00    +0.000 C 
ATOM     28  N   UNL     1      44.266   4.518   9.355  0.00  0.00    +0.000 N 
ATOM     29  O   UNL     1      42.724   5.465  10.722  0.00  0.00    +0.000 OA
ATOM     30  H   UNL     1      45.178   4.081   9.284  0.00  0.00    +0.000 HD
ATOM     31  H   UNL     1      43.707   4.690   8.535  0.00  0.00    +0.000 HD
ENDBRANCH  24  27
ENDBRANCH  19  21
ENDBRANCH  18  19
ENDBRANCH   1  18
TORSDOF 6
ENDMDL
