MODEL 1
REMARK VINA RESULT:    -7.982      0.000      0.000
REMARK INTER + INTRA:          -9.797
REMARK INTER:                  -9.382
REMARK INTRA:                  -0.415
REMARK UNBOUND:                -0.415
REMARK  Name = 
REMARK  3 active torsions:
REMARK  status: ('A' for Active; 'I' for Inactive)
REMARK    1  A    between atoms: C_2  and  C_4
REMARK    2  A    between atoms: N_8  and  C_9
REMARK    3  A    between atoms: C_9  and  C_10
REMARK                            x       y       z     vdW  Elec       q    Type
REMARK                         _______ _______ _______ _____ _____    ______ ____
ROOT
ATOM      1  C   UNL     1      46.631   4.710  13.675  0.00  0.00    +0.000 A 
ATOM      2  C   UNL     1      46.919   5.849  12.932  0.00  0.00    +0.000 A 
ATOM      3  C   UNL     1      46.247   6.056  11.726  0.00  0.00    +0.000 A 
ATOM      4  C   UNL     1      45.335   5.110  11.259  0.00  0.00    +0.000 A 
ATOM      5  N   UNL     1      44.798   5.316   9.987  0.00  0.00    +0.000 N 
ATOM      6  N   UNL     1      45.052   3.999  11.969  0.00  0.00    +0.000 NA
ATOM      7  C   UNL     1      45.702   3.821  13.155  0.00  0.00    +0.000 A 
ATOM      8  H   UNL     1      44.265   6.178   9.939  0.00  0.00    +0.000 HD
ENDROOT
BRANCH   1  10
ATOM      9  N   UNL     1      47.607   5.460  15.771  0.00  0.00    +0.000 N 
ATOM     10  C   UNL     1      47.289   4.403  14.959  0.00  0.00    +0.000 C 
ATOM     11  O   UNL     1      47.511   3.251  15.312  0.00  0.00    +0.000 OA
ATOM     12  H   UNL     1      47.959   5.231  16.691  0.00  0.00    +0.000 HD
ATOM     13  H   UNL     1      47.228   6.388  15.632  0.00  0.00    +0.000 HD
ENDBRANCH   1  10
BRANCH   5  14
ATOM     14  C   UNL     1      44.145   4.184   9.355  0.00  0.00    +0.000 C 
BRANCH  14  15
ATOM     15  C   UNL     1      45.193   3.402   8.587  0.00  0.00    +0.000 A 
ATOM     16  C   UNL     1      45.349   2.021   8.793  0.00  0.00    +0.000 A 
ATOM     17  C   UNL     1      46.326   1.300   8.095  0.00  0.00    +0.000 A 
ATOM     18  C   UNL     1      47.155   1.965   7.201  0.00  0.00    +0.000 A 
ATOM     19  F   UNL     1      48.089   1.280   6.529  0.00  0.00    +0.000 F 
ATOM     20  C   UNL     1      47.030   3.335   6.996  0.00  0.00    +0.000 A 
ATOM     21  C   UNL     1      46.055   4.053   7.687  0.00  0.00    +0.000 A 
ENDBRANCH  14  15
ENDBRANCH   5  14
TORSDOF 3
ENDMDL
MODEL 2
REMARK VINA RESULT:    -7.932      3.547      6.429
REMARK INTER + INTRA:          -9.738
REMARK INTER:                  -9.340
REMARK INTRA:                  -0.398
REMARK UNBOUND:                -0.415
REMARK  Name = 
REMARK  3 active torsions:
REMARK  status: ('A' for Active; 'I' for Inactive)
REMARK    1  A    between atoms: C_2  and  C_4
REMARK    2  A    between atoms: N_8  and  C_9
REMARK    3  A    between atoms: C_9  and  C_10
REMARK                            x       y       z     vdW  Elec       q    Type
REMARK                         _______ _______ _______ _____ _____    ______ ____
ROOT
ATOM      1  C   UNL     1      46.481   2.602   7.440  0.00  0.00    +0.000 A 
ATOM      2  C   UNL     1      45.927   1.646   8.283  0.00  0.00    +0.000 A 
ATOM      3  C   UNL     1      45.012   2.052   9.256  0.00  0.00    +0.000 A 
ATOM      4  C   UNL     1      44.696   3.404   9.402  0.00  0.00    +0.000 A 
ATOM      5  N   UNL     1      43.877   3.754  10.476  0.00  0.00    +0.000 N 
ATOM      6  N   UNL     1      45.233   4.340   8.593  0.00  0.00    +0.000 NA
ATOM      7  C   UNL     1      46.110   3.924   7.634  0.00  0.00    +0.000 A 
ATOM      8  H   UNL     1      42.963   3.321  10.408  0.00  0.00    +0.000 HD
ENDROOT
BRANCH   1  10
ATOM      9  N   UNL     1      47.458   3.057   5.262  0.00  0.00    +0.000 N 
ATOM     10  C   UNL     1      47.456   2.271   6.384  0.00  0.00    +0.000 C 
ATOM     11  O   UNL     1      48.262   1.357   6.513  0.00  0.00    +0.000 OA
ATOM     12  H   UNL     1      48.199   2.886   4.594  0.00  0.00    +0.000 HD
ATOM     13  H   UNL     1      46.988   3.952   5.221  0.00  0.00    +0.000 HD
ENDBRANCH   1  10
BRANCH   5  14
ATOM     14  C   UNL     1      43.837   5.158  10.846  0.00  0.00    +0.000 C 
BRANCH  14  15
ATOM     15  C   UNL     1      45.005   5.434  11.775  0.00  0.00    +0.000 A 
ATOM     16  C   UNL     1      45.949   6.427  11.461  0.00  0.00    +0.000 A 
ATOM     17  C   UNL     1      47.035   6.675  12.309  0.00  0.00    +0.000 A 
ATOM     18  C   UNL     1      47.183   5.918  13.464  0.00  0.00    +0.000 A 
ATOM     19  F   UNL     1      48.219   6.152  14.280  0.00  0.00    +0.000 F 
ATOM     20  C   UNL     1      46.272   4.918  13.784  0.00  0.00    +0.000 A 
ATOM     21  C   UNL     1      45.187   4.674  12.942  0.00  0.00    +0.000 A 
ENDBRANCH  14  15
ENDBRANCH   5  14
TORSDOF 3
ENDMDL
MODEL 3
REMARK VINA RESULT:    -7.733      2.164      2.860
REMARK INTER + INTRA:          -9.504
REMARK INTER:                  -9.263
REMARK INTRA:                  -0.241
REMARK UNBOUND:                -0.415
REMARK  Name = 
REMARK  3 active torsions:
REMARK  status: ('A' for Active; 'I' for Inactive)
REMARK    1  A    between atoms: C_2  and  C_4
REMARK    2  A    between atoms: N_8  and  C_9
REMARK    3  A    between atoms: C_9  and  C_10
REMARK                            x       y       z     vdW  Elec       q    Type
REMARK                         _______ _______ _______ _____ _____    ______ ____
ROOT
ATOM      1  C   UNL     1      45.561   6.744  12.404  0.00  0.00    +0.000 A 
ATOM      2  C   UNL     1      45.724   5.631  13.222  0.00  0.00    +0.000 A 
ATOM      3  C   UNL     1      45.595   4.359  12.663  0.00  0.00    +0.000 A 
ATOM      4  C   UNL     1      45.264   4.213  11.315  0.00  0.00    +0.000 A 
ATOM      5  N   UNL     1      45.022   2.918  10.855  0.00  0.00    +0.000 N 
ATOM      6  N   UNL     1      45.098   5.286  10.515  0.00  0.00    +0.000 NA
ATOM      7  C   UNL     1      45.248   6.523  11.072  0.00  0.00    +0.000 A 
ATOM      8  H   UNL     1      45.842   2.328  10.945  0.00  0.00    +0.000 HD
ENDROOT
BRANCH   1  10
ATOM      9  N   UNL     1      44.684   9.005  12.555  0.00  0.00    +0.000 N 
ATOM     10  C   UNL     1      45.677   8.128  12.902  0.00  0.00    +0.000 C 
ATOM     11  O   UNL     1      46.600   8.478  13.628  0.00  0.00    +0.000 OA
ATOM     12  H   UNL     1      44.720   9.919  12.988  0.00  0.00    +0.000 HD
ATOM     13  H   UNL     1      43.798   8.703  12.171  0.00  0.00    +0.000 HD
ENDBRANCH   1  10
BRANCH   5  14
ATOM     14  C   UNL     1      44.340   2.788   9.580  0.00  0.00    +0.000 C 
BRANCH  14  15
ATOM     15  C   UNL     1      45.387   2.559   8.505  0.00  0.00    +0.000 A 
ATOM     16  C   UNL     1      45.709   3.578   7.593  0.00  0.00    +0.000 A 
ATOM     17  C   UNL     1      46.664   3.365   6.591  0.00  0.00    +0.000 A 
ATOM     18  C   UNL     1      47.286   2.126   6.496  0.00  0.00    +0.000 A 
ATOM     19  F   UNL     1      48.202   1.918   5.542  0.00  0.00    +0.000 F 
ATOM     20  C   UNL     1      46.969   1.098   7.377  0.00  0.00    +0.000 A 
ATOM     21  C   UNL     1      46.021   1.312   8.377  0.00  0.00    +0.000 A 
ENDBRANCH  14  15
ENDBRANCH   5  14
TORSDOF 3
ENDMDL
MODEL 4
REMARK VINA RESULT:    -6.461      3.965      7.385
REMARK INTER + INTRA:          -8.010
REMARK INTER:                  -7.701
REMARK INTRA:                  -0.309
REMARK UNBOUND:                -0.415
REMARK  Name = 
REMARK  3 active torsions:
REMARK  status: ('A' for Active; 'I' for Inactive)
REMARK    1  A    between atoms: C_2  and  C_4
REMARK    2  A    between atoms: N_8  and  C_9
REMARK    3  A    between atoms: C_9  and  C_10
REMARK                            x       y       z     vdW  Elec       q    Type
REMARK                         _______ _______ _______ _____ _____    ______ ____
ROOT
ATOM      1  C   UNL     1      45.209   4.322  11.544  0.00  0.00    +0.000 A 
ATOM      2  C   UNL     1      45.690   5.597  11.818  0.00  0.00    +0.000 A 
ATOM      3  C   UNL     1      46.397   5.812  13.002  0.00  0.00    +0.000 A 
ATOM      4  C   UNL     1      46.576   4.770  13.912  0.00  0.00    +0.000 A 
ATOM      5  N   UNL     1      47.176   5.085  15.132  0.00  0.00    +0.000 N 
ATOM      6  N   UNL     1      46.107   3.530  13.659  0.00  0.00    +0.000 NA
ATOM      7  C   UNL     1      45.437   3.332  12.487  0.00  0.00    +0.000 A 
ATOM      8  H   UNL     1      48.120   5.432  15.007  0.00  0.00    +0.000 HD
ENDROOT
BRANCH   1  10
ATOM      9  N   UNL     1      44.631   4.812   9.235  0.00  0.00    +0.000 N 
ATOM     10  C   UNL     1      44.450   3.997  10.321  0.00  0.00    +0.000 C 
ATOM     11  O   UNL     1      43.717   3.018  10.257  0.00  0.00    +0.000 OA
ATOM     12  H   UNL     1      44.189   4.518   8.373  0.00  0.00    +0.000 HD
ATOM     13  H   UNL     1      45.396   5.471   9.168  0.00  0.00    +0.000 HD
ENDBRANCH   1  10
BRANCH   5  14
ATOM     14  C   UNL     1      47.042   4.115  16.204  0.00  0.00    +0.000 C 
BRANCH  14  15
ATOM     15  C   UNL     1      48.434   3.732  16.671  0.00  0.00    +0.000 A 
ATOM     16  C   UNL     1      48.866   2.396  16.614  0.00  0.00    +0.000 A 
ATOM     17  C   UNL     1      50.144   2.038  17.058  0.00  0.00    +0.000 A 
ATOM     18  C   UNL     1      50.986   3.017  17.572  0.00  0.00    +0.000 A 
ATOM     19  F   UNL     1      52.211   2.681  17.996  0.00  0.00    +0.000 F 
ATOM     20  C   UNL     1      50.572   4.342  17.655  0.00  0.00    +0.000 A 
ATOM     21  C   UNL     1      49.300   4.700  17.208  0.00  0.00    +0.000 A 
ENDBRANCH  14  15
ENDBRANCH   5  14
TORSDOF 3
ENDMDL
MODEL 5
REMARK VINA RESULT:    -5.983      3.083      5.007
REMARK INTER + INTRA:          -7.447
REMARK INTER:                  -7.176
REMARK INTRA:                  -0.271
REMARK UNBOUND:                -0.415
REMARK  Name = 
REMARK  3 active torsions:
REMARK  status: ('A' for Active; 'I' for Inactive)
REMARK    1  A    between atoms: C_2  and  C_4
REMARK    2  A    between atoms: N_8  and  C_9
REMARK    3  A    between atoms: C_9  and  C_10
REMARK                            x       y       z     vdW  Elec       q    Type
REMARK                         _______ _______ _______ _____ _____    ______ ____
ROOT
ATOM      1  C   UNL     1      48.626   4.410  18.347  0.00  0.00    +0.000 A 
ATOM      2  C   UNL     1      47.837   3.300  18.068  0.00  0.00    +0.000 A 
ATOM      3  C   UNL     1      47.271   3.175  16.798  0.00  0.00    +0.000 A 
ATOM      4  C   UNL     1      47.463   4.174  15.843  0.00  0.00    +0.000 A 
ATOM      5  N   UNL     1      46.763   4.049  14.641  0.00  0.00    +0.000 N 
ATOM      6  N   UNL     1      48.222   5.258  16.105  0.00  0.00    +0.000 NA
ATOM      7  C   UNL     1      48.784   5.355  17.344  0.00  0.00    +0.000 A 
ATOM      8  H   UNL     1      47.028   3.210  14.138  0.00  0.00    +0.000 HD
ENDROOT
BRANCH   1  10
ATOM      9  N   UNL     1      48.671   4.055  20.750  0.00  0.00    +0.000 N 
ATOM     10  C   UNL     1      49.264   4.631  19.658  0.00  0.00    +0.000 C 
ATOM     11  O   UNL     1      50.304   5.269  19.771  0.00  0.00    +0.000 OA
ATOM     12  H   UNL     1      49.175   4.124  21.625  0.00  0.00    +0.000 HD
ATOM     13  H   UNL     1      47.966   3.333  20.672  0.00  0.00    +0.000 HD
ENDBRANCH   1  10
BRANCH   5  14
ATOM     14  C   UNL     1      46.671   5.233  13.805  0.00  0.00    +0.000 C 
BRANCH  14  15
ATOM     15  C   UNL     1      45.961   4.850  12.521  0.00  0.00    +0.000 A 
ATOM     16  C   UNL     1      45.353   3.590  12.388  0.00  0.00    +0.000 A 
ATOM     17  C   UNL     1      44.709   3.229  11.198  0.00  0.00    +0.000 A 
ATOM     18  C   UNL     1      44.686   4.125  10.137  0.00  0.00    +0.000 A 
ATOM     19  F   UNL     1      44.069   3.786   8.998  0.00  0.00    +0.000 F 
ATOM     20  C   UNL     1      45.297   5.370  10.240  0.00  0.00    +0.000 A 
ATOM     21  C   UNL     1      45.935   5.732  11.427  0.00  0.00    +0.000 A 
ENDBRANCH  14  15
ENDBRANCH   5  14
TORSDOF 3
ENDMDL
MODEL 6
REMARK VINA RESULT:    -5.930      2.292      2.750
REMARK INTER + INTRA:          -7.385
REMARK INTER:                  -7.150
REMARK INTRA:                  -0.235
REMARK UNBOUND:                -0.415
REMARK  Name = 
REMARK  3 active torsions:
REMARK  status: ('A' for Active; 'I' for Inactive)
REMARK    1  A    between atoms: C_2  and  C_4
REMARK    2  A    between atoms: N_8  and  C_9
REMARK    3  A    between atoms: C_9  and  C_10
REMARK                            x       y       z     vdW  Elec       q    Type
REMARK                         _______ _______ _______ _____ _____    ______ ____
ROOT
ATOM      1  C   UNL     1      47.766   7.153  13.849  0.00  0.00    +0.000 A 
ATOM      2  C   UNL     1      46.843   7.985  13.226  0.00  0.00    +0.000 A 
ATOM      3  C   UNL     1      45.657   7.433  12.740  0.00  0.00    +0.000 A 
ATOM      4  C   UNL     1      45.427   6.061  12.843  0.00  0.00    +0.000 A 
ATOM      5  N   UNL     1      44.283   5.558  12.222  0.00  0.00    +0.000 N 
ATOM      6  N   UNL     1      46.318   5.244  13.441  0.00  0.00    +0.000 NA
ATOM      7  C   UNL     1      47.463   5.803  13.929  0.00  0.00    +0.000 A 
ATOM      8  H   UNL     1      43.436   5.953  12.616  0.00  0.00    +0.000 HD
ENDROOT
BRANCH   1  10
ATOM      9  N   UNL     1      50.178   7.382  13.666  0.00  0.00    +0.000 N 
ATOM     10  C   UNL     1      49.047   7.643  14.393  0.00  0.00    +0.000 C 
ATOM     11  O   UNL     1      49.102   8.290  15.431  0.00  0.00    +0.000 OA
ATOM     12  H   UNL     1      51.033   7.813  13.994  0.00  0.00    +0.000 HD
ATOM     13  H   UNL     1      50.149   7.072  12.703  0.00  0.00    +0.000 HD
ENDBRANCH   1  10
BRANCH   5  14
ATOM     14  C   UNL     1      44.222   4.122  12.014  0.00  0.00    +0.000 C 
BRANCH  14  15
ATOM     15  C   UNL     1      44.635   3.834  10.583  0.00  0.00    +0.000 A 
ATOM     16  C   UNL     1      44.475   2.548  10.038  0.00  0.00    +0.000 A 
ATOM     17  C   UNL     1      44.869   2.276   8.722  0.00  0.00    +0.000 A 
ATOM     18  C   UNL     1      45.434   3.289   7.957  0.00  0.00    +0.000 A 
ATOM     19  F   UNL     1      45.810   3.034   6.697  0.00  0.00    +0.000 F 
ATOM     20  C   UNL     1      45.618   4.563   8.483  0.00  0.00    +0.000 A 
ATOM     21  C   UNL     1      45.222   4.835   9.792  0.00  0.00    +0.000 A 
ENDBRANCH  14  15
ENDBRANCH   5  14
TORSDOF 3
ENDMDL
MODEL 7
REMARK VINA RESULT:    -5.771      1.755      2.606
REMARK INTER + INTRA:          -7.198
REMARK INTER:                  -6.857
REMARK INTRA:                  -0.341
REMARK UNBOUND:                -0.415
REMARK  Name = 
REMARK  3 active torsions:
REMARK  status: ('A' for Active; 'I' for Inactive)
REMARK    1  A    between atoms: C_2  and  C_4
REMARK    2  A    between atoms: N_8  and  C_9
REMARK    3  A    between atoms: C_9  and  C_10
REMARK                            x       y       z     vdW  Elec       q    Type
REMARK                         _______ _______ _______ _____ _____    ______ ____
ROOT
ATOM      1  C   UNL     1      48.028   5.421  15.532  0.00  0.00    +0.000 A 
ATOM      2  C   UNL     1      48.135   6.447  14.600  0.00  0.00    +0.000 A 
ATOM      3  C   UNL     1      47.230   6.493  13.538  0.00  0.00    +0.000 A 
ATOM      4  C   UNL     1      46.263   5.496  13.397  0.00  0.00    +0.000 A 
ATOM      5  N   UNL     1      45.476   5.531  12.244  0.00  0.00    +0.000 N 
ATOM      6  N   UNL     1      46.154   4.493  14.292  0.00  0.00    +0.000 NA
ATOM      7  C   UNL     1      47.033   4.475  15.335  0.00  0.00    +0.000 A 
ATOM      8  H   UNL     1      44.926   6.381  12.190  0.00  0.00    +0.000 HD
ENDROOT
BRANCH   1  10
ATOM      9  N   UNL     1      49.560   6.425  17.128  0.00  0.00    +0.000 N 
ATOM     10  C   UNL     1      48.937   5.288  16.685  0.00  0.00    +0.000 C 
ATOM     11  O   UNL     1      49.105   4.217  17.255  0.00  0.00    +0.000 OA
ATOM     12  H   UNL     1      50.097   6.341  17.982  0.00  0.00    +0.000 HD
ATOM     13  H   UNL     1      49.267   7.353  16.849  0.00  0.00    +0.000 HD
ENDBRANCH   1  10
BRANCH   5  14
ATOM     14  C   UNL     1      44.735   4.327  11.915  0.00  0.00    +0.000 C 
BRANCH  14  15
ATOM     15  C   UNL     1      45.012   3.983  10.464  0.00  0.00    +0.000 A 
ATOM     16  C   UNL     1      45.553   4.943   9.592  0.00  0.00    +0.000 A 
ATOM     17  C   UNL     1      45.797   4.632   8.249  0.00  0.00    +0.000 A 
ATOM     18  C   UNL     1      45.485   3.364   7.776  0.00  0.00    +0.000 A 
ATOM     19  F   UNL     1      45.719   3.061   6.492  0.00  0.00    +0.000 F 
ATOM     20  C   UNL     1      44.932   2.404   8.616  0.00  0.00    +0.000 A 
ATOM     21  C   UNL     1      44.693   2.712   9.956  0.00  0.00    +0.000 A 
ENDBRANCH  14  15
ENDBRANCH   5  14
TORSDOF 3
ENDMDL
MODEL 8
REMARK VINA RESULT:    -5.624      4.809      8.299
REMARK INTER + INTRA:          -7.025
REMARK INTER:                  -6.790
REMARK INTRA:                  -0.236
REMARK UNBOUND:                -0.415
REMARK  Name = 
REMARK  3 active torsions:
REMARK  status: ('A' for Active; 'I' for Inactive)
REMARK    1  A    between atoms: C_2  and  C_4
REMARK    2  A    between atoms: N_8  and  C_9
REMARK    3  A    between atoms: C_9  and  C_10
REMARK                            x       y       z     vdW  Elec       q    Type
REMARK                         _______ _______ _______ _____ _____    ______ ____
ROOT
ATOM      1  C   UNL     1      44.756   5.064  11.831  0.00  0.00    +0.000 A 
ATOM      2  C   UNL     1      45.443   6.220  12.187  0.00  0.00    +0.000 A 
ATOM      3  C   UNL     1      46.351   6.166  13.245  0.00  0.00    +0.000 A 
ATOM      4  C   UNL     1      46.529   4.980  13.959  0.00  0.00    +0.000 A 
ATOM      5  N   UNL     1      47.352   5.032  15.085  0.00  0.00    +0.000 N 
ATOM      6  N   UNL     1      45.863   3.856  13.626  0.00  0.00    +0.000 NA
ATOM      7  C   UNL     1      44.994   3.919  12.576  0.00  0.00    +0.000 A 
ATOM      8  H   UNL     1      48.303   5.288  14.844  0.00  0.00    +0.000 HD
ENDROOT
BRANCH   1  10
ATOM      9  N   UNL     1      44.247   4.699   9.483  0.00  0.00    +0.000 N 
ATOM     10  C   UNL     1      43.777   5.022  10.729  0.00  0.00    +0.000 C 
ATOM     11  O   UNL     1      42.584   5.226  10.917  0.00  0.00    +0.000 OA
ATOM     12  H   UNL     1      43.552   4.569   8.759  0.00  0.00    +0.000 HD
ATOM     13  H   UNL     1      45.161   4.292   9.333  0.00  0.00    +0.000 HD
ENDBRANCH   1  10
BRANCH   5  14
ATOM     14  C   UNL     1      47.259   3.926  16.021  0.00  0.00    +0.000 C 
BRANCH  14  15
ATOM     15  C   UNL     1      47.834   4.382  17.349  0.00  0.00    +0.000 A 
ATOM     16  C   UNL     1      47.113   5.259  18.178  0.00  0.00    +0.000 A 
ATOM     17  C   UNL     1      47.647   5.692  19.397  0.00  0.00    +0.000 A 
ATOM     18  C   UNL     1      48.910   5.257  19.780  0.00  0.00    +0.000 A 
ATOM     19  F   UNL     1      49.425   5.667  20.947  0.00  0.00    +0.000 F 
ATOM     20  C   UNL     1      49.648   4.404  18.967  0.00  0.00    +0.000 A 
ATOM     21  C   UNL     1      49.114   3.969  17.755  0.00  0.00    +0.000 A 
ENDBRANCH  14  15
ENDBRANCH   5  14
TORSDOF 3
ENDMDL
MODEL 9
REMARK VINA RESULT:    -5.527      4.370      5.744
REMARK INTER + INTRA:          -6.912
REMARK INTER:                  -6.530
REMARK INTRA:                  -0.382
REMARK UNBOUND:                -0.415
REMARK  Name = 
REMARK  3 active torsions:
REMARK  status: ('A' for Active; 'I' for Inactive)
REMARK    1  A    between atoms: C_2  and  C_4
REMARK    2  A    between atoms: N_8  and  C_9
REMARK    3  A    between atoms: C_9  and  C_10
REMARK                            x       y       z     vdW  Elec       q    Type
REMARK                         _______ _______ _______ _____ _____    ______ ____
ROOT
ATOM      1  C   UNL     1      48.511   6.206  17.792  0.00  0.00    +0.000 A 
ATOM      2  C   UNL     1      47.642   5.200  18.200  0.00  0.00    +0.000 A 
ATOM      3  C   UNL     1      47.171   4.289  17.254  0.00  0.00    +0.000 A 
ATOM      4  C   UNL     1      47.536   4.417  15.913  0.00  0.00    +0.000 A 
ATOM      5  N   UNL     1      46.927   3.553  15.002  0.00  0.00    +0.000 N 
ATOM      6  N   UNL     1      48.374   5.393  15.505  0.00  0.00    +0.000 NA
ATOM      7  C   UNL     1      48.841   6.263  16.446  0.00  0.00    +0.000 A 
ATOM      8  H   UNL     1      47.148   2.583  15.198  0.00  0.00    +0.000 HD
ENDROOT
BRANCH   1  10
ATOM      9  N   UNL     1      50.366   7.069  19.103  0.00  0.00    +0.000 N 
ATOM     10  C   UNL     1      49.060   7.215  18.716  0.00  0.00    +0.000 C 
ATOM     11  O   UNL     1      48.395   8.171  19.098  0.00  0.00    +0.000 OA
ATOM     12  H   UNL     1      50.761   7.823  19.650  0.00  0.00    +0.000 HD
ATOM     13  H   UNL     1      51.009   6.447  18.629  0.00  0.00    +0.000 HD
ENDBRANCH   1  10
BRANCH   5  14
ATOM     14  C   UNL     1      47.019   3.906  13.596  0.00  0.00    +0.000 C 
BRANCH  14  15
ATOM     15  C   UNL     1      45.634   4.296  13.115  0.00  0.00    +0.000 A 
ATOM     16  C   UNL     1      44.783   3.341  12.533  0.00  0.00    +0.000 A 
ATOM     17  C   UNL     1      43.510   3.702  12.076  0.00  0.00    +0.000 A 
ATOM     18  C   UNL     1      43.094   5.023  12.190  0.00  0.00    +0.000 A 
ATOM     19  F   UNL     1      41.876   5.373  11.756  0.00  0.00    +0.000 F 
ATOM     20  C   UNL     1      43.927   5.987  12.746  0.00  0.00    +0.000 A 
ATOM     21  C   UNL     1      45.194   5.628  13.206  0.00  0.00    +0.000 A 
ENDBRANCH  14  15
ENDBRANCH   5  14
TORSDOF 3
ENDMDL
