MODEL 1
REMARK VINA RESULT:    -8.394      0.000      0.000
REMARK INTER + INTRA:         -11.561
REMARK INTER:                 -10.357
REMARK INTRA:                  -1.203
REMARK UNBOUND:                -1.203
REMARK  Name = 
REMARK  4 active torsions:
REMARK  status: ('A' for Active; 'I' for Inactive)
REMARK    1  A    between atoms: C_2  and  C_3
REMARK    2  A    between atoms: N_7  and  C_8
REMARK    3  A    between atoms: C_8  and  C_9
REMARK    4  A    between atoms: C_14  and  C_15
REMARK                            x       y       z     vdW  Elec       q    Type
REMARK                         _______ _______ _______ _____ _____    ______ ____
ROOT
ATOM      1  C   UNL     1      45.052   5.323  12.223  0.00  0.00    +0.000 A 
ATOM      2  C   UNL     1      45.500   4.365  13.143  0.00  0.00    +0.000 A 
ATOM      3  C   UNL     1      46.783   4.442  13.660  0.00  0.00    +0.000 A 
ATOM      4  F   UNL     1      47.246   3.438  14.415  0.00  0.00    +0.000 F 
ATOM      5  C   UNL     1      47.628   5.499  13.336  0.00  0.00    +0.000 A 
ATOM      6  C   UNL     1      47.187   6.544  12.516  0.00  0.00    +0.000 A 
ATOM      7  C   UNL     1      45.882   6.441  11.988  0.00  0.00    +0.000 A 
ENDROOT
BRANCH   6   8
ATOM      8  C   UNL     1      48.079   7.662  12.129  0.00  0.00    +0.000 A 
ATOM      9  C   UNL     1      47.635   8.995  12.156  0.00  0.00    +0.000 A 
ATOM     10  C   UNL     1      48.479  10.057  11.822  0.00  0.00    +0.000 A 
ATOM     11  C   UNL     1      49.800   9.802  11.464  0.00  0.00    +0.000 A 
ATOM     12  C   UNL     1      50.263   8.496  11.434  0.00  0.00    +0.000 A 
ATOM     13 CL   UNL     1      51.905   8.179  11.021  0.00  0.00    +0.000 Cl
ATOM     14  C   UNL     1      49.419   7.429  11.758  0.00  0.00    +0.000 A 
ENDBRANCH   6   8
BRANCH   1  15
ATOM     15  C   UNL     1      43.877   5.012  11.311  0.00  0.00    +0.000 C 
ATOM     16  C   UNL     1      42.446   5.179  11.786  0.00  0.00    +0.000 C 
ATOM     17  C   UNL     1      43.011   6.137  10.789  0.00  0.00    +0.000 C 
BRANCH  15  22
ATOM     18  C   UNL     1      46.640   2.719   7.494  0.00  0.00    +0.000 A 
ATOM     19  C   UNL     1      46.466   4.080   7.741  0.00  0.00    +0.000 A 
ATOM     20  C   UNL     1      45.659   4.487   8.810  0.00  0.00    +0.000 A 
ATOM     21  C   UNL     1      45.051   3.519   9.599  0.00  0.00    +0.000 A 
ATOM     22  N   UNL     1      44.086   3.772  10.562  0.00  0.00    +0.000 N 
ATOM     23  N   UNL     1      45.274   2.200   9.408  0.00  0.00    +0.000 NA
ATOM     24  C   UNL     1      46.048   1.827   8.367  0.00  0.00    +0.000 A 
ATOM     25  H   UNL     1      43.943   2.895  11.058  0.00  0.00    +0.000 HD
BRANCH  18  27
ATOM     26  N   UNL     1      47.971   1.860   5.449  0.00  0.00    +0.000 NA
ATOM     27  C   UNL     1      47.356   2.236   6.357  0.00  0.00    +0.000 C 
ENDBRANCH  18  27
ENDBRANCH  15  22
ENDBRANCH   1  15
TORSDOF 4
ENDMDL
MODEL 2
REMARK VINA RESULT:    -7.879      2.427      3.838
REMARK INTER + INTRA:         -10.925
REMARK INTER:                 -10.142
REMARK INTRA:                  -0.783
REMARK UNBOUND:                -1.203
REMARK  Name = 
REMARK  4 active torsions:
REMARK  status: ('A' for Active; 'I' for Inactive)
REMARK    1  A    between atoms: C_2  and  C_3
REMARK    2  A    between atoms: N_7  and  C_8
REMARK    3  A    between atoms: C_8  and  C_9
REMARK    4  A    between atoms: C_14  and  C_15
REMARK                            x       y       z     vdW  Elec       q    Type
REMARK                         _______ _______ _______ _____ _____    ______ ____
ROOT
ATOM      1  C   UNL     1      45.339   5.485  11.896  0.00  0.00    +0.000 A 
ATOM      2  C   UNL     1      45.792   6.740  11.470  0.00  0.00    +0.000 A 
ATOM      3  C   UNL     1      46.735   7.430  12.214  0.00  0.00    +0.000 A 
ATOM      4  F   UNL     1      47.042   8.690  11.876  0.00  0.00    +0.000 F 
ATOM      5  C   UNL     1      47.301   6.872  13.356  0.00  0.00    +0.000 A 
ATOM      6  C   UNL     1      46.970   5.573  13.758  0.00  0.00    +0.000 A 
ATOM      7  C   UNL     1      45.998   4.892  12.996  0.00  0.00    +0.000 A 
ENDROOT
BRANCH   6   8
ATOM      8  C   UNL     1      47.532   4.970  14.989  0.00  0.00    +0.000 A 
ATOM      9  C   UNL     1      47.332   3.613  15.296  0.00  0.00    +0.000 A 
ATOM     10  C   UNL     1      47.885   3.030  16.440  0.00  0.00    +0.000 A 
ATOM     11  C   UNL     1      48.666   3.799  17.297  0.00  0.00    +0.000 A 
ATOM     12  C   UNL     1      48.881   5.138  17.014  0.00  0.00    +0.000 A 
ATOM     13 CL   UNL     1      49.873   6.086  18.058  0.00  0.00    +0.000 Cl
ATOM     14  C   UNL     1      48.323   5.729  15.877  0.00  0.00    +0.000 A 
ENDBRANCH   6   8
BRANCH   1  15
ATOM     15  C   UNL     1      44.014   4.941  11.388  0.00  0.00    +0.000 C 
ATOM     16  C   UNL     1      42.783   4.913  12.273  0.00  0.00    +0.000 C 
ATOM     17  C   UNL     1      42.858   5.885  11.141  0.00  0.00    +0.000 C 
BRANCH  15  22
ATOM     18  C   UNL     1      46.585   2.686   7.417  0.00  0.00    +0.000 A 
ATOM     19  C   UNL     1      46.412   4.045   7.678  0.00  0.00    +0.000 A 
ATOM     20  C   UNL     1      45.662   4.441   8.791  0.00  0.00    +0.000 A 
ATOM     21  C   UNL     1      45.106   3.465   9.608  0.00  0.00    +0.000 A 
ATOM     22  N   UNL     1      44.193   3.705  10.623  0.00  0.00    +0.000 N 
ATOM     23  N   UNL     1      45.330   2.149   9.400  0.00  0.00    +0.000 NA
ATOM     24  C   UNL     1      46.050   1.786   8.317  0.00  0.00    +0.000 A 
ATOM     25  H   UNL     1      44.086   2.825  11.123  0.00  0.00    +0.000 HD
BRANCH  18  27
ATOM     26  N   UNL     1      47.807   1.822   5.307  0.00  0.00    +0.000 NA
ATOM     27  C   UNL     1      47.242   2.214   6.240  0.00  0.00    +0.000 C 
ENDBRANCH  18  27
ENDBRANCH  15  22
ENDBRANCH   1  15
TORSDOF 4
ENDMDL
MODEL 3
REMARK VINA RESULT:    -7.601      3.555      6.799
REMARK INTER + INTRA:         -10.581
REMARK INTER:                  -9.440
REMARK INTRA:                  -1.141
REMARK UNBOUND:                -1.203
REMARK  Name = 
REMARK  4 active torsions:
REMARK  status: ('A' for Active; 'I' for Inactive)
REMARK    1  A    between atoms: C_2  and  C_3
REMARK    2  A    between atoms: N_7  and  C_8
REMARK    3  A    between atoms: C_8  and  C_9
REMARK    4  A    between atoms: C_14  and  C_15
REMARK                            x       y       z     vdW  Elec       q    Type
REMARK                         _______ _______ _______ _____ _____    ______ ____
ROOT
ATOM      1  C   UNL     1      45.270   4.586  12.592  0.00  0.00    +0.000 A 
ATOM      2  C   UNL     1      43.973   5.116  12.590  0.00  0.00    +0.000 A 
ATOM      3  C   UNL     1      43.225   5.123  11.423  0.00  0.00    +0.000 A 
ATOM      4  F   UNL     1      42.052   5.770  11.401  0.00  0.00    +0.000 F 
ATOM      5  C   UNL     1      43.711   4.548  10.253  0.00  0.00    +0.000 A 
ATOM      6  C   UNL     1      44.951   3.900  10.234  0.00  0.00    +0.000 A 
ATOM      7  C   UNL     1      45.704   3.916  11.427  0.00  0.00    +0.000 A 
ENDROOT
BRANCH   6   8
ATOM      8  C   UNL     1      45.505   3.311   8.992  0.00  0.00    +0.000 A 
ATOM      9  C   UNL     1      45.852   4.117   7.893  0.00  0.00    +0.000 A 
ATOM     10  C   UNL     1      46.404   3.573   6.730  0.00  0.00    +0.000 A 
ATOM     11  C   UNL     1      46.631   2.202   6.649  0.00  0.00    +0.000 A 
ATOM     12  C   UNL     1      46.300   1.388   7.721  0.00  0.00    +0.000 A 
ATOM     13 CL   UNL     1      46.608  -0.306   7.636  0.00  0.00    +0.000 Cl
ATOM     14  C   UNL     1      45.739   1.925   8.883  0.00  0.00    +0.000 A 
ENDBRANCH   6   8
BRANCH   1  15
ATOM     15  C   UNL     1      46.252   4.981  13.682  0.00  0.00    +0.000 C 
ATOM     16  C   UNL     1      46.289   4.251  15.011  0.00  0.00    +0.000 C 
ATOM     17  C   UNL     1      47.400   4.061  14.031  0.00  0.00    +0.000 C 
BRANCH  15  22
ATOM     18  C   UNL     1      48.377   9.369  11.758  0.00  0.00    +0.000 A 
ATOM     19  C   UNL     1      48.786   8.050  11.565  0.00  0.00    +0.000 A 
ATOM     20  C   UNL     1      48.087   7.014  12.197  0.00  0.00    +0.000 A 
ATOM     21  C   UNL     1      47.001   7.330  13.002  0.00  0.00    +0.000 A 
ATOM     22  N   UNL     1      46.341   6.435  13.831  0.00  0.00    +0.000 N 
ATOM     23  N   UNL     1      46.558   8.599  13.135  0.00  0.00    +0.000 NA
ATOM     24  C   UNL     1      47.249   9.585  12.525  0.00  0.00    +0.000 A 
ATOM     25  H   UNL     1      45.517   6.923  14.175  0.00  0.00    +0.000 HD
BRANCH  18  27
ATOM     26  N   UNL     1      49.735  11.353  10.805  0.00  0.00    +0.000 NA
ATOM     27  C   UNL     1      49.110  10.478  11.237  0.00  0.00    +0.000 C 
ENDBRANCH  18  27
ENDBRANCH  15  22
ENDBRANCH   1  15
TORSDOF 4
ENDMDL
MODEL 4
REMARK VINA RESULT:    -6.781      4.508      8.088
REMARK INTER + INTRA:          -9.571
REMARK INTER:                  -8.620
REMARK INTRA:                  -0.950
REMARK UNBOUND:                -1.203
REMARK  Name = 
REMARK  4 active torsions:
REMARK  status: ('A' for Active; 'I' for Inactive)
REMARK    1  A    between atoms: C_2  and  C_3
REMARK    2  A    between atoms: N_7  and  C_8
REMARK    3  A    between atoms: C_8  and  C_9
REMARK    4  A    between atoms: C_14  and  C_15
REMARK                            x       y       z     vdW  Elec       q    Type
REMARK                         _______ _______ _______ _____ _____    ______ ____
ROOT
ATOM      1  C   UNL     1      47.348   7.606  12.554  0.00  0.00    +0.000 A 
ATOM      2  C   UNL     1      46.440   8.670  12.643  0.00  0.00    +0.000 A 
ATOM      3  C   UNL     1      45.196   8.576  12.040  0.00  0.00    +0.000 A 
ATOM      4  F   UNL     1      44.403   9.655  12.003  0.00  0.00    +0.000 F 
ATOM      5  C   UNL     1      44.793   7.411  11.394  0.00  0.00    +0.000 A 
ATOM      6  C   UNL     1      45.616   6.279  11.381  0.00  0.00    +0.000 A 
ATOM      7  C   UNL     1      46.885   6.398  11.988  0.00  0.00    +0.000 A 
ENDROOT
BRANCH   6   8
ATOM      8  C   UNL     1      45.225   5.039  10.671  0.00  0.00    +0.000 A 
ATOM      9  C   UNL     1      44.395   4.080  11.277  0.00  0.00    +0.000 A 
ATOM     10  C   UNL     1      43.996   2.922  10.603  0.00  0.00    +0.000 A 
ATOM     11  C   UNL     1      44.414   2.709   9.293  0.00  0.00    +0.000 A 
ATOM     12  C   UNL     1      45.230   3.642   8.672  0.00  0.00    +0.000 A 
ATOM     13 CL   UNL     1      45.725   3.394   7.040  0.00  0.00    +0.000 Cl
ATOM     14  C   UNL     1      45.640   4.796   9.345  0.00  0.00    +0.000 A 
ENDBRANCH   6   8
BRANCH   1  15
ATOM     15  C   UNL     1      48.831   7.850  12.779  0.00  0.00    +0.000 C 
ATOM     16  C   UNL     1      49.785   8.028  11.614  0.00  0.00    +0.000 C 
ATOM     17  C   UNL     1      49.426   9.204  12.463  0.00  0.00    +0.000 C 
BRANCH  15  22
ATOM     18  C   UNL     1      49.086   7.015  17.947  0.00  0.00    +0.000 A 
ATOM     19  C   UNL     1      48.736   8.185  17.273  0.00  0.00    +0.000 A 
ATOM     20  C   UNL     1      48.756   8.204  15.874  0.00  0.00    +0.000 A 
ATOM     21  C   UNL     1      49.125   7.053  15.191  0.00  0.00    +0.000 A 
ATOM     22  N   UNL     1      49.370   6.983  13.828  0.00  0.00    +0.000 N 
ATOM     23  N   UNL     1      49.395   5.897  15.837  0.00  0.00    +0.000 NA
ATOM     24  C   UNL     1      49.379   5.900  17.186  0.00  0.00    +0.000 A 
ATOM     25  H   UNL     1      49.478   5.995  13.610  0.00  0.00    +0.000 HD
BRANCH  18  27
ATOM     26  N   UNL     1      49.274   6.875  20.523  0.00  0.00    +0.000 NA
ATOM     27  C   UNL     1      49.196   6.959  19.369  0.00  0.00    +0.000 C 
ENDBRANCH  18  27
ENDBRANCH  15  22
ENDBRANCH   1  15
TORSDOF 4
ENDMDL
MODEL 5
REMARK VINA RESULT:    -6.250      5.776      8.190
REMARK INTER + INTRA:          -8.914
REMARK INTER:                  -8.208
REMARK INTRA:                  -0.706
REMARK UNBOUND:                -1.203
REMARK  Name = 
REMARK  4 active torsions:
REMARK  status: ('A' for Active; 'I' for Inactive)
REMARK    1  A    between atoms: C_2  and  C_3
REMARK    2  A    between atoms: N_7  and  C_8
REMARK    3  A    between atoms: C_8  and  C_9
REMARK    4  A    between atoms: C_14  and  C_15
REMARK                            x       y       z     vdW  Elec       q    Type
REMARK                         _______ _______ _______ _____ _____    ______ ____
ROOT
ATOM      1  C   UNL     1      48.167   5.627  15.952  0.00  0.00    +0.000 A 
ATOM      2  C   UNL     1      49.198   6.534  15.674  0.00  0.00    +0.000 A 
ATOM      3  C   UNL     1      49.361   7.033  14.392  0.00  0.00    +0.000 A 
ATOM      4  F   UNL     1      50.439   7.776  14.109  0.00  0.00    +0.000 F 
ATOM      5  C   UNL     1      48.473   6.702  13.372  0.00  0.00    +0.000 A 
ATOM      6  C   UNL     1      47.358   5.895  13.627  0.00  0.00    +0.000 A 
ATOM      7  C   UNL     1      47.218   5.386  14.935  0.00  0.00    +0.000 A 
ENDROOT
BRANCH   6   8
ATOM      8  C   UNL     1      46.418   5.501  12.551  0.00  0.00    +0.000 A 
ATOM      9  C   UNL     1      46.447   6.124  11.292  0.00  0.00    +0.000 A 
ATOM     10  C   UNL     1      45.585   5.737  10.261  0.00  0.00    +0.000 A 
ATOM     11  C   UNL     1      44.680   4.702  10.472  0.00  0.00    +0.000 A 
ATOM     12  C   UNL     1      44.635   4.070  11.705  0.00  0.00    +0.000 A 
ATOM     13 CL   UNL     1      43.535   2.767  11.959  0.00  0.00    +0.000 Cl
ATOM     14  C   UNL     1      45.488   4.459  12.742  0.00  0.00    +0.000 A 
ENDBRANCH   6   8
BRANCH   1  15
ATOM     15  C   UNL     1      48.252   4.731  17.177  0.00  0.00    +0.000 C 
ATOM     16  C   UNL     1      47.182   4.764  18.251  0.00  0.00    +0.000 C 
ATOM     17  C   UNL     1      47.278   3.585  17.339  0.00  0.00    +0.000 C 
BRANCH  15  22
ATOM     18  C   UNL     1      52.578   1.821  17.710  0.00  0.00    +0.000 A 
ATOM     19  C   UNL     1      51.286   1.404  17.393  0.00  0.00    +0.000 A 
ATOM     20  C   UNL     1      50.256   2.350  17.324  0.00  0.00    +0.000 A 
ATOM     21  C   UNL     1      50.550   3.683  17.574  0.00  0.00    +0.000 A 
ATOM     22  N   UNL     1      49.608   4.689  17.726  0.00  0.00    +0.000 N 
ATOM     23  N   UNL     1      51.813   4.102  17.811  0.00  0.00    +0.000 NA
ATOM     24  C   UNL     1      52.791   3.175  17.882  0.00  0.00    +0.000 A 
ATOM     25  H   UNL     1      50.129   5.563  17.756  0.00  0.00    +0.000 HD
BRANCH  18  27
ATOM     26  N   UNL     1      54.506   0.142  18.104  0.00  0.00    +0.000 NA
ATOM     27  C   UNL     1      53.649   0.898  17.907  0.00  0.00    +0.000 C 
ENDBRANCH  18  27
ENDBRANCH  15  22
ENDBRANCH   1  15
TORSDOF 4
ENDMDL
MODEL 6
REMARK VINA RESULT:    -5.788      4.127      7.194
REMARK INTER + INTRA:          -8.345
REMARK INTER:                  -7.559
REMARK INTRA:                  -0.786
REMARK UNBOUND:                -1.203
REMARK  Name = 
REMARK  4 active torsions:
REMARK  status: ('A' for Active; 'I' for Inactive)
REMARK    1  A    between atoms: C_2  and  C_3
REMARK    2  A    between atoms: N_7  and  C_8
REMARK    3  A    between atoms: C_8  and  C_9
REMARK    4  A    between atoms: C_14  and  C_15
REMARK                            x       y       z     vdW  Elec       q    Type
REMARK                         _______ _______ _______ _____ _____    ______ ____
ROOT
ATOM      1  C   UNL     1      46.751   7.606  12.863  0.00  0.00    +0.000 A 
ATOM      2  C   UNL     1      45.886   8.692  12.672  0.00  0.00    +0.000 A 
ATOM      3  C   UNL     1      44.856   8.608  11.748  0.00  0.00    +0.000 A 
ATOM      4  F   UNL     1      44.136   9.702  11.468  0.00  0.00    +0.000 F 
ATOM      5  C   UNL     1      44.615   7.432  11.043  0.00  0.00    +0.000 A 
ATOM      6  C   UNL     1      45.375   6.282  11.286  0.00  0.00    +0.000 A 
ATOM      7  C   UNL     1      46.428   6.392  12.219  0.00  0.00    +0.000 A 
ENDROOT
BRANCH   6   8
ATOM      8  C   UNL     1      45.160   5.030  10.523  0.00  0.00    +0.000 A 
ATOM      9  C   UNL     1      44.400   3.974  11.053  0.00  0.00    +0.000 A 
ATOM     10  C   UNL     1      44.166   2.802  10.328  0.00  0.00    +0.000 A 
ATOM     11  C   UNL     1      44.684   2.671   9.043  0.00  0.00    +0.000 A 
ATOM     12  C   UNL     1      45.435   3.701   8.498  0.00  0.00    +0.000 A 
ATOM     13 CL   UNL     1      46.053   3.554   6.895  0.00  0.00    +0.000 Cl
ATOM     14  C   UNL     1      45.679   4.871   9.222  0.00  0.00    +0.000 A 
ENDBRANCH   6   8
BRANCH   1  15
ATOM     15  C   UNL     1      48.119   7.825  13.487  0.00  0.00    +0.000 C 
ATOM     16  C   UNL     1      48.353   7.604  14.969  0.00  0.00    +0.000 C 
ATOM     17  C   UNL     1      48.920   6.640  13.979  0.00  0.00    +0.000 C 
BRANCH  15  22
ATOM     18  C   UNL     1      51.784   9.750  10.273  0.00  0.00    +0.000 A 
ATOM     19  C   UNL     1      51.661   8.454  10.771  0.00  0.00    +0.000 A 
ATOM     20  C   UNL     1      50.612   8.150  11.646  0.00  0.00    +0.000 A 
ATOM     21  C   UNL     1      49.718   9.153  11.996  0.00  0.00    +0.000 A 
ATOM     22  N   UNL     1      48.754   9.046  12.988  0.00  0.00    +0.000 N 
ATOM     23  N   UNL     1      49.790  10.391  11.460  0.00  0.00    +0.000 NA
ATOM     24  C   UNL     1      50.813  10.667  10.625  0.00  0.00    +0.000 A 
ATOM     25  H   UNL     1      48.174   9.878  12.910  0.00  0.00    +0.000 HD
BRANCH  18  27
ATOM     26  N   UNL     1      53.811  10.452   8.828  0.00  0.00    +0.000 NA
ATOM     27  C   UNL     1      52.892  10.155   9.469  0.00  0.00    +0.000 C 
ENDBRANCH  18  27
ENDBRANCH  15  22
ENDBRANCH   1  15
TORSDOF 4
ENDMDL
