MODEL 1
REMARK VINA RESULT:    -7.976      0.000      0.000
REMARK INTER + INTRA:         -12.678
REMARK INTER:                 -11.240
REMARK INTRA:                  -1.438
REMARK UNBOUND:                -1.438
REMARK  Name = 
REMARK  7 active torsions:
REMARK  status: ('A' for Active; 'I' for Inactive)
REMARK    1  A    between atoms: C_2  and  C_4
REMARK    2  A    between atoms: C_4  and  N_5
REMARK    3  A    between atoms: C_4  and  C_18
REMARK    4  A    between atoms: C_6  and  C_8
REMARK    5  A    between atoms: C_21  and  C_22
REMARK    6  A    between atoms: C_22  and  N_23
REMARK    7  A    between atoms: C_24  and  C_26
REMARK                            x       y       z     vdW  Elec       q    Type
REMARK                         _______ _______ _______ _____ _____    ______ ____
ROOT
ATOM      1  C   UNL     1      48.314   7.091  14.089  0.00  0.00    +0.000 C 
ENDROOT
BRANCH   1   2
ATOM      2  C   UNL     1      47.270   6.389  13.232  0.00  0.00    +0.000 A 
ATOM      3  C   UNL     1      46.973   6.868  11.949  0.00  0.00    +0.000 A 
ATOM      4  C   UNL     1      46.054   6.199  11.133  0.00  0.00    +0.000 A 
ATOM      5  C   UNL     1      45.410   5.038  11.581  0.00  0.00    +0.000 A 
ATOM      6  C   UNL     1      45.715   4.549  12.855  0.00  0.00    +0.000 A 
ATOM      7  C   UNL     1      46.624   5.221  13.673  0.00  0.00    +0.000 A 
BRANCH   5   8
ATOM      8  C   UNL     1      44.425   4.313  10.702  0.00  0.00    +0.000 C 
BRANCH   8   9
ATOM      9  N   UNL     1      45.080   3.331   9.874  0.00  0.00    +0.000 N 
ATOM     10  C   UNL     1      45.582   3.662   8.638  0.00  0.00    +0.000 C 
ATOM     11  O   UNL     1      45.481   4.788   8.166  0.00  0.00    +0.000 OA
ATOM     12  H   UNL     1      45.228   2.408  10.248  0.00  0.00    +0.000 HD
BRANCH  10  13
ATOM     13  C   UNL     1      46.245   2.585   7.932  0.00  0.00    +0.000 A 
ATOM     14  C   UNL     1      47.119   2.575   6.856  0.00  0.00    +0.000 A 
ATOM     15  C   UNL     1      47.458   1.230   6.570  0.00  0.00    +0.000 A 
ATOM     16  C   UNL     1      46.790   0.441   7.477  0.00  0.00    +0.000 A 
ATOM     17  N   UNL     1      46.066   1.264   8.297  0.00  0.00    +0.000 N 
ATOM     18  H   UNL     1      45.474   0.970   9.065  0.00  0.00    +0.000 HD
ENDBRANCH  10  13
ENDBRANCH   8   9
ENDBRANCH   5   8
ENDBRANCH   1   2
BRANCH   1  20
ATOM     19  N   UNL     1      47.246   9.206  14.800  0.00  0.00    +0.000 N 
ATOM     20  C   UNL     1      48.218   8.639  14.015  0.00  0.00    +0.000 C 
ATOM     21  O   UNL     1      48.878   9.356  13.265  0.00  0.00    +0.000 OA
ATOM     22  H   UNL     1      47.083  10.195  14.660  0.00  0.00    +0.000 HD
ATOM     23  H   UNL     1      46.458   8.642  15.109  0.00  0.00    +0.000 HD
ENDBRANCH   1  20
BRANCH   1  24
ATOM     24  N   UNL     1      48.172   6.663  15.474  0.00  0.00    +0.000 N 
ATOM     25  C   UNL     1      49.220   6.286  16.263  0.00  0.00    +0.000 C 
ATOM     26  O   UNL     1      50.380   6.322  15.857  0.00  0.00    +0.000 OA
ATOM     27  H   UNL     1      47.224   6.515  15.799  0.00  0.00    +0.000 HD
BRANCH  25  28
ATOM     28  C   UNL     1      48.884   5.907  17.644  0.00  0.00    +0.000 A 
ATOM     29  C   UNL     1      49.102   4.608  18.080  0.00  0.00    +0.000 A 
ATOM     30  S   UNL     1      48.728   4.365  19.728  0.00  0.00    +0.000 S 
ATOM     31  C   UNL     1      48.202   5.973  19.904  0.00  0.00    +0.000 A 
ATOM     32  N   UNL     1      47.725   6.427  21.095  0.00  0.00    +0.000 NA
ATOM     33  C   UNL     1      47.331   7.656  21.080  0.00  0.00    +0.000 A 
ATOM     34  N   UNL     1      47.372   8.474  19.982  0.00  0.00    +0.000 N 
ATOM     35  C   UNL     1      47.882   8.071  18.772  0.00  0.00    +0.000 A 
ATOM     36  O   UNL     1      47.966   8.850  17.830  0.00  0.00    +0.000 OA
ATOM     37  C   UNL     1      48.326   6.690  18.727  0.00  0.00    +0.000 A 
ATOM     38  H   UNL     1      47.062   9.433  20.038  0.00  0.00    +0.000 HD
ENDBRANCH  25  28
ENDBRANCH   1  24
TORSDOF 7
ENDMDL
MODEL 2
REMARK VINA RESULT:    -7.769      2.821      4.539
REMARK INTER + INTRA:         -12.386
REMARK INTER:                 -11.236
REMARK INTRA:                  -1.149
REMARK UNBOUND:                -1.438
REMARK  Name = 
REMARK  7 active torsions:
REMARK  status: ('A' for Active; 'I' for Inactive)
REMARK    1  A    between atoms: C_2  and  C_4
REMARK    2  A    between atoms: C_4  and  N_5
REMARK    3  A    between atoms: C_4  and  C_18
REMARK    4  A    between atoms: C_6  and  C_8
REMARK    5  A    between atoms: C_21  and  C_22
REMARK    6  A    between atoms: C_22  and  N_23
REMARK    7  A    between atoms: C_24  and  C_26
REMARK                            x       y       z     vdW  Elec       q    Type
REMARK                         _______ _______ _______ _____ _____    ______ ____
ROOT
ATOM      1  C   UNL     1      46.945   4.982  15.076  0.00  0.00    +0.000 C 
ENDROOT
BRANCH   1   2
ATOM      2  C   UNL     1      46.103   4.752  13.829  0.00  0.00    +0.000 A 
ATOM      3  C   UNL     1      45.431   5.822  13.224  0.00  0.00    +0.000 A 
ATOM      4  C   UNL     1      44.698   5.632  12.048  0.00  0.00    +0.000 A 
ATOM      5  C   UNL     1      44.619   4.366  11.451  0.00  0.00    +0.000 A 
ATOM      6  C   UNL     1      45.300   3.298  12.043  0.00  0.00    +0.000 A 
ATOM      7  C   UNL     1      46.023   3.486  13.221  0.00  0.00    +0.000 A 
BRANCH   5   8
ATOM      8  C   UNL     1      43.835   4.160  10.181  0.00  0.00    +0.000 C 
BRANCH   8   9
ATOM      9  N   UNL     1      44.594   3.415   9.207  0.00  0.00    +0.000 N 
ATOM     10  C   UNL     1      45.575   4.017   8.457  0.00  0.00    +0.000 C 
ATOM     11  O   UNL     1      45.840   5.209   8.553  0.00  0.00    +0.000 OA
ATOM     12  H   UNL     1      44.442   2.422   9.135  0.00  0.00    +0.000 HD
BRANCH  10  13
ATOM     13  C   UNL     1      46.280   3.141   7.545  0.00  0.00    +0.000 A 
ATOM     14  C   UNL     1      46.815   3.345   6.282  0.00  0.00    +0.000 A 
ATOM     15  C   UNL     1      47.396   2.130   5.843  0.00  0.00    +0.000 A 
ATOM     16  C   UNL     1      47.211   1.205   6.844  0.00  0.00    +0.000 A 
ATOM     17  N   UNL     1      46.542   1.823   7.867  0.00  0.00    +0.000 N 
ATOM     18  H   UNL     1      46.267   1.394   8.743  0.00  0.00    +0.000 HD
ENDBRANCH  10  13
ENDBRANCH   8   9
ENDBRANCH   5   8
ENDBRANCH   1   2
BRANCH   1  20
ATOM     19  N   UNL     1      46.804   3.441  17.006  0.00  0.00    +0.000 N 
ATOM     20  C   UNL     1      47.369   3.662  15.774  0.00  0.00    +0.000 C 
ATOM     21  O   UNL     1      48.209   2.871  15.349  0.00  0.00    +0.000 OA
ATOM     22  H   UNL     1      47.172   2.657  17.529  0.00  0.00    +0.000 HD
ATOM     23  H   UNL     1      46.436   4.225  17.537  0.00  0.00    +0.000 HD
ENDBRANCH   1  20
BRANCH   1  24
ATOM     24  N   UNL     1      48.132   5.748  14.725  0.00  0.00    +0.000 N 
ATOM     25  C   UNL     1      48.763   6.606  15.580  0.00  0.00    +0.000 C 
ATOM     26  O   UNL     1      48.382   6.759  16.739  0.00  0.00    +0.000 OA
ATOM     27  H   UNL     1      48.401   5.729  13.748  0.00  0.00    +0.000 HD
BRANCH  25  28
ATOM     28  C   UNL     1      49.963   7.273  15.054  0.00  0.00    +0.000 A 
ATOM     29  C   UNL     1      51.137   7.275  15.794  0.00  0.00    +0.000 A 
ATOM     30  S   UNL     1      52.449   8.026  15.000  0.00  0.00    +0.000 S 
ATOM     31  C   UNL     1      51.479   8.433  13.663  0.00  0.00    +0.000 A 
ATOM     32  N   UNL     1      51.995   9.121  12.608  0.00  0.00    +0.000 NA
ATOM     33  C   UNL     1      51.142   9.391  11.677  0.00  0.00    +0.000 A 
ATOM     34  N   UNL     1      49.819   9.034  11.704  0.00  0.00    +0.000 N 
ATOM     35  C   UNL     1      49.266   8.306  12.728  0.00  0.00    +0.000 A 
ATOM     36  O   UNL     1      48.095   7.945  12.688  0.00  0.00    +0.000 OA
ATOM     37  C   UNL     1      50.178   7.987  13.812  0.00  0.00    +0.000 A 
ATOM     38  H   UNL     1      49.205   9.263  10.937  0.00  0.00    +0.000 HD
ENDBRANCH  25  28
ENDBRANCH   1  24
TORSDOF 7
ENDMDL
MODEL 3
REMARK VINA RESULT:    -7.400      2.967      4.249
REMARK INTER + INTRA:         -11.866
REMARK INTER:                 -11.085
REMARK INTRA:                  -0.781
REMARK UNBOUND:                -1.438
REMARK  Name = 
REMARK  7 active torsions:
REMARK  status: ('A' for Active; 'I' for Inactive)
REMARK    1  A    between atoms: C_2  and  C_4
REMARK    2  A    between atoms: C_4  and  N_5
REMARK    3  A    between atoms: C_4  and  C_18
REMARK    4  A    between atoms: C_6  and  C_8
REMARK    5  A    between atoms: C_21  and  C_22
REMARK    6  A    between atoms: C_22  and  N_23
REMARK    7  A    between atoms: C_24  and  C_26
REMARK                            x       y       z     vdW  Elec       q    Type
REMARK                         _______ _______ _______ _____ _____    ______ ____
ROOT
ATOM      1  C   UNL     1      46.834   5.107  14.983  0.00  0.00    +0.000 C 
ENDROOT
BRANCH   1   2
ATOM      2  C   UNL     1      46.038   4.924  13.699  0.00  0.00    +0.000 A 
ATOM      3  C   UNL     1      45.624   6.040  12.959  0.00  0.00    +0.000 A 
ATOM      4  C   UNL     1      44.937   5.882  11.751  0.00  0.00    +0.000 A 
ATOM      5  C   UNL     1      44.647   4.604  11.255  0.00  0.00    +0.000 A 
ATOM      6  C   UNL     1      45.071   3.487  11.981  0.00  0.00    +0.000 A 
ATOM      7  C   UNL     1      45.747   3.645  13.192  0.00  0.00    +0.000 A 
BRANCH   5   8
ATOM      8  C   UNL     1      43.914   4.431   9.950  0.00  0.00    +0.000 C 
BRANCH   8   9
ATOM      9  N   UNL     1      44.665   3.620   9.026  0.00  0.00    +0.000 N 
ATOM     10  C   UNL     1      45.720   4.140   8.315  0.00  0.00    +0.000 C 
ATOM     11  O   UNL     1      46.061   5.313   8.407  0.00  0.00    +0.000 OA
ATOM     12  H   UNL     1      44.449   2.638   8.961  0.00  0.00    +0.000 HD
BRANCH  10  13
ATOM     13  C   UNL     1      46.406   3.202   7.451  0.00  0.00    +0.000 A 
ATOM     14  C   UNL     1      46.731   1.863   7.600  0.00  0.00    +0.000 A 
ATOM     15  C   UNL     1      47.414   1.438   6.434  0.00  0.00    +0.000 A 
ATOM     16  C   UNL     1      47.493   2.521   5.591  0.00  0.00    +0.000 A 
ATOM     17  N   UNL     1      46.880   3.579   6.209  0.00  0.00    +0.000 N 
ATOM     18  H   UNL     1      46.778   4.513   5.829  0.00  0.00    +0.000 HD
ENDBRANCH  10  13
ENDBRANCH   8   9
ENDBRANCH   5   8
ENDBRANCH   1   2
BRANCH   1  20
ATOM     19  N   UNL     1      47.004   3.638  16.965  0.00  0.00    +0.000 N 
ATOM     20  C   UNL     1      47.270   3.763  15.624  0.00  0.00    +0.000 C 
ATOM     21  O   UNL     1      47.888   2.869  15.049  0.00  0.00    +0.000 OA
ATOM     22  H   UNL     1      47.402   2.828  17.422  0.00  0.00    +0.000 HD
ATOM     23  H   UNL     1      46.867   4.472  17.529  0.00  0.00    +0.000 HD
ENDBRANCH   1  20
BRANCH   1  24
ATOM     24  N   UNL     1      48.012   5.920  14.711  0.00  0.00    +0.000 N 
ATOM     25  C   UNL     1      48.685   6.625  15.667  0.00  0.00    +0.000 C 
ATOM     26  O   UNL     1      48.355   6.586  16.850  0.00  0.00    +0.000 OA
ATOM     27  H   UNL     1      48.239   6.061  13.733  0.00  0.00    +0.000 HD
BRANCH  25  28
ATOM     28  C   UNL     1      49.867   7.368  15.206  0.00  0.00    +0.000 A 
ATOM     29  C   UNL     1      49.719   8.439  14.336  0.00  0.00    +0.000 A 
ATOM     30  S   UNL     1      51.184   9.233  13.967  0.00  0.00    +0.000 S 
ATOM     31  C   UNL     1      52.081   8.136  14.909  0.00  0.00    +0.000 A 
ATOM     32  N   UNL     1      53.435   8.243  15.009  0.00  0.00    +0.000 NA
ATOM     33  C   UNL     1      53.991   7.328  15.729  0.00  0.00    +0.000 A 
ATOM     34  N   UNL     1      53.318   6.316  16.361  0.00  0.00    +0.000 N 
ATOM     35  C   UNL     1      51.950   6.193  16.321  0.00  0.00    +0.000 A 
ATOM     36  O   UNL     1      51.375   5.315  16.954  0.00  0.00    +0.000 OA
ATOM     37  C   UNL     1      51.273   7.188  15.511  0.00  0.00    +0.000 A 
ATOM     38  H   UNL     1      53.810   5.638  16.923  0.00  0.00    +0.000 HD
ENDBRANCH  25  28
ENDBRANCH   1  24
TORSDOF 7
ENDMDL
MODEL 4
REMARK VINA RESULT:    -7.323      1.326      2.124
REMARK INTER + INTRA:         -11.757
REMARK INTER:                 -10.756
REMARK INTRA:                  -1.002
REMARK UNBOUND:                -1.438
REMARK  Name = 
REMARK  7 active torsions:
REMARK  status: ('A' for Active; 'I' for Inactive)
REMARK    1  A    between atoms: C_2  and  C_4
REMARK    2  A    between atoms: C_4  and  N_5
REMARK    3  A    between atoms: C_4  and  C_18
REMARK    4  A    between atoms: C_6  and  C_8
REMARK    5  A    between atoms: C_21  and  C_22
REMARK    6  A    between atoms: C_22  and  N_23
REMARK    7  A    between atoms: C_24  and  C_26
REMARK                            x       y       z     vdW  Elec       q    Type
REMARK                         _______ _______ _______ _____ _____    ______ ____
ROOT
ATOM      1  C   UNL     1      48.430   7.536  13.675  0.00  0.00    +0.000 C 
ENDROOT
BRANCH   1   2
ATOM      2  C   UNL     1      47.465   6.603  12.958  0.00  0.00    +0.000 A 
ATOM      3  C   UNL     1      46.990   5.451  13.598  0.00  0.00    +0.000 A 
ATOM      4  C   UNL     1      46.062   4.615  12.969  0.00  0.00    +0.000 A 
ATOM      5  C   UNL     1      45.589   4.911  11.683  0.00  0.00    +0.000 A 
ATOM      6  C   UNL     1      46.048   6.067  11.046  0.00  0.00    +0.000 A 
ATOM      7  C   UNL     1      46.981   6.897  11.670  0.00  0.00    +0.000 A 
BRANCH   5   8
ATOM      8  C   UNL     1      44.585   4.015  11.005  0.00  0.00    +0.000 C 
BRANCH   8   9
ATOM      9  N   UNL     1      45.223   3.104  10.089  0.00  0.00    +0.000 N 
ATOM     10  C   UNL     1      45.367   3.416   8.758  0.00  0.00    +0.000 C 
ATOM     11  O   UNL     1      44.944   4.460   8.277  0.00  0.00    +0.000 OA
ATOM     12  H   UNL     1      45.630   2.259  10.456  0.00  0.00    +0.000 HD
BRANCH  10  13
ATOM     13  C   UNL     1      46.060   2.424   7.963  0.00  0.00    +0.000 A 
ATOM     14  C   UNL     1      46.782   2.513   6.783  0.00  0.00    +0.000 A 
ATOM     15  C   UNL     1      47.242   1.218   6.443  0.00  0.00    +0.000 A 
ATOM     16  C   UNL     1      46.798   0.358   7.420  0.00  0.00    +0.000 A 
ATOM     17  N   UNL     1      46.090   1.093   8.334  0.00  0.00    +0.000 N 
ATOM     18  H   UNL     1      45.643   0.734   9.169  0.00  0.00    +0.000 HD
ENDBRANCH  10  13
ENDBRANCH   8   9
ENDBRANCH   5   8
ENDBRANCH   1   2
BRANCH   1  20
ATOM     19  N   UNL     1      47.119   9.629  13.820  0.00  0.00    +0.000 N 
ATOM     20  C   UNL     1      48.233   9.027  13.290  0.00  0.00    +0.000 C 
ATOM     21  O   UNL     1      48.939   9.657  12.504  0.00  0.00    +0.000 OA
ATOM     22  H   UNL     1      46.906  10.554  13.471  0.00  0.00    +0.000 HD
ATOM     23  H   UNL     1      46.339   9.056  14.131  0.00  0.00    +0.000 HD
ENDBRANCH   1  20
BRANCH   1  24
ATOM     24  N   UNL     1      48.273   7.383  15.115  0.00  0.00    +0.000 N 
ATOM     25  C   UNL     1      49.263   6.939  15.944  0.00  0.00    +0.000 C 
ATOM     26  O   UNL     1      50.386   6.671  15.522  0.00  0.00    +0.000 OA
ATOM     27  H   UNL     1      47.331   7.487  15.473  0.00  0.00    +0.000 HD
BRANCH  25  28
ATOM     28  C   UNL     1      48.925   6.873  17.374  0.00  0.00    +0.000 A 
ATOM     29  C   UNL     1      48.584   8.029  18.061  0.00  0.00    +0.000 A 
ATOM     30  S   UNL     1      48.147   7.757  19.689  0.00  0.00    +0.000 S 
ATOM     31  C   UNL     1      48.458   6.090  19.553  0.00  0.00    +0.000 A 
ATOM     32  N   UNL     1      48.297   5.259  20.619  0.00  0.00    +0.000 NA
ATOM     33  C   UNL     1      48.598   4.026  20.385  0.00  0.00    +0.000 A 
ATOM     34  N   UNL     1      49.045   3.546  19.182  0.00  0.00    +0.000 N 
ATOM     35  C   UNL     1      49.183   4.340  18.069  0.00  0.00    +0.000 A 
ATOM     36  O   UNL     1      49.519   3.866  16.991  0.00  0.00    +0.000 OA
ATOM     37  C   UNL     1      48.872   5.743  18.279  0.00  0.00    +0.000 A 
ATOM     38  H   UNL     1      49.250   2.566  19.058  0.00  0.00    +0.000 HD
ENDBRANCH  25  28
ENDBRANCH   1  24
TORSDOF 7
ENDMDL
MODEL 5
REMARK VINA RESULT:    -7.083      3.851      8.521
REMARK INTER + INTRA:         -11.419
REMARK INTER:                 -10.221
REMARK INTRA:                  -1.199
REMARK UNBOUND:                -1.438
REMARK  Name = 
REMARK  7 active torsions:
REMARK  status: ('A' for Active; 'I' for Inactive)
REMARK    1  A    between atoms: C_2  and  C_4
REMARK    2  A    between atoms: C_4  and  N_5
REMARK    3  A    between atoms: C_4  and  C_18
REMARK    4  A    between atoms: C_6  and  C_8
REMARK    5  A    between atoms: C_21  and  C_22
REMARK    6  A    between atoms: C_22  and  N_23
REMARK    7  A    between atoms: C_24  and  C_26
REMARK                            x       y       z     vdW  Elec       q    Type
REMARK                         _______ _______ _______ _____ _____    ______ ____
ROOT
ATOM      1  C   UNL     1      47.881   6.995  13.708  0.00  0.00    +0.000 C 
ENDROOT
BRANCH   1   2
ATOM      2  C   UNL     1      48.204   6.226  14.981  0.00  0.00    +0.000 A 
ATOM      3  C   UNL     1      47.475   5.078  15.316  0.00  0.00    +0.000 A 
ATOM      4  C   UNL     1      47.798   4.334  16.456  0.00  0.00    +0.000 A 
ATOM      5  C   UNL     1      48.857   4.723  17.288  0.00  0.00    +0.000 A 
ATOM      6  C   UNL     1      49.597   5.860  16.949  0.00  0.00    +0.000 A 
ATOM      7  C   UNL     1      49.269   6.607  15.817  0.00  0.00    +0.000 A 
BRANCH   5   8
ATOM      8  C   UNL     1      49.212   3.921  18.512  0.00  0.00    +0.000 C 
BRANCH   8   9
ATOM      9  N   UNL     1      50.522   3.331  18.396  0.00  0.00    +0.000 N 
ATOM     10  C   UNL     1      50.746   2.249  17.580  0.00  0.00    +0.000 C 
ATOM     11  O   UNL     1      49.853   1.715  16.933  0.00  0.00    +0.000 OA
ATOM     12  H   UNL     1      51.292   3.772  18.872  0.00  0.00    +0.000 HD
BRANCH  10  13
ATOM     13  C   UNL     1      52.117   1.784  17.533  0.00  0.00    +0.000 A 
ATOM     14  C   UNL     1      53.323   2.407  17.812  0.00  0.00    +0.000 A 
ATOM     15  C   UNL     1      54.367   1.476  17.592  0.00  0.00    +0.000 A 
ATOM     16  C   UNL     1      53.784   0.298  17.187  0.00  0.00    +0.000 A 
ATOM     17  N   UNL     1      52.428   0.490  17.158  0.00  0.00    +0.000 N 
ATOM     18  H   UNL     1      51.734  -0.201  16.900  0.00  0.00    +0.000 HD
ENDBRANCH  10  13
ENDBRANCH   8   9
ENDBRANCH   5   8
ENDBRANCH   1   2
BRANCH   1  20
ATOM     19  N   UNL     1      49.360   8.923  13.245  0.00  0.00    +0.000 N 
ATOM     20  C   UNL     1      49.139   7.587  13.019  0.00  0.00    +0.000 C 
ATOM     21  O   UNL     1      49.878   6.979  12.247  0.00  0.00    +0.000 OA
ATOM     22  H   UNL     1      50.095   9.350  12.697  0.00  0.00    +0.000 HD
ATOM     23  H   UNL     1      48.588   9.516  13.534  0.00  0.00    +0.000 HD
ENDBRANCH   1  20
BRANCH   1  24
ATOM     24  N   UNL     1      47.184   6.119  12.776  0.00  0.00    +0.000 N 
ATOM     25  C   UNL     1      46.259   6.554  11.871  0.00  0.00    +0.000 C 
ATOM     26  O   UNL     1      45.978   7.744  11.757  0.00  0.00    +0.000 OA
ATOM     27  H   UNL     1      47.311   5.124  12.922  0.00  0.00    +0.000 HD
BRANCH  25  28
ATOM     28  C   UNL     1      45.680   5.523  10.996  0.00  0.00    +0.000 A 
ATOM     29  C   UNL     1      45.836   5.612   9.620  0.00  0.00    +0.000 A 
ATOM     30  S   UNL     1      45.168   4.294   8.765  0.00  0.00    +0.000 S 
ATOM     31  C   UNL     1      44.589   3.585  10.199  0.00  0.00    +0.000 A 
ATOM     32  N   UNL     1      43.892   2.417  10.171  0.00  0.00    +0.000 NA
ATOM     33  C   UNL     1      43.486   2.008  11.326  0.00  0.00    +0.000 A 
ATOM     34  N   UNL     1      43.714   2.660  12.508  0.00  0.00    +0.000 N 
ATOM     35  C   UNL     1      44.447   3.820  12.590  0.00  0.00    +0.000 A 
ATOM     36  O   UNL     1      44.690   4.340  13.672  0.00  0.00    +0.000 OA
ATOM     37  C   UNL     1      44.916   4.334  11.316  0.00  0.00    +0.000 A 
ATOM     38  H   UNL     1      43.382   2.281  13.382  0.00  0.00    +0.000 HD
ENDBRANCH  25  28
ENDBRANCH   1  24
TORSDOF 7
ENDMDL
MODEL 6
REMARK VINA RESULT:    -6.636      2.250      2.644
REMARK INTER + INTRA:         -10.790
REMARK INTER:                  -9.496
REMARK INTRA:                  -1.294
REMARK UNBOUND:                -1.438
REMARK  Name = 
REMARK  7 active torsions:
REMARK  status: ('A' for Active; 'I' for Inactive)
REMARK    1  A    between atoms: C_2  and  C_4
REMARK    2  A    between atoms: C_4  and  N_5
REMARK    3  A    between atoms: C_4  and  C_18
REMARK    4  A    between atoms: C_6  and  C_8
REMARK    5  A    between atoms: C_21  and  C_22
REMARK    6  A    between atoms: C_22  and  N_23
REMARK    7  A    between atoms: C_24  and  C_26
REMARK                            x       y       z     vdW  Elec       q    Type
REMARK                         _______ _______ _______ _____ _____    ______ ____
ROOT
ATOM      1  C   UNL     1      49.200   8.992  14.154  0.00  0.00    +0.000 C 
ENDROOT
BRANCH   1   2
ATOM      2  C   UNL     1      48.109   8.303  13.347  0.00  0.00    +0.000 A 
ATOM      3  C   UNL     1      46.765   8.652  13.535  0.00  0.00    +0.000 A 
ATOM      4  C   UNL     1      45.759   8.062  12.762  0.00  0.00    +0.000 A 
ATOM      5  C   UNL     1      46.074   7.109  11.784  0.00  0.00    +0.000 A 
ATOM      6  C   UNL     1      47.415   6.769  11.582  0.00  0.00    +0.000 A 
ATOM      7  C   UNL     1      48.418   7.350  12.360  0.00  0.00    +0.000 A 
BRANCH   5   8
ATOM      8  C   UNL     1      44.994   6.478  10.945  0.00  0.00    +0.000 C 
BRANCH   8   9
ATOM      9  N   UNL     1      45.531   5.478  10.057  0.00  0.00    +0.000 N 
ATOM     10  C   UNL     1      44.820   4.343   9.748  0.00  0.00    +0.000 C 
ATOM     11  O   UNL     1      43.715   4.108  10.222  0.00  0.00    +0.000 OA
ATOM     12  H   UNL     1      46.414   5.658   9.606  0.00  0.00    +0.000 HD
BRANCH  10  13
ATOM     13  C   UNL     1      45.467   3.443   8.816  0.00  0.00    +0.000 A 
ATOM     14  C   UNL     1      46.080   3.652   7.590  0.00  0.00    +0.000 A 
ATOM     15  C   UNL     1      46.544   2.405   7.105  0.00  0.00    +0.000 A 
ATOM     16  C   UNL     1      46.212   1.455   8.042  0.00  0.00    +0.000 A 
ATOM     17  N   UNL     1      45.568   2.089   9.071  0.00  0.00    +0.000 N 
ATOM     18  H   UNL     1      45.206   1.648   9.909  0.00  0.00    +0.000 HD
ENDBRANCH  10  13
ENDBRANCH   8   9
ENDBRANCH   5   8
ENDBRANCH   1   2
BRANCH   1  20
ATOM     19  N   UNL     1      48.580  10.707  15.825  0.00  0.00    +0.000 N 
ATOM     20  C   UNL     1      48.858  10.466  14.503  0.00  0.00    +0.000 C 
ATOM     21  O   UNL     1      48.745  11.380  13.689  0.00  0.00    +0.000 OA
ATOM     22  H   UNL     1      48.225  11.629  16.042  0.00  0.00    +0.000 HD
ATOM     23  H   UNL     1      48.285   9.940  16.423  0.00  0.00    +0.000 HD
ENDBRANCH   1  20
BRANCH   1  24
ATOM     24  N   UNL     1      49.440   8.246  15.381  0.00  0.00    +0.000 N 
ATOM     25  C   UNL     1      50.600   7.580  15.651  0.00  0.00    +0.000 C 
ATOM     26  O   UNL     1      51.552   7.600  14.874  0.00  0.00    +0.000 OA
ATOM     27  H   UNL     1      48.637   8.118  15.987  0.00  0.00    +0.000 HD
BRANCH  25  28
ATOM     28  C   UNL     1      50.667   6.902  16.955  0.00  0.00    +0.000 A 
ATOM     29  C   UNL     1      51.640   7.263  17.876  0.00  0.00    +0.000 A 
ATOM     30  S   UNL     1      51.522   6.430  19.361  0.00  0.00    +0.000 S 
ATOM     31  C   UNL     1      50.202   5.512  18.807  0.00  0.00    +0.000 A 
ATOM     32  N   UNL     1      49.619   4.573  19.601  0.00  0.00    +0.000 NA
ATOM     33  C   UNL     1      48.650   3.928  19.045  0.00  0.00    +0.000 A 
ATOM     34  N   UNL     1      48.208   4.138  17.765  0.00  0.00    +0.000 N 
ATOM     35  C   UNL     1      48.739   5.101  16.942  0.00  0.00    +0.000 A 
ATOM     36  O   UNL     1      48.274   5.308  15.828  0.00  0.00    +0.000 OA
ATOM     37  C   UNL     1      49.845   5.847  17.513  0.00  0.00    +0.000 A 
ATOM     38  H   UNL     1      47.433   3.610  17.391  0.00  0.00    +0.000 HD
ENDBRANCH  25  28
ENDBRANCH   1  24
TORSDOF 7
ENDMDL
MODEL 7
REMARK VINA RESULT:    -6.586      3.892      6.197
REMARK INTER + INTRA:         -10.719
REMARK INTER:                  -9.472
REMARK INTRA:                  -1.246
REMARK UNBOUND:                -1.438
REMARK  Name = 
REMARK  7 active torsions:
REMARK  status: ('A' for Active; 'I' for Inactive)
REMARK    1  A    between atoms: C_2  and  C_4
REMARK    2  A    between atoms: C_4  and  N_5
REMARK    3  A    between atoms: C_4  and  C_18
REMARK    4  A    between atoms: C_6  and  C_8
REMARK    5  A    between atoms: C_21  and  C_22
REMARK    6  A    between atoms: C_22  and  N_23
REMARK    7  A    between atoms: C_24  and  C_26
REMARK                            x       y       z     vdW  Elec       q    Type
REMARK                         _______ _______ _______ _____ _____    ______ ____
ROOT
ATOM      1  C   UNL     1      47.848   9.155  13.866  0.00  0.00    +0.000 C 
ENDROOT
BRANCH   1   2
ATOM      2  C   UNL     1      46.947   8.173  13.130  0.00  0.00    +0.000 A 
ATOM      3  C   UNL     1      45.711   8.593  12.622  0.00  0.00    +0.000 A 
ATOM      4  C   UNL     1      44.900   7.713  11.898  0.00  0.00    +0.000 A 
ATOM      5  C   UNL     1      45.305   6.391  11.668  0.00  0.00    +0.000 A 
ATOM      6  C   UNL     1      46.544   5.971  12.160  0.00  0.00    +0.000 A 
ATOM      7  C   UNL     1      47.350   6.847  12.890  0.00  0.00    +0.000 A 
BRANCH   5   8
ATOM      8  C   UNL     1      44.436   5.443  10.883  0.00  0.00    +0.000 C 
BRANCH   8   9
ATOM      9  N   UNL     1      45.200   4.719   9.898  0.00  0.00    +0.000 N 
ATOM     10  C   UNL     1      44.824   3.463   9.487  0.00  0.00    +0.000 C 
ATOM     11  O   UNL     1      43.847   2.884   9.946  0.00  0.00    +0.000 OA
ATOM     12  H   UNL     1      45.980   5.181   9.459  0.00  0.00    +0.000 HD
BRANCH  10  13
ATOM     13  C   UNL     1      45.663   2.870   8.466  0.00  0.00    +0.000 A 
ATOM     14  C   UNL     1      46.091   1.569   8.251  0.00  0.00    +0.000 A 
ATOM     15  C   UNL     1      46.908   1.555   7.094  0.00  0.00    +0.000 A 
ATOM     16  C   UNL     1      46.963   2.844   6.619  0.00  0.00    +0.000 A 
ATOM     17  N   UNL     1      46.207   3.629   7.448  0.00  0.00    +0.000 N 
ATOM     18  H   UNL     1      46.056   4.626   7.350  0.00  0.00    +0.000 HD
ENDBRANCH  10  13
ENDBRANCH   8   9
ENDBRANCH   5   8
ENDBRANCH   1   2
BRANCH   1  20
ATOM     19  N   UNL     1      47.525   9.377  16.308  0.00  0.00    +0.000 N 
ATOM     20  C   UNL     1      48.186   8.703  15.311  0.00  0.00    +0.000 C 
ATOM     21  O   UNL     1      49.035   7.867  15.614  0.00  0.00    +0.000 OA
ATOM     22  H   UNL     1      47.834   9.187  17.252  0.00  0.00    +0.000 HD
ATOM     23  H   UNL     1      47.138  10.298  16.119  0.00  0.00    +0.000 HD
ENDBRANCH   1  20
BRANCH   1  24
ATOM     24  N   UNL     1      49.081   9.339  13.114  0.00  0.00    +0.000 N 
ATOM     25  C   UNL     1      49.219  10.225  12.085  0.00  0.00    +0.000 C 
ATOM     26  O   UNL     1      48.300  10.968  11.745  0.00  0.00    +0.000 OA
ATOM     27  H   UNL     1      49.817   8.665  13.295  0.00  0.00    +0.000 HD
BRANCH  25  28
ATOM     28  C   UNL     1      50.549  10.287  11.461  0.00  0.00    +0.000 A 
ATOM     29  C   UNL     1      51.155  11.515  11.237  0.00  0.00    +0.000 A 
ATOM     30  S   UNL     1      52.725  11.398  10.578  0.00  0.00    +0.000 S 
ATOM     31  C   UNL     1      52.630   9.701  10.509  0.00  0.00    +0.000 A 
ATOM     32  N   UNL     1      53.660   8.961  10.014  0.00  0.00    +0.000 NA
ATOM     33  C   UNL     1      53.442   7.689   9.991  0.00  0.00    +0.000 A 
ATOM     34  N   UNL     1      52.288   7.088  10.418  0.00  0.00    +0.000 N 
ATOM     35  C   UNL     1      51.239   7.790  10.961  0.00  0.00    +0.000 A 
ATOM     36  O   UNL     1      50.250   7.214  11.396  0.00  0.00    +0.000 OA
ATOM     37  C   UNL     1      51.424   9.229  10.998  0.00  0.00    +0.000 A 
ATOM     38  H   UNL     1      52.184   6.084  10.388  0.00  0.00    +0.000 HD
ENDBRANCH  25  28
ENDBRANCH   1  24
TORSDOF 7
ENDMDL
MODEL 8
REMARK VINA RESULT:    -6.334      4.605      7.831
REMARK INTER + INTRA:         -10.364
REMARK INTER:                  -9.426
REMARK INTRA:                  -0.938
REMARK UNBOUND:                -1.438
REMARK  Name = 
REMARK  7 active torsions:
REMARK  status: ('A' for Active; 'I' for Inactive)
REMARK    1  A    between atoms: C_2  and  C_4
REMARK    2  A    between atoms: C_4  and  N_5
REMARK    3  A    between atoms: C_4  and  C_18
REMARK    4  A    between atoms: C_6  and  C_8
REMARK    5  A    between atoms: C_21  and  C_22
REMARK    6  A    between atoms: C_22  and  N_23
REMARK    7  A    between atoms: C_24  and  C_26
REMARK                            x       y       z     vdW  Elec       q    Type
REMARK                         _______ _______ _______ _____ _____    ______ ____
ROOT
ATOM      1  C   UNL     1      45.636   8.337  12.692  0.00  0.00    +0.000 C 
ENDROOT
BRANCH   1   2
ATOM      2  C   UNL     1      47.151   8.417  12.574  0.00  0.00    +0.000 A 
ATOM      3  C   UNL     1      47.903   9.061  13.566  0.00  0.00    +0.000 A 
ATOM      4  C   UNL     1      49.300   9.095  13.495  0.00  0.00    +0.000 A 
ATOM      5  C   UNL     1      49.977   8.487  12.429  0.00  0.00    +0.000 A 
ATOM      6  C   UNL     1      49.232   7.831  11.445  0.00  0.00    +0.000 A 
ATOM      7  C   UNL     1      47.838   7.805  11.510  0.00  0.00    +0.000 A 
BRANCH   5   8
ATOM      8  C   UNL     1      51.481   8.516  12.353  0.00  0.00    +0.000 C 
BRANCH   8   9
ATOM      9  N   UNL     1      51.978   7.597  11.360  0.00  0.00    +0.000 N 
ATOM     10  C   UNL     1      52.453   8.043  10.150  0.00  0.00    +0.000 C 
ATOM     11  O   UNL     1      52.457   9.228   9.840  0.00  0.00    +0.000 OA
ATOM     12  H   UNL     1      52.038   6.619  11.596  0.00  0.00    +0.000 HD
BRANCH  10  13
ATOM     13  C   UNL     1      52.953   7.012   9.264  0.00  0.00    +0.000 A 
ATOM     14  C   UNL     1      53.777   5.918   9.478  0.00  0.00    +0.000 A 
ATOM     15  C   UNL     1      53.947   5.240   8.246  0.00  0.00    +0.000 A 
ATOM     16  C   UNL     1      53.221   5.926   7.301  0.00  0.00    +0.000 A 
ATOM     17  N   UNL     1      52.622   6.989   7.923  0.00  0.00    +0.000 N 
ATOM     18  H   UNL     1      52.020   7.675   7.482  0.00  0.00    +0.000 HD
ENDBRANCH  10  13
ENDBRANCH   8   9
ENDBRANCH   5   8
ENDBRANCH   1   2
BRANCH   1  20
ATOM     19  N   UNL     1      43.747   9.175  11.332  0.00  0.00    +0.000 N 
ATOM     20  C   UNL     1      44.909   9.511  11.981  0.00  0.00    +0.000 C 
ATOM     21  O   UNL     1      45.333  10.661  11.896  0.00  0.00    +0.000 OA
ATOM     22  H   UNL     1      43.337   9.897  10.755  0.00  0.00    +0.000 HD
ATOM     23  H   UNL     1      43.587   8.210  11.057  0.00  0.00    +0.000 HD
ENDBRANCH   1  20
BRANCH   1  24
ATOM     24  N   UNL     1      45.173   7.073  12.137  0.00  0.00    +0.000 N 
ATOM     25  C   UNL     1      45.394   5.860  12.723  0.00  0.00    +0.000 C 
ATOM     26  O   UNL     1      45.977   5.760  13.800  0.00  0.00    +0.000 OA
ATOM     27  H   UNL     1      44.790   7.112  11.199  0.00  0.00    +0.000 HD
BRANCH  25  28
ATOM     28  C   UNL     1      44.828   4.695  12.026  0.00  0.00    +0.000 A 
ATOM     29  C   UNL     1      44.072   3.766  12.727  0.00  0.00    +0.000 A 
ATOM     30  S   UNL     1      43.431   2.523  11.749  0.00  0.00    +0.000 S 
ATOM     31  C   UNL     1      44.192   3.145  10.361  0.00  0.00    +0.000 A 
ATOM     32  N   UNL     1      44.063   2.527   9.155  0.00  0.00    +0.000 NA
ATOM     33  C   UNL     1      44.717   3.088   8.194  0.00  0.00    +0.000 A 
ATOM     34  N   UNL     1      45.488   4.212   8.328  0.00  0.00    +0.000 N 
ATOM     35  C   UNL     1      45.614   4.892   9.515  0.00  0.00    +0.000 A 
ATOM     36  O   UNL     1      46.257   5.933   9.583  0.00  0.00    +0.000 OA
ATOM     37  C   UNL     1      44.910   4.295  10.636  0.00  0.00    +0.000 A 
ATOM     38  H   UNL     1      45.965   4.612   7.533  0.00  0.00    +0.000 HD
ENDBRANCH  25  28
ENDBRANCH   1  24
TORSDOF 7
ENDMDL
MODEL 9
REMARK VINA RESULT:    -6.283      3.911      6.109
REMARK INTER + INTRA:         -10.293
REMARK INTER:                  -8.880
REMARK INTRA:                  -1.413
REMARK UNBOUND:                -1.438
REMARK  Name = 
REMARK  7 active torsions:
REMARK  status: ('A' for Active; 'I' for Inactive)
REMARK    1  A    between atoms: C_2  and  C_4
REMARK    2  A    between atoms: C_4  and  N_5
REMARK    3  A    between atoms: C_4  and  C_18
REMARK    4  A    between atoms: C_6  and  C_8
REMARK    5  A    between atoms: C_21  and  C_22
REMARK    6  A    between atoms: C_22  and  N_23
REMARK    7  A    between atoms: C_24  and  C_26
REMARK                            x       y       z     vdW  Elec       q    Type
REMARK                         _______ _______ _______ _____ _____    ______ ____
ROOT
ATOM      1  C   UNL     1      49.209   8.028  15.011  0.00  0.00    +0.000 C 
ENDROOT
BRANCH   1   2
ATOM      2  C   UNL     1      48.058   7.740  14.057  0.00  0.00    +0.000 A 
ATOM      3  C   UNL     1      47.923   6.472  13.476  0.00  0.00    +0.000 A 
ATOM      4  C   UNL     1      46.840   6.182  12.640  0.00  0.00    +0.000 A 
ATOM      5  C   UNL     1      45.868   7.153  12.364  0.00  0.00    +0.000 A 
ATOM      6  C   UNL     1      45.991   8.415  12.953  0.00  0.00    +0.000 A 
ATOM      7  C   UNL     1      47.076   8.708  13.779  0.00  0.00    +0.000 A 
BRANCH   5   8
ATOM      8  C   UNL     1      44.698   6.840  11.468  0.00  0.00    +0.000 C 
BRANCH   8   9
ATOM      9  N   UNL     1      45.006   5.774  10.549  0.00  0.00    +0.000 N 
ATOM     10  C   UNL     1      44.297   4.597  10.560  0.00  0.00    +0.000 C 
ATOM     11  O   UNL     1      43.392   4.379  11.357  0.00  0.00    +0.000 OA
ATOM     12  H   UNL     1      45.708   5.933   9.845  0.00  0.00    +0.000 HD
BRANCH  10  13
ATOM     13  C   UNL     1      44.692   3.628   9.558  0.00  0.00    +0.000 A 
ATOM     14  C   UNL     1      44.889   3.730   8.190  0.00  0.00    +0.000 A 
ATOM     15  C   UNL     1      45.268   2.457   7.698  0.00  0.00    +0.000 A 
ATOM     16  C   UNL     1      45.302   1.599   8.773  0.00  0.00    +0.000 A 
ATOM     17  N   UNL     1      44.957   2.313   9.890  0.00  0.00    +0.000 N 
ATOM     18  H   UNL     1      44.897   1.950  10.834  0.00  0.00    +0.000 HD
ENDBRANCH  10  13
ENDBRANCH   8   9
ENDBRANCH   5   8
ENDBRANCH   1   2
BRANCH   1  20
ATOM     19  N   UNL     1      48.412   7.086  17.154  0.00  0.00    +0.000 N 
ATOM     20  C   UNL     1      49.335   6.975  16.145  0.00  0.00    +0.000 C 
ATOM     21  O   UNL     1      50.225   6.132  16.235  0.00  0.00    +0.000 OA
ATOM     22  H   UNL     1      48.565   6.496  17.962  0.00  0.00    +0.000 HD
ATOM     23  H   UNL     1      47.939   7.973  17.307  0.00  0.00    +0.000 HD
ENDBRANCH   1  20
BRANCH   1  24
ATOM     24  N   UNL     1      50.457   8.086  14.262  0.00  0.00    +0.000 N 
ATOM     25  C   UNL     1      51.012   9.244  13.800  0.00  0.00    +0.000 C 
ATOM     26  O   UNL     1      50.503  10.339  14.027  0.00  0.00    +0.000 OA
ATOM     27  H   UNL     1      50.838   7.195  13.964  0.00  0.00    +0.000 HD
BRANCH  25  28
ATOM     28  C   UNL     1      52.290   9.106  13.084  0.00  0.00    +0.000 A 
ATOM     29  C   UNL     1      53.446   9.664  13.612  0.00  0.00    +0.000 A 
ATOM     30  S   UNL     1      54.846   9.341  12.691  0.00  0.00    +0.000 S 
ATOM     31  C   UNL     1      53.950   8.495  11.519  0.00  0.00    +0.000 A 
ATOM     32  N   UNL     1      54.557   7.961  10.424  0.00  0.00    +0.000 NA
ATOM     33  C   UNL     1      53.755   7.374   9.601  0.00  0.00    +0.000 A 
ATOM     34  N   UNL     1      52.400   7.271   9.773  0.00  0.00    +0.000 N 
ATOM     35  C   UNL     1      51.750   7.759  10.880  0.00  0.00    +0.000 A 
ATOM     36  O   UNL     1      50.547   7.590  11.034  0.00  0.00    +0.000 OA
ATOM     37  C   UNL     1      52.603   8.444  11.834  0.00  0.00    +0.000 A 
ATOM     38  H   UNL     1      51.827   6.785   9.098  0.00  0.00    +0.000 HD
ENDBRANCH  25  28
ENDBRANCH   1  24
TORSDOF 7
ENDMDL
