MODEL 1
REMARK VINA RESULT:    -8.279      0.000      0.000
REMARK INTER + INTRA:         -13.022
REMARK INTER:                 -11.668
REMARK INTRA:                  -1.354
REMARK UNBOUND:                -1.354
REMARK  Name = 
REMARK  7 active torsions:
REMARK  status: ('A' for Active; 'I' for Inactive)
REMARK    1  A    between atoms: C_2  and  C_4
REMARK    2  A    between atoms: C_7  and  C_8
REMARK    3  A    between atoms: C_8  and  N_9
REMARK    4  A    between atoms: C_10  and  C_12
REMARK    5  A    between atoms: C_23  and  C_24
REMARK    6  A    between atoms: C_24  and  N_25
REMARK    7  A    between atoms: C_26  and  C_28
REMARK                            x       y       z     vdW  Elec       q    Type
REMARK                         _______ _______ _______ _____ _____    ______ ____
ROOT
ATOM      1  C   UNL     1      45.209   4.948  12.704  0.00  0.00    +0.000 A 
ATOM      2  C   UNL     1      46.057   5.149  13.805  0.00  0.00    +0.000 A 
ATOM      3  C   UNL     1      47.167   5.987  13.710  0.00  0.00    +0.000 A 
ATOM      4  C   UNL     1      47.482   6.604  12.499  0.00  0.00    +0.000 A 
ATOM      5  C   UNL     1      46.631   6.418  11.400  0.00  0.00    +0.000 A 
ATOM      6  C   UNL     1      45.478   5.610  11.489  0.00  0.00    +0.000 A 
ENDROOT
BRANCH   1   8
ATOM      7  N   UNL     1      44.331   2.673  12.549  0.00  0.00    +0.000 N 
ATOM      8  C   UNL     1      44.074   3.986  12.846  0.00  0.00    +0.000 C 
ATOM      9  O   UNL     1      42.960   4.335  13.206  0.00  0.00    +0.000 OA
ATOM     10  H   UNL     1      43.573   2.013  12.651  0.00  0.00    +0.000 HD
ATOM     11  H   UNL     1      45.256   2.309  12.370  0.00  0.00    +0.000 HD
ENDBRANCH   1   8
BRANCH   4  12
ATOM     12  C   UNL     1      48.713   7.460  12.391  0.00  0.00    +0.000 C 
BRANCH  12  13
ATOM     13  N   UNL     1      49.709   7.086  13.361  0.00  0.00    +0.000 N 
ATOM     14  C   UNL     1      49.899   7.765  14.536  0.00  0.00    +0.000 C 
ATOM     15  O   UNL     1      49.252   8.765  14.832  0.00  0.00    +0.000 OA
ATOM     16  H   UNL     1      50.397   6.404  13.060  0.00  0.00    +0.000 HD
BRANCH  14  17
ATOM     17  C   UNL     1      50.869   7.177  15.470  0.00  0.00    +0.000 A 
ATOM     18  C   UNL     1      52.213   7.511  15.365  0.00  0.00    +0.000 A 
ATOM     19  S   UNL     1      53.191   6.794  16.564  0.00  0.00    +0.000 S 
ATOM     20  C   UNL     1      51.861   5.972  17.235  0.00  0.00    +0.000 A 
ATOM     21  N   UNL     1      52.017   5.147  18.305  0.00  0.00    +0.000 NA
ATOM     22  C   UNL     1      50.933   4.559  18.687  0.00  0.00    +0.000 A 
ATOM     23  N   UNL     1      49.706   4.728  18.102  0.00  0.00    +0.000 N 
ATOM     24  C   UNL     1      49.489   5.594  17.057  0.00  0.00    +0.000 A 
ATOM     25  O   UNL     1      48.361   5.793  16.619  0.00  0.00    +0.000 OA
ATOM     26  C   UNL     1      50.684   6.257  16.566  0.00  0.00    +0.000 A 
ATOM     27  H   UNL     1      48.890   4.254  18.462  0.00  0.00    +0.000 HD
ENDBRANCH  14  17
ENDBRANCH  12  13
ENDBRANCH   4  12
BRANCH   6  28
ATOM     28  C   UNL     1      44.599   5.504  10.268  0.00  0.00    +0.000 C 
BRANCH  28  29
ATOM     29  N   UNL     1      45.238   4.784   9.200  0.00  0.00    +0.000 N 
ATOM     30  C   UNL     1      45.056   3.440   8.962  0.00  0.00    +0.000 C 
ATOM     31  O   UNL     1      44.247   2.760   9.587  0.00  0.00    +0.000 OA
ATOM     32  H   UNL     1      45.861   5.304   8.589  0.00  0.00    +0.000 HD
BRANCH  30  33
ATOM     33  C   UNL     1      45.918   2.909   7.923  0.00  0.00    +0.000 A 
ATOM     34  C   UNL     1      46.372   3.456   6.735  0.00  0.00    +0.000 A 
ATOM     35  C   UNL     1      47.153   2.459   6.098  0.00  0.00    +0.000 A 
ATOM     36  C   UNL     1      47.122   1.363   6.925  0.00  0.00    +0.000 A 
ATOM     37  O   UNL     1      46.391   1.623   8.036  0.00  0.00    +0.000 OA
ENDBRANCH  30  33
ENDBRANCH  28  29
ENDBRANCH   6  28
TORSDOF 7
ENDMDL
MODEL 2
REMARK VINA RESULT:    -8.205      2.702      3.410
REMARK INTER + INTRA:         -12.917
REMARK INTER:                 -12.337
REMARK INTRA:                  -0.580
REMARK UNBOUND:                -1.354
REMARK  Name = 
REMARK  7 active torsions:
REMARK  status: ('A' for Active; 'I' for Inactive)
REMARK    1  A    between atoms: C_2  and  C_4
REMARK    2  A    between atoms: C_7  and  C_8
REMARK    3  A    between atoms: C_8  and  N_9
REMARK    4  A    between atoms: C_10  and  C_12
REMARK    5  A    between atoms: C_23  and  C_24
REMARK    6  A    between atoms: C_24  and  N_25
REMARK    7  A    between atoms: C_26  and  C_28
REMARK                            x       y       z     vdW  Elec       q    Type
REMARK                         _______ _______ _______ _____ _____    ______ ____
ROOT
ATOM      1  C   UNL     1      45.094   7.018  12.033  0.00  0.00    +0.000 A 
ATOM      2  C   UNL     1      46.029   7.388  13.014  0.00  0.00    +0.000 A 
ATOM      3  C   UNL     1      46.708   6.423  13.756  0.00  0.00    +0.000 A 
ATOM      4  C   UNL     1      46.433   5.068  13.569  0.00  0.00    +0.000 A 
ATOM      5  C   UNL     1      45.511   4.692  12.580  0.00  0.00    +0.000 A 
ATOM      6  C   UNL     1      44.848   5.651  11.788  0.00  0.00    +0.000 A 
ENDROOT
BRANCH   1   8
ATOM      7  N   UNL     1      43.023   7.866  11.053  0.00  0.00    +0.000 N 
ATOM      8  C   UNL     1      44.348   8.097  11.317  0.00  0.00    +0.000 C 
ATOM      9  O   UNL     1      44.878   9.142  10.972  0.00  0.00    +0.000 OA
ATOM     10  H   UNL     1      42.507   8.594  10.578  0.00  0.00    +0.000 HD
ATOM     11  H   UNL     1      42.506   7.082  11.423  0.00  0.00    +0.000 HD
ENDBRANCH   1   8
BRANCH   4  12
ATOM     12  C   UNL     1      47.129   4.037  14.413  0.00  0.00    +0.000 C 
BRANCH  12  13
ATOM     13  N   UNL     1      47.625   4.601  15.641  0.00  0.00    +0.000 N 
ATOM     14  C   UNL     1      47.238   4.155  16.877  0.00  0.00    +0.000 C 
ATOM     15  O   UNL     1      46.412   3.260  17.027  0.00  0.00    +0.000 OA
ATOM     16  H   UNL     1      48.140   5.472  15.561  0.00  0.00    +0.000 HD
BRANCH  14  17
ATOM     17  C   UNL     1      47.934   4.754  18.025  0.00  0.00    +0.000 A 
ATOM     18  C   UNL     1      47.262   5.649  18.846  0.00  0.00    +0.000 A 
ATOM     19  S   UNL     1      48.192   6.197  20.166  0.00  0.00    +0.000 S 
ATOM     20  C   UNL     1      49.543   5.298  19.658  0.00  0.00    +0.000 A 
ATOM     21  N   UNL     1      50.711   5.338  20.354  0.00  0.00    +0.000 NA
ATOM     22  C   UNL     1      51.665   4.638  19.836  0.00  0.00    +0.000 A 
ATOM     23  N   UNL     1      51.553   3.894  18.690  0.00  0.00    +0.000 N 
ATOM     24  C   UNL     1      50.379   3.777  17.987  0.00  0.00    +0.000 A 
ATOM     25  O   UNL     1      50.288   3.028  17.021  0.00  0.00    +0.000 OA
ATOM     26  C   UNL     1      49.282   4.572  18.509  0.00  0.00    +0.000 A 
ATOM     27  H   UNL     1      52.333   3.350  18.348  0.00  0.00    +0.000 HD
ENDBRANCH  14  17
ENDBRANCH  12  13
ENDBRANCH   4  12
BRANCH   6  28
ATOM     28  C   UNL     1      43.906   5.151  10.720  0.00  0.00    +0.000 C 
BRANCH  28  29
ATOM     29  N   UNL     1      44.608   4.570   9.608  0.00  0.00    +0.000 N 
ATOM     30  C   UNL     1      44.636   3.220   9.338  0.00  0.00    +0.000 C 
ATOM     31  O   UNL     1      43.974   2.403   9.972  0.00  0.00    +0.000 OA
ATOM     32  H   UNL     1      45.111   5.199   8.989  0.00  0.00    +0.000 HD
BRANCH  30  33
ATOM     33  C   UNL     1      45.526   2.860   8.251  0.00  0.00    +0.000 A 
ATOM     34  C   UNL     1      46.300   1.733   8.029  0.00  0.00    +0.000 A 
ATOM     35  C   UNL     1      47.003   1.951   6.818  0.00  0.00    +0.000 A 
ATOM     36  C   UNL     1      46.629   3.197   6.378  0.00  0.00    +0.000 A 
ATOM     37  O   UNL     1      45.729   3.753   7.226  0.00  0.00    +0.000 OA
ENDBRANCH  30  33
ENDBRANCH  28  29
ENDBRANCH   6  28
TORSDOF 7
ENDMDL
MODEL 3
REMARK VINA RESULT:    -8.179      1.856      2.369
REMARK INTER + INTRA:         -12.880
REMARK INTER:                 -11.923
REMARK INTRA:                  -0.957
REMARK UNBOUND:                -1.354
REMARK  Name = 
REMARK  7 active torsions:
REMARK  status: ('A' for Active; 'I' for Inactive)
REMARK    1  A    between atoms: C_2  and  C_4
REMARK    2  A    between atoms: C_7  and  C_8
REMARK    3  A    between atoms: C_8  and  N_9
REMARK    4  A    between atoms: C_10  and  C_12
REMARK    5  A    between atoms: C_23  and  C_24
REMARK    6  A    between atoms: C_24  and  N_25
REMARK    7  A    between atoms: C_26  and  C_28
REMARK                            x       y       z     vdW  Elec       q    Type
REMARK                         _______ _______ _______ _____ _____    ______ ____
ROOT
ATOM      1  C   UNL     1      44.408   6.970  11.571  0.00  0.00    +0.000 A 
ATOM      2  C   UNL     1      44.986   8.187  11.967  0.00  0.00    +0.000 A 
ATOM      3  C   UNL     1      46.358   8.287  12.195  0.00  0.00    +0.000 A 
ATOM      4  C   UNL     1      47.175   7.162  12.079  0.00  0.00    +0.000 A 
ATOM      5  C   UNL     1      46.605   5.948  11.670  0.00  0.00    +0.000 A 
ATOM      6  C   UNL     1      45.227   5.837  11.391  0.00  0.00    +0.000 A 
ENDROOT
BRANCH   1   8
ATOM      7  N   UNL     1      42.293   8.056  11.007  0.00  0.00    +0.000 N 
ATOM      8  C   UNL     1      42.924   6.907  11.408  0.00  0.00    +0.000 C 
ATOM      9  O   UNL     1      42.284   5.888  11.619  0.00  0.00    +0.000 OA
ATOM     10  H   UNL     1      41.290   8.021  10.885  0.00  0.00    +0.000 HD
ATOM     11  H   UNL     1      42.780   8.884  10.699  0.00  0.00    +0.000 HD
ENDBRANCH   1   8
BRANCH   4  12
ATOM     12  C   UNL     1      48.644   7.268  12.382  0.00  0.00    +0.000 C 
BRANCH  12  13
ATOM     13  N   UNL     1      48.976   6.639  13.634  0.00  0.00    +0.000 N 
ATOM     14  C   UNL     1      48.861   7.275  14.842  0.00  0.00    +0.000 C 
ATOM     15  O   UNL     1      48.496   8.443  14.941  0.00  0.00    +0.000 OA
ATOM     16  H   UNL     1      49.476   5.758  13.578  0.00  0.00    +0.000 HD
BRANCH  14  17
ATOM     17  C   UNL     1      49.120   6.451  16.031  0.00  0.00    +0.000 A 
ATOM     18  C   UNL     1      50.118   6.823  16.921  0.00  0.00    +0.000 A 
ATOM     19  S   UNL     1      50.242   5.797  18.277  0.00  0.00    +0.000 S 
ATOM     20  C   UNL     1      49.000   4.789  17.698  0.00  0.00    +0.000 A 
ATOM     21  N   UNL     1      48.615   3.685  18.391  0.00  0.00    +0.000 NA
ATOM     22  C   UNL     1      47.689   2.991  17.818  0.00  0.00    +0.000 A 
ATOM     23  N   UNL     1      47.107   3.307  16.618  0.00  0.00    +0.000 N 
ATOM     24  C   UNL     1      47.422   4.442  15.911  0.00  0.00    +0.000 A 
ATOM     25  O   UNL     1      46.815   4.744  14.890  0.00  0.00    +0.000 OA
ATOM     26  C   UNL     1      48.484   5.241  16.496  0.00  0.00    +0.000 A 
ATOM     27  H   UNL     1      46.371   2.733  16.233  0.00  0.00    +0.000 HD
ENDBRANCH  14  17
ENDBRANCH  12  13
ENDBRANCH   4  12
BRANCH   6  28
ATOM     28  C   UNL     1      44.712   4.501  10.915  0.00  0.00    +0.000 C 
BRANCH  28  29
ATOM     29  N   UNL     1      45.335   4.086   9.687  0.00  0.00    +0.000 N 
ATOM     30  C   UNL     1      45.159   2.845   9.117  0.00  0.00    +0.000 C 
ATOM     31  O   UNL     1      44.368   2.018   9.562  0.00  0.00    +0.000 OA
ATOM     32  H   UNL     1      45.940   4.753   9.218  0.00  0.00    +0.000 HD
BRANCH  30  33
ATOM     33  C   UNL     1      46.002   2.608   7.961  0.00  0.00    +0.000 A 
ATOM     34  C   UNL     1      46.278   3.385   6.848  0.00  0.00    +0.000 A 
ATOM     35  C   UNL     1      47.141   2.623   6.022  0.00  0.00    +0.000 A 
ATOM     36  C   UNL     1      47.333   1.426   6.669  0.00  0.00    +0.000 A 
ATOM     37  O   UNL     1      46.662   1.408   7.847  0.00  0.00    +0.000 OA
ENDBRANCH  30  33
ENDBRANCH  28  29
ENDBRANCH   6  28
TORSDOF 7
ENDMDL
MODEL 4
REMARK VINA RESULT:    -7.943      2.401      3.351
REMARK INTER + INTRA:         -12.548
REMARK INTER:                 -11.190
REMARK INTRA:                  -1.357
REMARK UNBOUND:                -1.354
REMARK  Name = 
REMARK  7 active torsions:
REMARK  status: ('A' for Active; 'I' for Inactive)
REMARK    1  A    between atoms: C_2  and  C_4
REMARK    2  A    between atoms: C_7  and  C_8
REMARK    3  A    between atoms: C_8  and  N_9
REMARK    4  A    between atoms: C_10  and  C_12
REMARK    5  A    between atoms: C_23  and  C_24
REMARK    6  A    between atoms: C_24  and  N_25
REMARK    7  A    between atoms: C_26  and  C_28
REMARK                            x       y       z     vdW  Elec       q    Type
REMARK                         _______ _______ _______ _____ _____    ______ ____
ROOT
ATOM      1  C   UNL     1      44.237   5.179  12.158  0.00  0.00    +0.000 A 
ATOM      2  C   UNL     1      44.953   5.854  13.161  0.00  0.00    +0.000 A 
ATOM      3  C   UNL     1      45.999   5.228  13.838  0.00  0.00    +0.000 A 
ATOM      4  C   UNL     1      46.322   3.900  13.562  0.00  0.00    +0.000 A 
ATOM      5  C   UNL     1      45.620   3.226  12.551  0.00  0.00    +0.000 A 
ATOM      6  C   UNL     1      44.589   3.855  11.824  0.00  0.00    +0.000 A 
ENDROOT
BRANCH   1   8
ATOM      7  N   UNL     1      43.377   6.897  10.649  0.00  0.00    +0.000 N 
ATOM      8  C   UNL     1      43.082   5.877  11.515  0.00  0.00    +0.000 C 
ATOM      9  O   UNL     1      41.922   5.568  11.740  0.00  0.00    +0.000 OA
ATOM     10  H   UNL     1      42.604   7.369  10.201  0.00  0.00    +0.000 HD
ATOM     11  H   UNL     1      44.311   7.111  10.331  0.00  0.00    +0.000 HD
ENDBRANCH   1   8
BRANCH   4  12
ATOM     12  C   UNL     1      47.414   3.216  14.337  0.00  0.00    +0.000 C 
BRANCH  12  13
ATOM     13  N   UNL     1      47.649   3.857  15.604  0.00  0.00    +0.000 N 
ATOM     14  C   UNL     1      48.494   3.346  16.553  0.00  0.00    +0.000 C 
ATOM     15  O   UNL     1      49.089   2.283  16.404  0.00  0.00    +0.000 OA
ATOM     16  H   UNL     1      47.021   4.616  15.849  0.00  0.00    +0.000 HD
BRANCH  14  17
ATOM     17  C   UNL     1      48.717   4.188  17.737  0.00  0.00    +0.000 A 
ATOM     18  C   UNL     1      48.469   3.674  19.003  0.00  0.00    +0.000 A 
ATOM     19  S   UNL     1      48.842   4.758  20.266  0.00  0.00    +0.000 S 
ATOM     20  C   UNL     1      49.301   5.970  19.164  0.00  0.00    +0.000 A 
ATOM     21  N   UNL     1      49.717   7.189  19.600  0.00  0.00    +0.000 NA
ATOM     22  C   UNL     1      49.998   8.025  18.658  0.00  0.00    +0.000 A 
ATOM     23  N   UNL     1      49.909   7.750  17.318  0.00  0.00    +0.000 N 
ATOM     24  C   UNL     1      49.550   6.516  16.832  0.00  0.00    +0.000 A 
ATOM     25  O   UNL     1      49.573   6.274  15.629  0.00  0.00    +0.000 OA
ATOM     26  C   UNL     1      49.191   5.547  17.852  0.00  0.00    +0.000 A 
ATOM     27  H   UNL     1      50.164   8.442  16.629  0.00  0.00    +0.000 HD
ENDBRANCH  14  17
ENDBRANCH  12  13
ENDBRANCH   4  12
BRANCH   6  28
ATOM     28  C   UNL     1      43.920   3.065  10.726  0.00  0.00    +0.000 C 
BRANCH  28  29
ATOM     29  N   UNL     1      44.838   2.708   9.679  0.00  0.00    +0.000 N 
ATOM     30  C   UNL     1      45.209   3.557   8.660  0.00  0.00    +0.000 C 
ATOM     31  O   UNL     1      44.860   4.733   8.617  0.00  0.00    +0.000 OA
ATOM     32  H   UNL     1      45.233   1.773   9.698  0.00  0.00    +0.000 HD
BRANCH  30  33
ATOM     33  C   UNL     1      46.030   2.926   7.644  0.00  0.00    +0.000 A 
ATOM     34  C   UNL     1      46.715   1.722   7.630  0.00  0.00    +0.000 A 
ATOM     35  C   UNL     1      47.383   1.646   6.383  0.00  0.00    +0.000 A 
ATOM     36  C   UNL     1      47.079   2.807   5.714  0.00  0.00    +0.000 A 
ATOM     37  O   UNL     1      46.253   3.584   6.458  0.00  0.00    +0.000 OA
ENDBRANCH  30  33
ENDBRANCH  28  29
ENDBRANCH   6  28
TORSDOF 7
ENDMDL
MODEL 5
REMARK VINA RESULT:    -7.805      2.595      3.379
REMARK INTER + INTRA:         -12.354
REMARK INTER:                 -11.160
REMARK INTRA:                  -1.194
REMARK UNBOUND:                -1.354
REMARK  Name = 
REMARK  7 active torsions:
REMARK  status: ('A' for Active; 'I' for Inactive)
REMARK    1  A    between atoms: C_2  and  C_4
REMARK    2  A    between atoms: C_7  and  C_8
REMARK    3  A    between atoms: C_8  and  N_9
REMARK    4  A    between atoms: C_10  and  C_12
REMARK    5  A    between atoms: C_23  and  C_24
REMARK    6  A    between atoms: C_24  and  N_25
REMARK    7  A    between atoms: C_26  and  C_28
REMARK                            x       y       z     vdW  Elec       q    Type
REMARK                         _______ _______ _______ _____ _____    ______ ____
ROOT
ATOM      1  C   UNL     1      45.682   9.240  11.632  0.00  0.00    +0.000 A 
ATOM      2  C   UNL     1      46.780  10.085  11.859  0.00  0.00    +0.000 A 
ATOM      3  C   UNL     1      48.037   9.561  12.156  0.00  0.00    +0.000 A 
ATOM      4  C   UNL     1      48.215   8.183  12.280  0.00  0.00    +0.000 A 
ATOM      5  C   UNL     1      47.125   7.334  12.040  0.00  0.00    +0.000 A 
ATOM      6  C   UNL     1      45.856   7.842  11.694  0.00  0.00    +0.000 A 
ENDROOT
BRANCH   1   8
ATOM      7  N   UNL     1      43.686  10.371  12.474  0.00  0.00    +0.000 N 
ATOM      8  C   UNL     1      44.344   9.859  11.386  0.00  0.00    +0.000 C 
ATOM      9  O   UNL     1      43.842   9.914  10.273  0.00  0.00    +0.000 OA
ATOM     10  H   UNL     1      42.785  10.801  12.316  0.00  0.00    +0.000 HD
ATOM     11  H   UNL     1      44.104  10.467  13.387  0.00  0.00    +0.000 HD
ENDBRANCH   1   8
BRANCH   4  12
ATOM     12  C   UNL     1      49.562   7.632  12.656  0.00  0.00    +0.000 C 
BRANCH  12  13
ATOM     13  N   UNL     1      49.518   6.928  13.911  0.00  0.00    +0.000 N 
ATOM     14  C   UNL     1      49.450   7.566  15.122  0.00  0.00    +0.000 C 
ATOM     15  O   UNL     1      49.455   8.789  15.224  0.00  0.00    +0.000 OA
ATOM     16  H   UNL     1      49.724   5.935  13.879  0.00  0.00    +0.000 HD
BRANCH  14  17
ATOM     17  C   UNL     1      49.284   6.700  16.297  0.00  0.00    +0.000 A 
ATOM     18  C   UNL     1      49.954   7.004  17.475  0.00  0.00    +0.000 A 
ATOM     19  S   UNL     1      49.600   5.938  18.758  0.00  0.00    +0.000 S 
ATOM     20  C   UNL     1      48.580   5.001  17.771  0.00  0.00    +0.000 A 
ATOM     21  N   UNL     1      47.956   3.895  18.260  0.00  0.00    +0.000 NA
ATOM     22  C   UNL     1      47.242   3.258  17.393  0.00  0.00    +0.000 A 
ATOM     23  N   UNL     1      47.089   3.631  16.083  0.00  0.00    +0.000 N 
ATOM     24  C   UNL     1      47.652   4.770  15.560  0.00  0.00    +0.000 A 
ATOM     25  O   UNL     1      47.417   5.126  14.410  0.00  0.00    +0.000 OA
ATOM     26  C   UNL     1      48.493   5.507  16.486  0.00  0.00    +0.000 A 
ATOM     27  H   UNL     1      46.499   3.100  15.459  0.00  0.00    +0.000 HD
ENDBRANCH  14  17
ENDBRANCH  12  13
ENDBRANCH   4  12
BRANCH   6  28
ATOM     28  C   UNL     1      44.755   6.850  11.412  0.00  0.00    +0.000 C 
BRANCH  28  29
ATOM     29  N   UNL     1      45.122   5.909  10.388  0.00  0.00    +0.000 N 
ATOM     30  C   UNL     1      44.442   4.737  10.141  0.00  0.00    +0.000 C 
ATOM     31  O   UNL     1      43.396   4.445  10.713  0.00  0.00    +0.000 OA
ATOM     32  H   UNL     1      45.933   6.128   9.817  0.00  0.00    +0.000 HD
BRANCH  30  33
ATOM     33  C   UNL     1      45.085   3.885   9.160  0.00  0.00    +0.000 A 
ATOM     34  C   UNL     1      45.282   2.514   9.119  0.00  0.00    +0.000 A 
ATOM     35  C   UNL     1      46.011   2.241   7.935  0.00  0.00    +0.000 A 
ATOM     36  C   UNL     1      46.227   3.455   7.329  0.00  0.00    +0.000 A 
ATOM     37  O   UNL     1      45.663   4.455   8.051  0.00  0.00    +0.000 OA
ENDBRANCH  30  33
ENDBRANCH  28  29
ENDBRANCH   6  28
TORSDOF 7
ENDMDL
MODEL 6
REMARK VINA RESULT:    -7.545      3.440      4.577
REMARK INTER + INTRA:         -11.986
REMARK INTER:                 -10.609
REMARK INTRA:                  -1.378
REMARK UNBOUND:                -1.354
REMARK  Name = 
REMARK  7 active torsions:
REMARK  status: ('A' for Active; 'I' for Inactive)
REMARK    1  A    between atoms: C_2  and  C_4
REMARK    2  A    between atoms: C_7  and  C_8
REMARK    3  A    between atoms: C_8  and  N_9
REMARK    4  A    between atoms: C_10  and  C_12
REMARK    5  A    between atoms: C_23  and  C_24
REMARK    6  A    between atoms: C_24  and  N_25
REMARK    7  A    between atoms: C_26  and  C_28
REMARK                            x       y       z     vdW  Elec       q    Type
REMARK                         _______ _______ _______ _____ _____    ______ ____
ROOT
ATOM      1  C   UNL     1      46.211   5.235  12.751  0.00  0.00    +0.000 A 
ATOM      2  C   UNL     1      47.210   5.518  13.696  0.00  0.00    +0.000 A 
ATOM      3  C   UNL     1      48.118   6.556  13.489  0.00  0.00    +0.000 A 
ATOM      4  C   UNL     1      48.078   7.303  12.311  0.00  0.00    +0.000 A 
ATOM      5  C   UNL     1      47.072   7.034  11.370  0.00  0.00    +0.000 A 
ATOM      6  C   UNL     1      46.118   6.018  11.582  0.00  0.00    +0.000 A 
ENDROOT
BRANCH   1   8
ATOM      7  N   UNL     1      45.771   2.836  12.610  0.00  0.00    +0.000 N 
ATOM      8  C   UNL     1      45.310   4.068  12.995  0.00  0.00    +0.000 C 
ATOM      9  O   UNL     1      44.208   4.187  13.509  0.00  0.00    +0.000 OA
ATOM     10  H   UNL     1      45.173   2.039  12.780  0.00  0.00    +0.000 HD
ATOM     11  H   UNL     1      46.715   2.663  12.300  0.00  0.00    +0.000 HD
ENDBRANCH   1   8
BRANCH   4  12
ATOM     12  C   UNL     1      49.096   8.382  12.072  0.00  0.00    +0.000 C 
BRANCH  12  13
ATOM     13  N   UNL     1      50.428   7.845  11.969  0.00  0.00    +0.000 N 
ATOM     14  C   UNL     1      51.434   8.473  11.284  0.00  0.00    +0.000 C 
ATOM     15  O   UNL     1      51.263   9.527  10.679  0.00  0.00    +0.000 OA
ATOM     16  H   UNL     1      50.551   6.885  12.272  0.00  0.00    +0.000 HD
BRANCH  14  17
ATOM     17  C   UNL     1      52.764   7.854  11.383  0.00  0.00    +0.000 A 
ATOM     18  C   UNL     1      53.521   8.032  12.534  0.00  0.00    +0.000 A 
ATOM     19  S   UNL     1      55.005   7.195  12.512  0.00  0.00    +0.000 S 
ATOM     20  C   UNL     1      54.713   6.606  10.943  0.00  0.00    +0.000 A 
ATOM     21  N   UNL     1      55.625   5.819  10.310  0.00  0.00    +0.000 NA
ATOM     22  C   UNL     1      55.291   5.475   9.111  0.00  0.00    +0.000 A 
ATOM     23  N   UNL     1      54.125   5.840   8.491  0.00  0.00    +0.000 N 
ATOM     24  C   UNL     1      53.150   6.583   9.110  0.00  0.00    +0.000 A 
ATOM     25  O   UNL     1      52.078   6.811   8.561  0.00  0.00    +0.000 OA
ATOM     26  C   UNL     1      53.490   7.025  10.451  0.00  0.00    +0.000 A 
ATOM     27  H   UNL     1      53.913   5.519   7.557  0.00  0.00    +0.000 HD
ENDBRANCH  14  17
ENDBRANCH  12  13
ENDBRANCH   4  12
BRANCH   6  28
ATOM     28  C   UNL     1      45.047   5.831  10.534  0.00  0.00    +0.000 C 
BRANCH  28  29
ATOM     29  N   UNL     1      45.516   5.063   9.413  0.00  0.00    +0.000 N 
ATOM     30  C   UNL     1      45.113   3.774   9.142  0.00  0.00    +0.000 C 
ATOM     31  O   UNL     1      44.236   3.205   9.785  0.00  0.00    +0.000 OA
ATOM     32  H   UNL     1      46.184   5.503   8.787  0.00  0.00    +0.000 HD
BRANCH  30  33
ATOM     33  C   UNL     1      45.831   3.157   8.043  0.00  0.00    +0.000 A 
ATOM     34  C   UNL     1      46.395   1.899   7.903  0.00  0.00    +0.000 A 
ATOM     35  C   UNL     1      47.007   1.866   6.625  0.00  0.00    +0.000 A 
ATOM     36  C   UNL     1      46.791   3.102   6.065  0.00  0.00    +0.000 A 
ATOM     37  O   UNL     1      46.073   3.887   6.904  0.00  0.00    +0.000 OA
ENDBRANCH  30  33
ENDBRANCH  28  29
ENDBRANCH   6  28
TORSDOF 7
ENDMDL
MODEL 7
REMARK VINA RESULT:    -7.458      3.254      4.017
REMARK INTER + INTRA:         -11.863
REMARK INTER:                 -10.640
REMARK INTRA:                  -1.223
REMARK UNBOUND:                -1.354
REMARK  Name = 
REMARK  7 active torsions:
REMARK  status: ('A' for Active; 'I' for Inactive)
REMARK    1  A    between atoms: C_2  and  C_4
REMARK    2  A    between atoms: C_7  and  C_8
REMARK    3  A    between atoms: C_8  and  N_9
REMARK    4  A    between atoms: C_10  and  C_12
REMARK    5  A    between atoms: C_23  and  C_24
REMARK    6  A    between atoms: C_24  and  N_25
REMARK    7  A    between atoms: C_26  and  C_28
REMARK                            x       y       z     vdW  Elec       q    Type
REMARK                         _______ _______ _______ _____ _____    ______ ____
ROOT
ATOM      1  C   UNL     1      45.324   8.971  11.947  0.00  0.00    +0.000 A 
ATOM      2  C   UNL     1      46.463   9.584  12.495  0.00  0.00    +0.000 A 
ATOM      3  C   UNL     1      47.444   8.828  13.135  0.00  0.00    +0.000 A 
ATOM      4  C   UNL     1      47.286   7.450  13.285  0.00  0.00    +0.000 A 
ATOM      5  C   UNL     1      46.158   6.831  12.727  0.00  0.00    +0.000 A 
ATOM      6  C   UNL     1      45.176   7.572  12.037  0.00  0.00    +0.000 A 
ENDROOT
BRANCH   1   8
ATOM      7  N   UNL     1      43.366  10.414  12.185  0.00  0.00    +0.000 N 
ATOM      8  C   UNL     1      44.274   9.839  11.333  0.00  0.00    +0.000 C 
ATOM      9  O   UNL     1      44.209  10.038  10.130  0.00  0.00    +0.000 OA
ATOM     10  H   UNL     1      42.658  11.011  11.781  0.00  0.00    +0.000 HD
ATOM     11  H   UNL     1      43.447  10.388  13.191  0.00  0.00    +0.000 HD
ENDBRANCH   1   8
BRANCH   4  12
ATOM     12  C   UNL     1      48.322   6.653  14.027  0.00  0.00    +0.000 C 
BRANCH  12  13
ATOM     13  N   UNL     1      48.051   6.610  15.440  0.00  0.00    +0.000 N 
ATOM     14  C   UNL     1      49.012   6.336  16.376  0.00  0.00    +0.000 C 
ATOM     15  O   UNL     1      50.172   6.073  16.074  0.00  0.00    +0.000 OA
ATOM     16  H   UNL     1      47.073   6.612  15.711  0.00  0.00    +0.000 HD
BRANCH  14  17
ATOM     17  C   UNL     1      48.596   6.457  17.781  0.00  0.00    +0.000 A 
ATOM     18  C   UNL     1      48.649   5.345  18.611  0.00  0.00    +0.000 A 
ATOM     19  S   UNL     1      48.196   5.673  20.222  0.00  0.00    +0.000 S 
ATOM     20  C   UNL     1      47.863   7.300  19.855  0.00  0.00    +0.000 A 
ATOM     21  N   UNL     1      47.406   8.153  20.811  0.00  0.00    +0.000 NA
ATOM     22  C   UNL     1      47.159   9.347  20.387  0.00  0.00    +0.000 A 
ATOM     23  N   UNL     1      47.337   9.768  19.095  0.00  0.00    +0.000 N 
ATOM     24  C   UNL     1      47.852   8.960  18.110  0.00  0.00    +0.000 A 
ATOM     25  O   UNL     1      48.088   9.396  16.988  0.00  0.00    +0.000 OA
ATOM     26  C   UNL     1      48.115   7.595  18.527  0.00  0.00    +0.000 A 
ATOM     27  H   UNL     1      47.145  10.724  18.830  0.00  0.00    +0.000 HD
ENDBRANCH  14  17
ENDBRANCH  12  13
ENDBRANCH   4  12
BRANCH   6  28
ATOM     28  C   UNL     1      44.020   6.814  11.433  0.00  0.00    +0.000 C 
BRANCH  28  29
ATOM     29  N   UNL     1      44.455   5.832  10.477  0.00  0.00    +0.000 N 
ATOM     30  C   UNL     1      44.057   4.514  10.494  0.00  0.00    +0.000 C 
ATOM     31  O   UNL     1      43.210   4.087  11.274  0.00  0.00    +0.000 OA
ATOM     32  H   UNL     1      45.094   6.136   9.749  0.00  0.00    +0.000 HD
BRANCH  30  33
ATOM     33  C   UNL     1      44.741   3.685   9.520  0.00  0.00    +0.000 A 
ATOM     34  C   UNL     1      45.316   3.985   8.296  0.00  0.00    +0.000 A 
ATOM     35  C   UNL     1      45.802   2.766   7.762  0.00  0.00    +0.000 A 
ATOM     36  C   UNL     1      45.489   1.794   8.681  0.00  0.00    +0.000 A 
ATOM     37  O   UNL     1      44.859   2.335   9.752  0.00  0.00    +0.000 OA
ENDBRANCH  30  33
ENDBRANCH  28  29
ENDBRANCH   6  28
TORSDOF 7
ENDMDL
MODEL 8
REMARK VINA RESULT:    -7.303      3.475      5.006
REMARK INTER + INTRA:         -11.646
REMARK INTER:                 -10.283
REMARK INTRA:                  -1.364
REMARK UNBOUND:                -1.354
REMARK  Name = 
REMARK  7 active torsions:
REMARK  status: ('A' for Active; 'I' for Inactive)
REMARK    1  A    between atoms: C_2  and  C_4
REMARK    2  A    between atoms: C_7  and  C_8
REMARK    3  A    between atoms: C_8  and  N_9
REMARK    4  A    between atoms: C_10  and  C_12
REMARK    5  A    between atoms: C_23  and  C_24
REMARK    6  A    between atoms: C_24  and  N_25
REMARK    7  A    between atoms: C_26  and  C_28
REMARK                            x       y       z     vdW  Elec       q    Type
REMARK                         _______ _______ _______ _____ _____    ______ ____
ROOT
ATOM      1  C   UNL     1      45.591   5.088  12.702  0.00  0.00    +0.000 A 
ATOM      2  C   UNL     1      46.456   5.537  13.713  0.00  0.00    +0.000 A 
ATOM      3  C   UNL     1      47.147   6.741  13.581  0.00  0.00    +0.000 A 
ATOM      4  C   UNL     1      47.027   7.498  12.416  0.00  0.00    +0.000 A 
ATOM      5  C   UNL     1      46.153   7.062  11.409  0.00  0.00    +0.000 A 
ATOM      6  C   UNL     1      45.411   5.871  11.543  0.00  0.00    +0.000 A 
ENDROOT
BRANCH   1   8
ATOM      7  N   UNL     1      45.656   2.653  12.508  0.00  0.00    +0.000 N 
ATOM      8  C   UNL     1      44.930   3.758  12.869  0.00  0.00    +0.000 C 
ATOM      9  O   UNL     1      43.794   3.641  13.303  0.00  0.00    +0.000 OA
ATOM     10  H   UNL     1      45.221   1.748  12.626  0.00  0.00    +0.000 HD
ATOM     11  H   UNL     1      46.635   2.681  12.265  0.00  0.00    +0.000 HD
ENDBRANCH   1   8
BRANCH   4  12
ATOM     12  C   UNL     1      47.820   8.766  12.260  0.00  0.00    +0.000 C 
BRANCH  12  13
ATOM     13  N   UNL     1      48.977   8.571  11.426  0.00  0.00    +0.000 N 
ATOM     14  C   UNL     1      50.254   8.832  11.849  0.00  0.00    +0.000 C 
ATOM     15  O   UNL     1      50.500   9.285  12.962  0.00  0.00    +0.000 OA
ATOM     16  H   UNL     1      48.800   8.403  10.442  0.00  0.00    +0.000 HD
BRANCH  14  17
ATOM     17  C   UNL     1      51.329   8.459  10.919  0.00  0.00    +0.000 A 
ATOM     18  C   UNL     1      51.564   7.119  10.642  0.00  0.00    +0.000 A 
ATOM     19  S   UNL     1      52.800   6.865   9.495  0.00  0.00    +0.000 S 
ATOM     20  C   UNL     1      53.100   8.534   9.366  0.00  0.00    +0.000 A 
ATOM     21  N   UNL     1      54.075   9.008   8.544  0.00  0.00    +0.000 NA
ATOM     22  C   UNL     1      54.219  10.291   8.572  0.00  0.00    +0.000 A 
ATOM     23  N   UNL     1      53.470  11.144   9.341  0.00  0.00    +0.000 N 
ATOM     24  C   UNL     1      52.437  10.717  10.140  0.00  0.00    +0.000 A 
ATOM     25  O   UNL     1      51.725  11.515  10.740  0.00  0.00    +0.000 OA
ATOM     26  C   UNL     1      52.254   9.277  10.171  0.00  0.00    +0.000 A 
ATOM     27  H   UNL     1      53.618  12.142   9.301  0.00  0.00    +0.000 HD
ENDBRANCH  14  17
ENDBRANCH  12  13
ENDBRANCH   4  12
BRANCH   6  28
ATOM     28  C   UNL     1      44.464   5.504  10.427  0.00  0.00    +0.000 C 
BRANCH  28  29
ATOM     29  N   UNL     1      45.119   4.770   9.379  0.00  0.00    +0.000 N 
ATOM     30  C   UNL     1      44.890   3.438   9.114  0.00  0.00    +0.000 C 
ATOM     31  O   UNL     1      44.024   2.787   9.692  0.00  0.00    +0.000 OA
ATOM     32  H   UNL     1      45.791   5.269   8.804  0.00  0.00    +0.000 HD
BRANCH  30  33
ATOM     33  C   UNL     1      45.774   2.882   8.107  0.00  0.00    +0.000 A 
ATOM     34  C   UNL     1      46.231   3.388   6.902  0.00  0.00    +0.000 A 
ATOM     35  C   UNL     1      47.039   2.383   6.316  0.00  0.00    +0.000 A 
ATOM     36  C   UNL     1      47.021   1.321   7.187  0.00  0.00    +0.000 A 
ATOM     37  O   UNL     1      46.271   1.611   8.278  0.00  0.00    +0.000 OA
ENDBRANCH  30  33
ENDBRANCH  28  29
ENDBRANCH   6  28
TORSDOF 7
ENDMDL
MODEL 9
REMARK VINA RESULT:    -7.302      3.735      9.701
REMARK INTER + INTRA:         -11.643
REMARK INTER:                 -10.520
REMARK INTRA:                  -1.123
REMARK UNBOUND:                -1.354
REMARK  Name = 
REMARK  7 active torsions:
REMARK  status: ('A' for Active; 'I' for Inactive)
REMARK    1  A    between atoms: C_2  and  C_4
REMARK    2  A    between atoms: C_7  and  C_8
REMARK    3  A    between atoms: C_8  and  N_9
REMARK    4  A    between atoms: C_10  and  C_12
REMARK    5  A    between atoms: C_23  and  C_24
REMARK    6  A    between atoms: C_24  and  N_25
REMARK    7  A    between atoms: C_26  and  C_28
REMARK                            x       y       z     vdW  Elec       q    Type
REMARK                         _______ _______ _______ _____ _____    ______ ____
ROOT
ATOM      1  C   UNL     1      51.406   3.291  17.682  0.00  0.00    +0.000 A 
ATOM      2  C   UNL     1      50.737   2.129  17.264  0.00  0.00    +0.000 A 
ATOM      3  C   UNL     1      49.381   2.159  16.944  0.00  0.00    +0.000 A 
ATOM      4  C   UNL     1      48.651   3.340  17.083  0.00  0.00    +0.000 A 
ATOM      5  C   UNL     1      49.316   4.507  17.486  0.00  0.00    +0.000 A 
ATOM      6  C   UNL     1      50.697   4.507  17.770  0.00  0.00    +0.000 A 
ENDROOT
BRANCH   1   8
ATOM      7  N   UNL     1      53.119   2.537  19.252  0.00  0.00    +0.000 N 
ATOM      8  C   UNL     1      52.844   3.184  18.076  0.00  0.00    +0.000 C 
ATOM      9  O   UNL     1      53.746   3.646  17.395  0.00  0.00    +0.000 OA
ATOM     10  H   UNL     1      54.089   2.450  19.523  0.00  0.00    +0.000 HD
ATOM     11  H   UNL     1      52.430   2.029  19.787  0.00  0.00    +0.000 HD
ENDBRANCH   1   8
BRANCH   4  12
ATOM     12  C   UNL     1      47.176   3.349  16.791  0.00  0.00    +0.000 C 
BRANCH  12  13
ATOM     13  N   UNL     1      46.833   4.346  15.810  0.00  0.00    +0.000 N 
ATOM     14  C   UNL     1      46.873   4.111  14.462  0.00  0.00    +0.000 C 
ATOM     15  O   UNL     1      47.238   3.039  13.989  0.00  0.00    +0.000 OA
ATOM     16  H   UNL     1      46.732   5.296  16.151  0.00  0.00    +0.000 HD
BRANCH  14  17
ATOM     17  C   UNL     1      46.371   5.194  13.604  0.00  0.00    +0.000 A 
ATOM     18  C   UNL     1      47.150   6.325  13.398  0.00  0.00    +0.000 A 
ATOM     19  S   UNL     1      46.449   7.451  12.327  0.00  0.00    +0.000 S 
ATOM     20  C   UNL     1      45.056   6.492  12.142  0.00  0.00    +0.000 A 
ATOM     21  N   UNL     1      44.027   6.900  11.351  0.00  0.00    +0.000 NA
ATOM     22  C   UNL     1      43.019   6.094  11.331  0.00  0.00    +0.000 A 
ATOM     23  N   UNL     1      42.950   4.913  12.024  0.00  0.00    +0.000 N 
ATOM     24  C   UNL     1      43.987   4.433  12.787  0.00  0.00    +0.000 A 
ATOM     25  O   UNL     1      43.929   3.328  13.315  0.00  0.00    +0.000 OA
ATOM     26  C   UNL     1      45.134   5.319  12.870  0.00  0.00    +0.000 A 
ATOM     27  H   UNL     1      42.139   4.315  11.949  0.00  0.00    +0.000 HD
ENDBRANCH  14  17
ENDBRANCH  12  13
ENDBRANCH   4  12
BRANCH   6  28
ATOM     28  C   UNL     1      51.336   5.820  18.154  0.00  0.00    +0.000 C 
BRANCH  28  29
ATOM     29  N   UNL     1      50.359   6.816  18.501  0.00  0.00    +0.000 N 
ATOM     30  C   UNL     1      49.940   7.065  19.789  0.00  0.00    +0.000 C 
ATOM     31  O   UNL     1      50.444   6.521  20.768  0.00  0.00    +0.000 OA
ATOM     32  H   UNL     1      49.958   7.365  17.747  0.00  0.00    +0.000 HD
BRANCH  30  33
ATOM     33  C   UNL     1      48.844   8.012  19.874  0.00  0.00    +0.000 A 
ATOM     34  C   UNL     1      47.946   8.292  20.891  0.00  0.00    +0.000 A 
ATOM     35  C   UNL     1      47.065   9.285  20.396  0.00  0.00    +0.000 A 
ATOM     36  C   UNL     1      47.467   9.546  19.108  0.00  0.00    +0.000 A 
ATOM     37  O   UNL     1      48.547   8.794  18.784  0.00  0.00    +0.000 OA
ENDBRANCH  30  33
ENDBRANCH  28  29
ENDBRANCH   6  28
TORSDOF 7
ENDMDL
