MODEL 1
REMARK VINA RESULT:    -8.168      0.000      0.000
REMARK INTER + INTRA:         -13.211
REMARK INTER:                 -11.988
REMARK INTRA:                  -1.223
REMARK UNBOUND:                -1.223
REMARK  Name = 
REMARK  9 active torsions:
REMARK  status: ('A' for Active; 'I' for Inactive)
REMARK    1  A    between atoms: C_1  and  O_2
REMARK    2  A    between atoms: O_2  and  C_3
REMARK    3  A    between atoms: C_10  and  C_11
REMARK    4  A    between atoms: N_13  and  C_14
REMARK    5  A    between atoms: C_14  and  C_15
REMARK    6  A    between atoms: C_18  and  C_19
REMARK    7  A    between atoms: C_19  and  C_20
REMARK    8  A    between atoms: C_20  and  C_21
REMARK    9  A    between atoms: C_21  and  C_22
REMARK                            x       y       z     vdW  Elec       q    Type
REMARK                         _______ _______ _______ _____ _____    ______ ____
ROOT
ATOM      1  C   UNL     1      47.857   7.297  13.268  0.00  0.00    +0.000 C 
ENDROOT
BRANCH   1   2
ATOM      2  C   UNL     1      46.786   6.403  12.698  0.00  0.00    +0.000 A 
ATOM      3  C   UNL     1      46.653   5.078  13.132  0.00  0.00    +0.000 A 
ATOM      4  C   UNL     1      45.670   4.243  12.591  0.00  0.00    +0.000 A 
ATOM      5  C   UNL     1      44.798   4.715  11.601  0.00  0.00    +0.000 A 
ATOM      6  C   UNL     1      44.954   6.028  11.141  0.00  0.00    +0.000 A 
ATOM      7  C   UNL     1      45.938   6.863  11.682  0.00  0.00    +0.000 A 
BRANCH   5   8
ATOM      8  C   UNL     1      43.722   3.828  11.017  0.00  0.00    +0.000 C 
BRANCH   8   9
ATOM      9  C   UNL     1      44.189   2.912   9.877  0.00  0.00    +0.000 C 
BRANCH   9  10
ATOM     10  C   UNL     1      44.801   3.671   8.694  0.00  0.00    +0.000 C 
BRANCH  10  11
ATOM     11  C   UNL     1      45.847   2.842   7.988  0.00  0.00    +0.000 A 
ATOM     12  C   UNL     1      45.966   1.476   8.256  0.00  0.00    +0.000 A 
ATOM     13  C   UNL     1      46.951   0.750   7.604  0.00  0.00    +0.000 A 
ATOM     14  N   UNL     1      47.815   1.284   6.716  0.00  0.00    +0.000 NA
ATOM     15  C   UNL     1      47.687   2.607   6.474  0.00  0.00    +0.000 A 
ATOM     16  C   UNL     1      46.737   3.418   7.076  0.00  0.00    +0.000 A 
ENDBRANCH  10  11
ENDBRANCH   9  10
ENDBRANCH   8   9
ENDBRANCH   5   8
ENDBRANCH   1   2
BRANCH   1  19
ATOM     17  C   UNL     1      48.908   7.044  15.484  0.00  0.00    +0.000 C 
ATOM     18  O   UNL     1      50.002   6.797  14.982  0.00  0.00    +0.000 OA
ATOM     19  N   UNL     1      47.810   7.298  14.709  0.00  0.00    +0.000 N 
ATOM     20  H   UNL     1      46.912   7.458  15.140  0.00  0.00    +0.000 HD
BRANCH  17  28
ATOM     21  C   UNL     1      48.796   4.608  17.917  0.00  0.00    +0.000 A 
ATOM     22  N   UNL     1      48.719   3.877  19.046  0.00  0.00    +0.000 NA
ATOM     23  C   UNL     1      48.515   4.521  20.198  0.00  0.00    +0.000 A 
ATOM     24  N   UNL     1      48.375   5.833  20.367  0.00  0.00    +0.000 NA
ATOM     25  C   UNL     1      48.466   6.524  19.218  0.00  0.00    +0.000 A 
ATOM     26  S   UNL     1      48.310   8.215  19.244  0.00  0.00    +0.000 S 
ATOM     27  C   UNL     1      48.526   8.311  17.562  0.00  0.00    +0.000 A 
ATOM     28  C   UNL     1      48.720   7.078  16.946  0.00  0.00    +0.000 A 
ATOM     29  C   UNL     1      48.682   6.010  17.944  0.00  0.00    +0.000 A 
BRANCH  21  31
ATOM     30  C   UNL     1      47.879   3.316  16.194  0.00  0.00    +0.000 C 
ATOM     31  O   UNL     1      49.040   3.944  16.733  0.00  0.00    +0.000 OA
ENDBRANCH  21  31
ENDBRANCH  17  28
ENDBRANCH   1  19
TORSDOF 8
ENDMDL
MODEL 2
REMARK VINA RESULT:    -7.828      1.402      2.497
REMARK INTER + INTRA:         -12.712
REMARK INTER:                 -11.737
REMARK INTRA:                  -0.975
REMARK UNBOUND:                -1.223
REMARK  Name = 
REMARK  9 active torsions:
REMARK  status: ('A' for Active; 'I' for Inactive)
REMARK    1  A    between atoms: C_1  and  O_2
REMARK    2  A    between atoms: O_2  and  C_3
REMARK    3  A    between atoms: C_10  and  C_11
REMARK    4  A    between atoms: N_13  and  C_14
REMARK    5  A    between atoms: C_14  and  C_15
REMARK    6  A    between atoms: C_18  and  C_19
REMARK    7  A    between atoms: C_19  and  C_20
REMARK    8  A    between atoms: C_20  and  C_21
REMARK    9  A    between atoms: C_21  and  C_22
REMARK                            x       y       z     vdW  Elec       q    Type
REMARK                         _______ _______ _______ _____ _____    ______ ____
ROOT
ATOM      1  C   UNL     1      48.032   6.768  13.683  0.00  0.00    +0.000 C 
ENDROOT
BRANCH   1   2
ATOM      2  C   UNL     1      46.936   6.126  12.871  0.00  0.00    +0.000 A 
ATOM      3  C   UNL     1      46.454   4.852  13.200  0.00  0.00    +0.000 A 
ATOM      4  C   UNL     1      45.449   4.249  12.437  0.00  0.00    +0.000 A 
ATOM      5  C   UNL     1      44.904   4.905  11.326  0.00  0.00    +0.000 A 
ATOM      6  C   UNL     1      45.411   6.163  10.976  0.00  0.00    +0.000 A 
ATOM      7  C   UNL     1      46.417   6.766  11.739  0.00  0.00    +0.000 A 
BRANCH   5   8
ATOM      8  C   UNL     1      43.808   4.271  10.501  0.00  0.00    +0.000 C 
BRANCH   8   9
ATOM      9  C   UNL     1      44.298   3.355   9.371  0.00  0.00    +0.000 C 
BRANCH   9  10
ATOM     10  C   UNL     1      45.278   4.037   8.410  0.00  0.00    +0.000 C 
BRANCH  10  11
ATOM     11  C   UNL     1      46.172   3.031   7.725  0.00  0.00    +0.000 A 
ATOM     12  C   UNL     1      46.899   3.392   6.588  0.00  0.00    +0.000 A 
ATOM     13  C   UNL     1      47.695   2.437   5.972  0.00  0.00    +0.000 A 
ATOM     14  N   UNL     1      47.813   1.165   6.406  0.00  0.00    +0.000 NA
ATOM     15  C   UNL     1      47.099   0.835   7.503  0.00  0.00    +0.000 A 
ATOM     16  C   UNL     1      46.275   1.716   8.187  0.00  0.00    +0.000 A 
ENDBRANCH  10  11
ENDBRANCH   9  10
ENDBRANCH   8   9
ENDBRANCH   5   8
ENDBRANCH   1   2
BRANCH   1  19
ATOM     17  C   UNL     1      49.014   6.359  15.907  0.00  0.00    +0.000 C 
ATOM     18  O   UNL     1      50.138   6.662  15.511  0.00  0.00    +0.000 OA
ATOM     19  N   UNL     1      47.933   6.385  15.069  0.00  0.00    +0.000 N 
ATOM     20  H   UNL     1      47.027   6.094  15.404  0.00  0.00    +0.000 HD
BRANCH  17  28
ATOM     21  C   UNL     1      48.046   8.063  18.739  0.00  0.00    +0.000 A 
ATOM     22  N   UNL     1      47.680   8.471  19.970  0.00  0.00    +0.000 NA
ATOM     23  C   UNL     1      47.636   7.561  20.946  0.00  0.00    +0.000 A 
ATOM     24  N   UNL     1      47.918   6.265  20.844  0.00  0.00    +0.000 NA
ATOM     25  C   UNL     1      48.270   5.898  19.601  0.00  0.00    +0.000 A 
ATOM     26  S   UNL     1      48.665   4.277  19.285  0.00  0.00    +0.000 S 
ATOM     27  C   UNL     1      48.963   4.616  17.648  0.00  0.00    +0.000 A 
ATOM     28  C   UNL     1      48.772   5.951  17.303  0.00  0.00    +0.000 A 
ATOM     29  C   UNL     1      48.358   6.716  18.478  0.00  0.00    +0.000 A 
BRANCH  21  31
ATOM     30  C   UNL     1      47.629  10.289  18.150  0.00  0.00    +0.000 C 
ATOM     31  O   UNL     1      48.058   8.998  17.725  0.00  0.00    +0.000 OA
ENDBRANCH  21  31
ENDBRANCH  17  28
ENDBRANCH   1  19
TORSDOF 8
ENDMDL
MODEL 3
REMARK VINA RESULT:    -7.647      1.749      3.368
REMARK INTER + INTRA:         -12.446
REMARK INTER:                 -10.835
REMARK INTRA:                  -1.611
REMARK UNBOUND:                -1.223
REMARK  Name = 
REMARK  9 active torsions:
REMARK  status: ('A' for Active; 'I' for Inactive)
REMARK    1  A    between atoms: C_1  and  O_2
REMARK    2  A    between atoms: O_2  and  C_3
REMARK    3  A    between atoms: C_10  and  C_11
REMARK    4  A    between atoms: N_13  and  C_14
REMARK    5  A    between atoms: C_14  and  C_15
REMARK    6  A    between atoms: C_18  and  C_19
REMARK    7  A    between atoms: C_19  and  C_20
REMARK    8  A    between atoms: C_20  and  C_21
REMARK    9  A    between atoms: C_21  and  C_22
REMARK                            x       y       z     vdW  Elec       q    Type
REMARK                         _______ _______ _______ _____ _____    ______ ____
ROOT
ATOM      1  C   UNL     1      47.281   4.243  14.823  0.00  0.00    +0.000 C 
ENDROOT
BRANCH   1   2
ATOM      2  C   UNL     1      46.391   4.386  13.615  0.00  0.00    +0.000 A 
ATOM      3  C   UNL     1      46.003   5.653  13.158  0.00  0.00    +0.000 A 
ATOM      4  C   UNL     1      45.164   5.786  12.047  0.00  0.00    +0.000 A 
ATOM      5  C   UNL     1      44.691   4.655  11.369  0.00  0.00    +0.000 A 
ATOM      6  C   UNL     1      45.049   3.389  11.847  0.00  0.00    +0.000 A 
ATOM      7  C   UNL     1      45.888   3.255  12.959  0.00  0.00    +0.000 A 
BRANCH   5   8
ATOM      8  C   UNL     1      43.794   4.785  10.159  0.00  0.00    +0.000 C 
BRANCH   8   9
ATOM      9  C   UNL     1      44.224   3.950   8.945  0.00  0.00    +0.000 C 
BRANCH   9  10
ATOM     10  C   UNL     1      45.586   4.359   8.372  0.00  0.00    +0.000 C 
BRANCH  10  11
ATOM     11  C   UNL     1      46.298   3.184   7.746  0.00  0.00    +0.000 A 
ATOM     12  C   UNL     1      46.120   1.895   8.258  0.00  0.00    +0.000 A 
ATOM     13  C   UNL     1      46.805   0.842   7.671  0.00  0.00    +0.000 A 
ATOM     14  N   UNL     1      47.644   0.982   6.625  0.00  0.00    +0.000 NA
ATOM     15  C   UNL     1      47.806   2.235   6.147  0.00  0.00    +0.000 A 
ATOM     16  C   UNL     1      47.169   3.352   6.666  0.00  0.00    +0.000 A 
ENDBRANCH  10  11
ENDBRANCH   9  10
ENDBRANCH   8   9
ENDBRANCH   5   8
ENDBRANCH   1   2
BRANCH   1  19
ATOM     17  C   UNL     1      48.559   5.735  16.311  0.00  0.00    +0.000 C 
ATOM     18  O   UNL     1      49.315   4.824  16.643  0.00  0.00    +0.000 OA
ATOM     19  N   UNL     1      47.539   5.527  15.424  0.00  0.00    +0.000 N 
ATOM     20  H   UNL     1      46.906   6.278  15.196  0.00  0.00    +0.000 HD
BRANCH  17  28
ATOM     21  C   UNL     1      48.843   8.842  14.849  0.00  0.00    +0.000 A 
ATOM     22  N   UNL     1      48.963  10.149  14.548  0.00  0.00    +0.000 NA
ATOM     23  C   UNL     1      49.084  11.017  15.556  0.00  0.00    +0.000 A 
ATOM     24  N   UNL     1      49.101  10.735  16.856  0.00  0.00    +0.000 NA
ATOM     25  C   UNL     1      48.971   9.423  17.113  0.00  0.00    +0.000 A 
ATOM     26  S   UNL     1      48.971   8.880  18.721  0.00  0.00    +0.000 S 
ATOM     27  C   UNL     1      48.782   7.265  18.229  0.00  0.00    +0.000 A 
ATOM     28  C   UNL     1      48.713   7.099  16.849  0.00  0.00    +0.000 A 
ATOM     29  C   UNL     1      48.828   8.396  16.184  0.00  0.00    +0.000 A 
BRANCH  21  31
ATOM     30  C   UNL     1      48.212   8.566  12.612  0.00  0.00    +0.000 C 
ATOM     31  O   UNL     1      48.684   7.951  13.808  0.00  0.00    +0.000 OA
ENDBRANCH  21  31
ENDBRANCH  17  28
ENDBRANCH   1  19
TORSDOF 8
ENDMDL
MODEL 4
REMARK VINA RESULT:    -7.636      1.923      3.602
REMARK INTER + INTRA:         -12.431
REMARK INTER:                 -10.797
REMARK INTRA:                  -1.633
REMARK UNBOUND:                -1.223
REMARK  Name = 
REMARK  9 active torsions:
REMARK  status: ('A' for Active; 'I' for Inactive)
REMARK    1  A    between atoms: C_1  and  O_2
REMARK    2  A    between atoms: O_2  and  C_3
REMARK    3  A    between atoms: C_10  and  C_11
REMARK    4  A    between atoms: N_13  and  C_14
REMARK    5  A    between atoms: C_14  and  C_15
REMARK    6  A    between atoms: C_18  and  C_19
REMARK    7  A    between atoms: C_19  and  C_20
REMARK    8  A    between atoms: C_20  and  C_21
REMARK    9  A    between atoms: C_21  and  C_22
REMARK                            x       y       z     vdW  Elec       q    Type
REMARK                         _______ _______ _______ _____ _____    ______ ____
ROOT
ATOM      1  C   UNL     1      47.158   4.380  14.796  0.00  0.00    +0.000 C 
ENDROOT
BRANCH   1   2
ATOM      2  C   UNL     1      46.261   4.460  13.587  0.00  0.00    +0.000 A 
ATOM      3  C   UNL     1      45.812   3.296  12.951  0.00  0.00    +0.000 A 
ATOM      4  C   UNL     1      44.993   3.370  11.819  0.00  0.00    +0.000 A 
ATOM      5  C   UNL     1      44.606   4.611  11.297  0.00  0.00    +0.000 A 
ATOM      6  C   UNL     1      45.084   5.775  11.912  0.00  0.00    +0.000 A 
ATOM      7  C   UNL     1      45.904   5.701  13.043  0.00  0.00    +0.000 A 
BRANCH   5   8
ATOM      8  C   UNL     1      43.711   4.706  10.083  0.00  0.00    +0.000 C 
BRANCH   8   9
ATOM      9  C   UNL     1      44.198   3.920   8.858  0.00  0.00    +0.000 C 
BRANCH   9  10
ATOM     10  C   UNL     1      45.596   4.332   8.382  0.00  0.00    +0.000 C 
BRANCH  10  11
ATOM     11  C   UNL     1      46.343   3.165   7.785  0.00  0.00    +0.000 A 
ATOM     12  C   UNL     1      47.254   3.366   6.744  0.00  0.00    +0.000 A 
ATOM     13  C   UNL     1      47.908   2.269   6.206  0.00  0.00    +0.000 A 
ATOM     14  N   UNL     1      47.720   1.001   6.627  0.00  0.00    +0.000 NA
ATOM     15  C   UNL     1      46.833   0.826   7.630  0.00  0.00    +0.000 A 
ATOM     16  C   UNL     1      46.128   1.858   8.232  0.00  0.00    +0.000 A 
ENDBRANCH  10  11
ENDBRANCH   9  10
ENDBRANCH   8   9
ENDBRANCH   5   8
ENDBRANCH   1   2
BRANCH   1  19
ATOM     17  C   UNL     1      48.653   5.857  16.084  0.00  0.00    +0.000 C 
ATOM     18  O   UNL     1      49.086   4.913  16.742  0.00  0.00    +0.000 OA
ATOM     19  N   UNL     1      47.706   5.674  15.113  0.00  0.00    +0.000 N 
ATOM     20  H   UNL     1      47.336   6.467  14.613  0.00  0.00    +0.000 HD
BRANCH  17  28
ATOM     21  C   UNL     1      49.830   8.322  13.985  0.00  0.00    +0.000 A 
ATOM     22  N   UNL     1      50.308   9.440  13.405  0.00  0.00    +0.000 NA
ATOM     23  C   UNL     1      50.596  10.481  14.191  0.00  0.00    +0.000 A 
ATOM     24  N   UNL     1      50.464  10.546  15.513  0.00  0.00    +0.000 NA
ATOM     25  C   UNL     1      49.977   9.414  16.050  0.00  0.00    +0.000 A 
ATOM     26  S   UNL     1      49.742   9.317  17.729  0.00  0.00    +0.000 S 
ATOM     27  C   UNL     1      49.161   7.726  17.606  0.00  0.00    +0.000 A 
ATOM     28  C   UNL     1      49.131   7.235  16.305  0.00  0.00    +0.000 A 
ATOM     29  C   UNL     1      49.622   8.250  15.375  0.00  0.00    +0.000 A 
BRANCH  21  31
ATOM     30  C   UNL     1      48.908   7.664  11.937  0.00  0.00    +0.000 C 
ATOM     31  O   UNL     1      49.502   7.260  13.169  0.00  0.00    +0.000 OA
ENDBRANCH  21  31
ENDBRANCH  17  28
ENDBRANCH   1  19
TORSDOF 8
ENDMDL
MODEL 5
REMARK VINA RESULT:    -7.560      1.511      2.880
REMARK INTER + INTRA:         -12.319
REMARK INTER:                 -10.925
REMARK INTRA:                  -1.394
REMARK UNBOUND:                -1.223
REMARK  Name = 
REMARK  9 active torsions:
REMARK  status: ('A' for Active; 'I' for Inactive)
REMARK    1  A    between atoms: C_1  and  O_2
REMARK    2  A    between atoms: O_2  and  C_3
REMARK    3  A    between atoms: C_10  and  C_11
REMARK    4  A    between atoms: N_13  and  C_14
REMARK    5  A    between atoms: C_14  and  C_15
REMARK    6  A    between atoms: C_18  and  C_19
REMARK    7  A    between atoms: C_19  and  C_20
REMARK    8  A    between atoms: C_20  and  C_21
REMARK    9  A    between atoms: C_21  and  C_22
REMARK                            x       y       z     vdW  Elec       q    Type
REMARK                         _______ _______ _______ _____ _____    ______ ____
ROOT
ATOM      1  C   UNL     1      47.412   3.920  15.496  0.00  0.00    +0.000 C 
ENDROOT
BRANCH   1   2
ATOM      2  C   UNL     1      46.754   4.329  14.203  0.00  0.00    +0.000 A 
ATOM      3  C   UNL     1      46.142   3.376  13.379  0.00  0.00    +0.000 A 
ATOM      4  C   UNL     1      45.546   3.753  12.171  0.00  0.00    +0.000 A 
ATOM      5  C   UNL     1      45.551   5.091  11.758  0.00  0.00    +0.000 A 
ATOM      6  C   UNL     1      46.195   6.038  12.565  0.00  0.00    +0.000 A 
ATOM      7  C   UNL     1      46.792   5.662  13.773  0.00  0.00    +0.000 A 
BRANCH   5   8
ATOM      8  C   UNL     1      44.899   5.515  10.462  0.00  0.00    +0.000 C 
BRANCH   8   9
ATOM      9  C   UNL     1      45.609   5.026   9.193  0.00  0.00    +0.000 C 
BRANCH   9  10
ATOM     10  C   UNL     1      44.895   3.860   8.500  0.00  0.00    +0.000 C 
BRANCH  10  11
ATOM     11  C   UNL     1      45.878   2.909   7.863  0.00  0.00    +0.000 A 
ATOM     12  C   UNL     1      45.947   1.578   8.284  0.00  0.00    +0.000 A 
ATOM     13  C   UNL     1      46.876   0.736   7.691  0.00  0.00    +0.000 A 
ATOM     14  N   UNL     1      47.729   1.124   6.721  0.00  0.00    +0.000 NA
ATOM     15  C   UNL     1      47.650   2.415   6.331  0.00  0.00    +0.000 A 
ATOM     16  C   UNL     1      46.758   3.333   6.864  0.00  0.00    +0.000 A 
ENDBRANCH  10  11
ENDBRANCH   9  10
ENDBRANCH   8   9
ENDBRANCH   5   8
ENDBRANCH   1   2
BRANCH   1  19
ATOM     17  C   UNL     1      47.969   4.912  17.683  0.00  0.00    +0.000 C 
ATOM     18  O   UNL     1      48.404   3.841  18.104  0.00  0.00    +0.000 OA
ATOM     19  N   UNL     1      47.466   5.028  16.416  0.00  0.00    +0.000 N 
ATOM     20  H   UNL     1      47.078   5.905  16.104  0.00  0.00    +0.000 HD
BRANCH  17  28
ATOM     21  C   UNL     1      48.728   8.215  17.068  0.00  0.00    +0.000 A 
ATOM     22  N   UNL     1      48.951   9.543  17.102  0.00  0.00    +0.000 NA
ATOM     23  C   UNL     1      48.767  10.181  18.261  0.00  0.00    +0.000 A 
ATOM     24  N   UNL     1      48.380   9.646  19.416  0.00  0.00    +0.000 NA
ATOM     25  C   UNL     1      48.161   8.323  19.336  0.00  0.00    +0.000 A 
ATOM     26  S   UNL     1      47.660   7.473  20.718  0.00  0.00    +0.000 S 
ATOM     27  C   UNL     1      47.610   6.008  19.860  0.00  0.00    +0.000 A 
ATOM     28  C   UNL     1      47.967   6.126  18.520  0.00  0.00    +0.000 A 
ATOM     29  C   UNL     1      48.298   7.516  18.211  0.00  0.00    +0.000 A 
BRANCH  21  31
ATOM     30  C   UNL     1      50.234   7.178  15.608  0.00  0.00    +0.000 C 
ATOM     31  O   UNL     1      48.886   7.563  15.863  0.00  0.00    +0.000 OA
ENDBRANCH  21  31
ENDBRANCH  17  28
ENDBRANCH   1  19
TORSDOF 8
ENDMDL
MODEL 6
REMARK VINA RESULT:    -7.512      1.886      2.653
REMARK INTER + INTRA:         -12.249
REMARK INTER:                 -10.847
REMARK INTRA:                  -1.401
REMARK UNBOUND:                -1.223
REMARK  Name = 
REMARK  9 active torsions:
REMARK  status: ('A' for Active; 'I' for Inactive)
REMARK    1  A    between atoms: C_1  and  O_2
REMARK    2  A    between atoms: O_2  and  C_3
REMARK    3  A    between atoms: C_10  and  C_11
REMARK    4  A    between atoms: N_13  and  C_14
REMARK    5  A    between atoms: C_14  and  C_15
REMARK    6  A    between atoms: C_18  and  C_19
REMARK    7  A    between atoms: C_19  and  C_20
REMARK    8  A    between atoms: C_20  and  C_21
REMARK    9  A    between atoms: C_21  and  C_22
REMARK                            x       y       z     vdW  Elec       q    Type
REMARK                         _______ _______ _______ _____ _____    ______ ____
ROOT
ATOM      1  C   UNL     1      47.891   4.947  14.942  0.00  0.00    +0.000 C 
ENDROOT
BRANCH   1   2
ATOM      2  C   UNL     1      46.873   4.819  13.837  0.00  0.00    +0.000 A 
ATOM      3  C   UNL     1      46.370   3.565  13.469  0.00  0.00    +0.000 A 
ATOM      4  C   UNL     1      45.438   3.444  12.433  0.00  0.00    +0.000 A 
ATOM      5  C   UNL     1      44.991   4.575  11.739  0.00  0.00    +0.000 A 
ATOM      6  C   UNL     1      45.520   5.825  12.083  0.00  0.00    +0.000 A 
ATOM      7  C   UNL     1      46.453   5.946  13.119  0.00  0.00    +0.000 A 
BRANCH   5   8
ATOM      8  C   UNL     1      43.974   4.461  10.626  0.00  0.00    +0.000 C 
BRANCH   8   9
ATOM      9  C   UNL     1      44.300   3.406   9.560  0.00  0.00    +0.000 C 
BRANCH   9  10
ATOM     10  C   UNL     1      44.952   3.989   8.301  0.00  0.00    +0.000 C 
BRANCH  10  11
ATOM     11  C   UNL     1      45.942   3.025   7.694  0.00  0.00    +0.000 A 
ATOM     12  C   UNL     1      46.084   1.736   8.214  0.00  0.00    +0.000 A 
ATOM     13  C   UNL     1      47.017   0.884   7.644  0.00  0.00    +0.000 A 
ATOM     14  N   UNL     1      47.810   1.223   6.607  0.00  0.00    +0.000 NA
ATOM     15  C   UNL     1      47.661   2.474   6.121  0.00  0.00    +0.000 A 
ATOM     16  C   UNL     1      46.758   3.400   6.622  0.00  0.00    +0.000 A 
ENDBRANCH  10  11
ENDBRANCH   9  10
ENDBRANCH   8   9
ENDBRANCH   5   8
ENDBRANCH   1   2
BRANCH   1  19
ATOM     17  C   UNL     1      48.992   7.057  15.585  0.00  0.00    +0.000 C 
ATOM     18  O   UNL     1      50.082   6.659  15.179  0.00  0.00    +0.000 OA
ATOM     19  N   UNL     1      47.873   6.274  15.503  0.00  0.00    +0.000 N 
ATOM     20  H   UNL     1      46.996   6.604  15.879  0.00  0.00    +0.000 HD
BRANCH  17  28
ATOM     21  C   UNL     1      47.691   8.184  18.569  0.00  0.00    +0.000 A 
ATOM     22  N   UNL     1      47.259   8.882  19.637  0.00  0.00    +0.000 NA
ATOM     23  C   UNL     1      47.384  10.211  19.610  0.00  0.00    +0.000 A 
ATOM     24  N   UNL     1      47.897  10.947  18.628  0.00  0.00    +0.000 NA
ATOM     25  C   UNL     1      48.322  10.212  17.587  0.00  0.00    +0.000 A 
ATOM     26  S   UNL     1      49.008  10.986  16.240  0.00  0.00    +0.000 S 
ATOM     27  C   UNL     1      49.257   9.502  15.451  0.00  0.00    +0.000 A 
ATOM     28  C   UNL     1      48.833   8.396  16.181  0.00  0.00    +0.000 A 
ATOM     29  C   UNL     1      48.272   8.827  17.461  0.00  0.00    +0.000 A 
BRANCH  21  31
ATOM     30  C   UNL     1      48.738   6.182  19.184  0.00  0.00    +0.000 C 
ATOM     31  O   UNL     1      47.592   6.808  18.612  0.00  0.00    +0.000 OA
ENDBRANCH  21  31
ENDBRANCH  17  28
ENDBRANCH   1  19
TORSDOF 8
ENDMDL
MODEL 7
REMARK VINA RESULT:    -7.137      1.864      2.232
REMARK INTER + INTRA:         -11.699
REMARK INTER:                 -10.427
REMARK INTRA:                  -1.271
REMARK UNBOUND:                -1.223
REMARK  Name = 
REMARK  9 active torsions:
REMARK  status: ('A' for Active; 'I' for Inactive)
REMARK    1  A    between atoms: C_1  and  O_2
REMARK    2  A    between atoms: O_2  and  C_3
REMARK    3  A    between atoms: C_10  and  C_11
REMARK    4  A    between atoms: N_13  and  C_14
REMARK    5  A    between atoms: C_14  and  C_15
REMARK    6  A    between atoms: C_18  and  C_19
REMARK    7  A    between atoms: C_19  and  C_20
REMARK    8  A    between atoms: C_20  and  C_21
REMARK    9  A    between atoms: C_21  and  C_22
REMARK                            x       y       z     vdW  Elec       q    Type
REMARK                         _______ _______ _______ _____ _____    ______ ____
ROOT
ATOM      1  C   UNL     1      47.634   7.904  13.985  0.00  0.00    +0.000 C 
ENDROOT
BRANCH   1   2
ATOM      2  C   UNL     1      46.737   7.014  13.163  0.00  0.00    +0.000 A 
ATOM      3  C   UNL     1      46.740   5.626  13.351  0.00  0.00    +0.000 A 
ATOM      4  C   UNL     1      45.920   4.798  12.577  0.00  0.00    +0.000 A 
ATOM      5  C   UNL     1      45.080   5.340  11.595  0.00  0.00    +0.000 A 
ATOM      6  C   UNL     1      45.104   6.724  11.384  0.00  0.00    +0.000 A 
ATOM      7  C   UNL     1      45.925   7.552  12.157  0.00  0.00    +0.000 A 
BRANCH   5   8
ATOM      8  C   UNL     1      44.179   4.459  10.761  0.00  0.00    +0.000 C 
BRANCH   8   9
ATOM      9  C   UNL     1      44.811   3.135  10.308  0.00  0.00    +0.000 C 
BRANCH   9  10
ATOM     10  C   UNL     1      44.507   2.779   8.848  0.00  0.00    +0.000 C 
BRANCH  10  11
ATOM     11  C   UNL     1      45.754   2.350   8.113  0.00  0.00    +0.000 A 
ATOM     12  C   UNL     1      46.515   3.284   7.407  0.00  0.00    +0.000 A 
ATOM     13  C   UNL     1      47.643   2.851   6.727  0.00  0.00    +0.000 A 
ATOM     14  N   UNL     1      48.058   1.567   6.701  0.00  0.00    +0.000 NA
ATOM     15  C   UNL     1      47.306   0.679   7.385  0.00  0.00    +0.000 A 
ATOM     16  C   UNL     1      46.162   1.013   8.094  0.00  0.00    +0.000 A 
ENDBRANCH  10  11
ENDBRANCH   9  10
ENDBRANCH   8   9
ENDBRANCH   5   8
ENDBRANCH   1   2
BRANCH   1  19
ATOM     17  C   UNL     1      49.344   7.580  15.731  0.00  0.00    +0.000 C 
ATOM     18  O   UNL     1      49.097   8.674  16.233  0.00  0.00    +0.000 OA
ATOM     19  N   UNL     1      48.669   7.134  14.628  0.00  0.00    +0.000 N 
ATOM     20  H   UNL     1      48.915   6.251  14.207  0.00  0.00    +0.000 HD
BRANCH  17  28
ATOM     21  C   UNL     1      49.315   4.324  16.856  0.00  0.00    +0.000 A 
ATOM     22  N   UNL     1      49.582   3.096  17.340  0.00  0.00    +0.000 NA
ATOM     23  C   UNL     1      50.830   2.837  17.739  0.00  0.00    +0.000 A 
ATOM     24  N   UNL     1      51.867   3.669  17.715  0.00  0.00    +0.000 NA
ATOM     25  C   UNL     1      51.559   4.879  17.218  0.00  0.00    +0.000 A 
ATOM     26  S   UNL     1      52.763   6.072  17.112  0.00  0.00    +0.000 S 
ATOM     27  C   UNL     1      51.668   7.189  16.448  0.00  0.00    +0.000 A 
ATOM     28  C   UNL     1      50.379   6.691  16.290  0.00  0.00    +0.000 A 
ATOM     29  C   UNL     1      50.318   5.305  16.755  0.00  0.00    +0.000 A 
BRANCH  21  31
ATOM     30  C   UNL     1      47.031   4.198  17.352  0.00  0.00    +0.000 C 
ATOM     31  O   UNL     1      48.033   4.580  16.413  0.00  0.00    +0.000 OA
ENDBRANCH  21  31
ENDBRANCH  17  28
ENDBRANCH   1  19
TORSDOF 8
ENDMDL
MODEL 8
REMARK VINA RESULT:    -6.982      3.470      5.278
REMARK INTER + INTRA:         -11.470
REMARK INTER:                  -9.857
REMARK INTRA:                  -1.613
REMARK UNBOUND:                -1.223
REMARK  Name = 
REMARK  9 active torsions:
REMARK  status: ('A' for Active; 'I' for Inactive)
REMARK    1  A    between atoms: C_1  and  O_2
REMARK    2  A    between atoms: O_2  and  C_3
REMARK    3  A    between atoms: C_10  and  C_11
REMARK    4  A    between atoms: N_13  and  C_14
REMARK    5  A    between atoms: C_14  and  C_15
REMARK    6  A    between atoms: C_18  and  C_19
REMARK    7  A    between atoms: C_19  and  C_20
REMARK    8  A    between atoms: C_20  and  C_21
REMARK    9  A    between atoms: C_21  and  C_22
REMARK                            x       y       z     vdW  Elec       q    Type
REMARK                         _______ _______ _______ _____ _____    ______ ____
ROOT
ATOM      1  C   UNL     1      47.836   3.517  17.391  0.00  0.00    +0.000 C 
ENDROOT
BRANCH   1   2
ATOM      2  C   UNL     1      47.718   4.338  16.132  0.00  0.00    +0.000 A 
ATOM      3  C   UNL     1      47.078   3.822  14.998  0.00  0.00    +0.000 A 
ATOM      4  C   UNL     1      46.983   4.578  13.825  0.00  0.00    +0.000 A 
ATOM      5  C   UNL     1      47.528   5.866  13.758  0.00  0.00    +0.000 A 
ATOM      6  C   UNL     1      48.199   6.368  14.881  0.00  0.00    +0.000 A 
ATOM      7  C   UNL     1      48.295   5.612  16.054  0.00  0.00    +0.000 A 
BRANCH   5   8
ATOM      8  C   UNL     1      47.421   6.699  12.502  0.00  0.00    +0.000 C 
BRANCH   8   9
ATOM      9  C   UNL     1      45.988   6.954  12.016  0.00  0.00    +0.000 C 
BRANCH   9  10
ATOM     10  C   UNL     1      45.673   6.300  10.666  0.00  0.00    +0.000 C 
BRANCH  10  11
ATOM     11  C   UNL     1      44.853   5.044  10.838  0.00  0.00    +0.000 A 
ATOM     12  C   UNL     1      43.995   4.904  11.933  0.00  0.00    +0.000 A 
ATOM     13  C   UNL     1      43.271   3.729  12.069  0.00  0.00    +0.000 A 
ATOM     14  N   UNL     1      43.344   2.697  11.203  0.00  0.00    +0.000 NA
ATOM     15  C   UNL     1      44.181   2.850  10.155  0.00  0.00    +0.000 A 
ATOM     16  C   UNL     1      44.947   3.984   9.932  0.00  0.00    +0.000 A 
ENDBRANCH  10  11
ENDBRANCH   9  10
ENDBRANCH   8   9
ENDBRANCH   5   8
ENDBRANCH   1   2
BRANCH   1  19
ATOM     17  C   UNL     1      49.983   2.360  17.031  0.00  0.00    +0.000 C 
ATOM     18  O   UNL     1      49.520   1.703  16.101  0.00  0.00    +0.000 OA
ATOM     19  N   UNL     1      49.218   3.268  17.712  0.00  0.00    +0.000 N 
ATOM     20  H   UNL     1      49.606   3.767  18.498  0.00  0.00    +0.000 HD
BRANCH  17  28
ATOM     21  C   UNL     1      52.496   4.598  17.768  0.00  0.00    +0.000 A 
ATOM     22  N   UNL     1      53.630   5.237  18.113  0.00  0.00    +0.000 NA
ATOM     23  C   UNL     1      54.692   4.497  18.441  0.00  0.00    +0.000 A 
ATOM     24  N   UNL     1      54.765   3.169  18.468  0.00  0.00    +0.000 NA
ATOM     25  C   UNL     1      53.611   2.572  18.125  0.00  0.00    +0.000 A 
ATOM     26  S   UNL     1      53.520   0.876  18.104  0.00  0.00    +0.000 S 
ATOM     27  C   UNL     1      51.893   0.920  17.618  0.00  0.00    +0.000 A 
ATOM     28  C   UNL     1      51.384   2.205  17.462  0.00  0.00    +0.000 A 
ATOM     29  C   UNL     1      52.419   3.193  17.766  0.00  0.00    +0.000 A 
BRANCH  21  31
ATOM     30  C   UNL     1      50.985   6.214  18.531  0.00  0.00    +0.000 C 
ATOM     31  O   UNL     1      51.390   5.363  17.461  0.00  0.00    +0.000 OA
ENDBRANCH  21  31
ENDBRANCH  17  28
ENDBRANCH   1  19
TORSDOF 8
ENDMDL
MODEL 9
REMARK VINA RESULT:    -6.609      3.668      5.601
REMARK INTER + INTRA:         -10.923
REMARK INTER:                  -9.916
REMARK INTRA:                  -1.007
REMARK UNBOUND:                -1.223
REMARK  Name = 
REMARK  9 active torsions:
REMARK  status: ('A' for Active; 'I' for Inactive)
REMARK    1  A    between atoms: C_1  and  O_2
REMARK    2  A    between atoms: O_2  and  C_3
REMARK    3  A    between atoms: C_10  and  C_11
REMARK    4  A    between atoms: N_13  and  C_14
REMARK    5  A    between atoms: C_14  and  C_15
REMARK    6  A    between atoms: C_18  and  C_19
REMARK    7  A    between atoms: C_19  and  C_20
REMARK    8  A    between atoms: C_20  and  C_21
REMARK    9  A    between atoms: C_21  and  C_22
REMARK                            x       y       z     vdW  Elec       q    Type
REMARK                         _______ _______ _______ _____ _____    ______ ____
ROOT
ATOM      1  C   UNL     1      47.878   6.574  13.814  0.00  0.00    +0.000 C 
ENDROOT
BRANCH   1   2
ATOM      2  C   UNL     1      46.807   5.778  13.112  0.00  0.00    +0.000 A 
ATOM      3  C   UNL     1      46.741   4.386  13.253  0.00  0.00    +0.000 A 
ATOM      4  C   UNL     1      45.758   3.645  12.588  0.00  0.00    +0.000 A 
ATOM      5  C   UNL     1      44.820   4.280  11.765  0.00  0.00    +0.000 A 
ATOM      6  C   UNL     1      44.908   5.668  11.595  0.00  0.00    +0.000 A 
ATOM      7  C   UNL     1      45.892   6.409  12.259  0.00  0.00    +0.000 A 
BRANCH   5   8
ATOM      8  C   UNL     1      43.744   3.494  11.052  0.00  0.00    +0.000 C 
BRANCH   8   9
ATOM      9  C   UNL     1      44.243   2.628   9.886  0.00  0.00    +0.000 C 
BRANCH   9  10
ATOM     10  C   UNL     1      44.755   3.442   8.693  0.00  0.00    +0.000 C 
BRANCH  10  11
ATOM     11  C   UNL     1      45.884   2.735   7.985  0.00  0.00    +0.000 A 
ATOM     12  C   UNL     1      46.100   1.369   8.186  0.00  0.00    +0.000 A 
ATOM     13  C   UNL     1      47.158   0.755   7.534  0.00  0.00    +0.000 A 
ATOM     14  N   UNL     1      48.007   1.400   6.708  0.00  0.00    +0.000 NA
ATOM     15  C   UNL     1      47.786   2.721   6.530  0.00  0.00    +0.000 A 
ATOM     16  C   UNL     1      46.757   3.424   7.138  0.00  0.00    +0.000 A 
ENDBRANCH  10  11
ENDBRANCH   9  10
ENDBRANCH   8   9
ENDBRANCH   5   8
ENDBRANCH   1   2
BRANCH   1  19
ATOM     17  C   UNL     1      49.533   8.306  13.235  0.00  0.00    +0.000 C 
ATOM     18  O   UNL     1      50.196   8.067  14.243  0.00  0.00    +0.000 OA
ATOM     19  N   UNL     1      48.385   7.616  12.958  0.00  0.00    +0.000 N 
ATOM     20  H   UNL     1      47.835   7.855  12.147  0.00  0.00    +0.000 HD
BRANCH  17  28
ATOM     21  C   UNL     1      52.567   9.234  11.893  0.00  0.00    +0.000 A 
ATOM     22  N   UNL     1      53.596   9.789  11.224  0.00  0.00    +0.000 NA
ATOM     23  C   UNL     1      53.335  10.812  10.407  0.00  0.00    +0.000 A 
ATOM     24  N   UNL     1      52.149  11.364  10.170  0.00  0.00    +0.000 NA
ATOM     25  C   UNL     1      51.149  10.777  10.850  0.00  0.00    +0.000 A 
ATOM     26  S   UNL     1      49.562  11.352  10.669  0.00  0.00    +0.000 S 
ATOM     27  C   UNL     1      48.964  10.190  11.754  0.00  0.00    +0.000 A 
ATOM     28  C   UNL     1      49.941   9.347  12.274  0.00  0.00    +0.000 A 
ATOM     29  C   UNL     1      51.251   9.704  11.729  0.00  0.00    +0.000 A 
BRANCH  21  31
ATOM     30  C   UNL     1      54.187   8.112  13.156  0.00  0.00    +0.000 C 
ATOM     31  O   UNL     1      52.833   8.156  12.711  0.00  0.00    +0.000 OA
ENDBRANCH  21  31
ENDBRANCH  17  28
ENDBRANCH   1  19
TORSDOF 8
ENDMDL
