MODEL 1
REMARK VINA RESULT:    -8.598      0.000      0.000
REMARK INTER + INTRA:         -12.625
REMARK INTER:                 -11.614
REMARK INTRA:                  -1.012
REMARK UNBOUND:                -1.012
REMARK  Name = 
REMARK  7 active torsions:
REMARK  status: ('A' for Active; 'I' for Inactive)
REMARK    1  A    between atoms: C_1  and  C_2
REMARK    2  A    between atoms: C_4  and  C_5
REMARK    3  A    between atoms: C_10  and  N_11
REMARK    4  A    between atoms: N_11  and  C_12
REMARK    5  A    between atoms: C_12  and  C_13
REMARK    6  A    between atoms: C_17  and  C_18
REMARK    7  A    between atoms: C_22  and  C_23
REMARK                            x       y       z     vdW  Elec       q    Type
REMARK                         _______ _______ _______ _____ _____    ______ ____
ROOT
ATOM      1  C   UNL     1      44.980   5.394  12.089  0.00  0.00    +0.000 A 
ATOM      2  C   UNL     1      45.351   4.465  13.064  0.00  0.00    +0.000 A 
ATOM      3  C   UNL     1      46.580   4.583  13.708  0.00  0.00    +0.000 A 
ATOM      4  C   UNL     1      47.444   5.640  13.396  0.00  0.00    +0.000 A 
ATOM      5  C   UNL     1      47.102   6.606  12.434  0.00  0.00    +0.000 A 
ATOM      6  C   UNL     1      45.853   6.460  11.800  0.00  0.00    +0.000 A 
ENDROOT
BRANCH   5   7
ATOM      7  C   UNL     1      48.014   7.717  12.076  0.00  0.00    +0.000 A 
ATOM      8  C   UNL     1      47.626   9.058  12.126  0.00  0.00    +0.000 A 
ATOM      9  N   UNL     1      48.424  10.115  11.825  0.00  0.00    +0.000 NA
ATOM     10  C   UNL     1      49.696   9.839  11.467  0.00  0.00    +0.000 A 
ATOM     11  C   UNL     1      50.207   8.557  11.387  0.00  0.00    +0.000 A 
ATOM     12  C   UNL     1      49.344   7.493  11.687  0.00  0.00    +0.000 A 
BRANCH  11  13
ATOM     13  C   UNL     1      51.635   8.315  11.009  0.00  0.00    +0.000 C 
ATOM     14  F   UNL     1      52.478   8.228  12.075  0.00  0.00    +0.000 F 
ATOM     15  F   UNL     1      51.796   7.157  10.310  0.00  0.00    +0.000 F 
ATOM     16  F   UNL     1      52.137   9.301  10.216  0.00  0.00    +0.000 F 
ENDBRANCH  11  13
ENDBRANCH   5   7
BRANCH   1  17
ATOM     17  C   UNL     1      43.700   5.237  11.300  0.00  0.00    +0.000 C 
BRANCH  17  18
ATOM     18  N   UNL     1      43.957   5.148   9.877  0.00  0.00    +0.000 N 
ATOM     19  H   UNL     1      43.205   5.536   9.315  0.00  0.00    +0.000 HD
BRANCH  18  26
ATOM     20  C   UNL     1      43.713   2.142  10.723  0.00  0.00    +0.000 C 
ATOM     21  C   UNL     1      44.586   2.722   9.642  0.00  0.00    +0.000 A 
ATOM     22  C   UNL     1      45.418   1.788   8.975  0.00  0.00    +0.000 A 
ATOM     23  C   UNL     1      46.285   2.155   7.944  0.00  0.00    +0.000 A 
ATOM     24  C   UNL     1      46.320   3.492   7.562  0.00  0.00    +0.000 A 
ATOM     25  C   UNL     1      45.505   4.428   8.219  0.00  0.00    +0.000 A 
ATOM     26  C   UNL     1      44.612   4.079   9.257  0.00  0.00    +0.000 A 
BRANCH  23  27
ATOM     27  C   UNL     1      47.123   1.081   7.333  0.00  0.00    +0.000 C 
ATOM     28  N   UNL     1      46.831  -0.224   7.615  0.00  0.00    +0.000 N 
ATOM     29  O   UNL     1      48.061   1.342   6.588  0.00  0.00    +0.000 OA
ATOM     30  H   UNL     1      46.073  -0.538   8.197  0.00  0.00    +0.000 HD
ATOM     31  H   UNL     1      47.414  -0.922   7.171  0.00  0.00    +0.000 HD
ENDBRANCH  23  27
ENDBRANCH  18  26
ENDBRANCH  17  18
ENDBRANCH   1  17
TORSDOF 6
ENDMDL
MODEL 2
REMARK VINA RESULT:    -8.446      3.697      4.729
REMARK INTER + INTRA:         -12.420
REMARK INTER:                 -11.389
REMARK INTRA:                  -1.031
REMARK UNBOUND:                -1.012
REMARK  Name = 
REMARK  7 active torsions:
REMARK  status: ('A' for Active; 'I' for Inactive)
REMARK    1  A    between atoms: C_1  and  C_2
REMARK    2  A    between atoms: C_4  and  C_5
REMARK    3  A    between atoms: C_10  and  N_11
REMARK    4  A    between atoms: N_11  and  C_12
REMARK    5  A    between atoms: C_12  and  C_13
REMARK    6  A    between atoms: C_17  and  C_18
REMARK    7  A    between atoms: C_22  and  C_23
REMARK                            x       y       z     vdW  Elec       q    Type
REMARK                         _______ _______ _______ _____ _____    ______ ____
ROOT
ATOM      1  C   UNL     1      45.196   5.823  12.013  0.00  0.00    +0.000 A 
ATOM      2  C   UNL     1      45.532   6.997  11.333  0.00  0.00    +0.000 A 
ATOM      3  C   UNL     1      46.579   7.793  11.792  0.00  0.00    +0.000 A 
ATOM      4  C   UNL     1      47.310   7.416  12.924  0.00  0.00    +0.000 A 
ATOM      5  C   UNL     1      47.016   6.235  13.628  0.00  0.00    +0.000 A 
ATOM      6  C   UNL     1      45.952   5.451  13.140  0.00  0.00    +0.000 A 
ENDROOT
BRANCH   5   7
ATOM      7  C   UNL     1      47.765   5.835  14.841  0.00  0.00    +0.000 A 
ATOM      8  C   UNL     1      48.704   6.665  15.456  0.00  0.00    +0.000 A 
ATOM      9  N   UNL     1      49.408   6.357  16.576  0.00  0.00    +0.000 NA
ATOM     10  C   UNL     1      49.161   5.157  17.142  0.00  0.00    +0.000 A 
ATOM     11  C   UNL     1      48.250   4.247  16.639  0.00  0.00    +0.000 A 
ATOM     12  C   UNL     1      47.560   4.596  15.469  0.00  0.00    +0.000 A 
BRANCH  11  13
ATOM     13  C   UNL     1      48.000   2.941  17.327  0.00  0.00    +0.000 C 
ATOM     14  F   UNL     1      48.514   1.866  16.668  0.00  0.00    +0.000 F 
ATOM     15  F   UNL     1      48.539   2.904  18.577  0.00  0.00    +0.000 F 
ATOM     16  F   UNL     1      46.673   2.682  17.485  0.00  0.00    +0.000 F 
ENDBRANCH  11  13
ENDBRANCH   5   7
BRANCH   1  17
ATOM     17  C   UNL     1      44.002   4.992  11.602  0.00  0.00    +0.000 C 
BRANCH  17  18
ATOM     18  N   UNL     1      43.878   4.910  10.161  0.00  0.00    +0.000 N 
ATOM     19  H   UNL     1      42.920   5.020   9.840  0.00  0.00    +0.000 HD
BRANCH  18  26
ATOM     20  C   UNL     1      43.925   1.785  10.361  0.00  0.00    +0.000 C 
ATOM     21  C   UNL     1      44.742   2.657   9.444  0.00  0.00    +0.000 A 
ATOM     22  C   UNL     1      45.663   1.965   8.618  0.00  0.00    +0.000 A 
ATOM     23  C   UNL     1      46.494   2.619   7.707  0.00  0.00    +0.000 A 
ATOM     24  C   UNL     1      46.399   4.003   7.610  0.00  0.00    +0.000 A 
ATOM     25  C   UNL     1      45.494   4.700   8.426  0.00  0.00    +0.000 A 
ATOM     26  C   UNL     1      44.636   4.061   9.349  0.00  0.00    +0.000 A 
BRANCH  23  27
ATOM     27  C   UNL     1      47.434   1.780   6.907  0.00  0.00    +0.000 C 
ATOM     28  N   UNL     1      48.607   2.331   6.475  0.00  0.00    +0.000 N 
ATOM     29  O   UNL     1      47.178   0.613   6.630  0.00  0.00    +0.000 OA
ATOM     30  H   UNL     1      48.914   3.270   6.667  0.00  0.00    +0.000 HD
ATOM     31  H   UNL     1      49.222   1.726   5.947  0.00  0.00    +0.000 HD
ENDBRANCH  23  27
ENDBRANCH  18  26
ENDBRANCH  17  18
ENDBRANCH   1  17
TORSDOF 6
ENDMDL
MODEL 3
REMARK VINA RESULT:    -8.439      3.409      4.680
REMARK INTER + INTRA:         -12.410
REMARK INTER:                 -11.456
REMARK INTRA:                  -0.955
REMARK UNBOUND:                -1.012
REMARK  Name = 
REMARK  7 active torsions:
REMARK  status: ('A' for Active; 'I' for Inactive)
REMARK    1  A    between atoms: C_1  and  C_2
REMARK    2  A    between atoms: C_4  and  C_5
REMARK    3  A    between atoms: C_10  and  N_11
REMARK    4  A    between atoms: N_11  and  C_12
REMARK    5  A    between atoms: C_12  and  C_13
REMARK    6  A    between atoms: C_17  and  C_18
REMARK    7  A    between atoms: C_22  and  C_23
REMARK                            x       y       z     vdW  Elec       q    Type
REMARK                         _______ _______ _______ _____ _____    ______ ____
ROOT
ATOM      1  C   UNL     1      45.550   5.777  12.073  0.00  0.00    +0.000 A 
ATOM      2  C   UNL     1      46.413   6.677  11.443  0.00  0.00    +0.000 A 
ATOM      3  C   UNL     1      47.625   7.015  12.040  0.00  0.00    +0.000 A 
ATOM      4  C   UNL     1      47.992   6.447  13.266  0.00  0.00    +0.000 A 
ATOM      5  C   UNL     1      47.160   5.526  13.925  0.00  0.00    +0.000 A 
ATOM      6  C   UNL     1      45.942   5.203  13.297  0.00  0.00    +0.000 A 
ENDROOT
BRANCH   5   7
ATOM      7  C   UNL     1      47.525   4.934  15.233  0.00  0.00    +0.000 A 
ATOM      8  C   UNL     1      47.150   3.641  15.607  0.00  0.00    +0.000 A 
ATOM      9  N   UNL     1      47.469   3.043  16.784  0.00  0.00    +0.000 NA
ATOM     10  C   UNL     1      48.223   3.756  17.648  0.00  0.00    +0.000 A 
ATOM     11  C   UNL     1      48.666   5.041  17.395  0.00  0.00    +0.000 A 
ATOM     12  C   UNL     1      48.297   5.629  16.176  0.00  0.00    +0.000 A 
BRANCH  11  13
ATOM     13  C   UNL     1      49.522   5.772  18.382  0.00  0.00    +0.000 C 
ATOM     14  F   UNL     1      50.618   6.362  17.828  0.00  0.00    +0.000 F 
ATOM     15  F   UNL     1      48.844   6.768  19.017  0.00  0.00    +0.000 F 
ATOM     16  F   UNL     1      49.994   4.957  19.365  0.00  0.00    +0.000 F 
ENDBRANCH  11  13
ENDBRANCH   5   7
BRANCH   1  17
ATOM     17  C   UNL     1      44.184   5.468  11.502  0.00  0.00    +0.000 C 
BRANCH  17  18
ATOM     18  N   UNL     1      44.225   5.333  10.061  0.00  0.00    +0.000 N 
ATOM     19  H   UNL     1      43.392   5.697   9.606  0.00  0.00    +0.000 HD
BRANCH  18  26
ATOM     20  C   UNL     1      43.775   2.318  10.780  0.00  0.00    +0.000 C 
ATOM     21  C   UNL     1      44.673   2.881   9.710  0.00  0.00    +0.000 A 
ATOM     22  C   UNL     1      45.424   1.920   8.989  0.00  0.00    +0.000 A 
ATOM     23  C   UNL     1      46.302   2.269   7.961  0.00  0.00    +0.000 A 
ATOM     24  C   UNL     1      46.429   3.615   7.636  0.00  0.00    +0.000 A 
ATOM     25  C   UNL     1      45.693   4.577   8.346  0.00  0.00    +0.000 A 
ATOM     26  C   UNL     1      44.792   4.248   9.384  0.00  0.00    +0.000 A 
BRANCH  23  27
ATOM     27  C   UNL     1      47.050   1.165   7.289  0.00  0.00    +0.000 C 
ATOM     28  N   UNL     1      46.775  -0.127   7.639  0.00  0.00    +0.000 N 
ATOM     29  O   UNL     1      47.901   1.391   6.435  0.00  0.00    +0.000 OA
ATOM     30  H   UNL     1      46.084  -0.413   8.312  0.00  0.00    +0.000 HD
ATOM     31  H   UNL     1      47.294  -0.846   7.152  0.00  0.00    +0.000 HD
ENDBRANCH  23  27
ENDBRANCH  18  26
ENDBRANCH  17  18
ENDBRANCH   1  17
TORSDOF 6
ENDMDL
MODEL 4
REMARK VINA RESULT:    -7.554      2.075      2.756
REMARK INTER + INTRA:         -11.215
REMARK INTER:                 -10.072
REMARK INTRA:                  -1.143
REMARK UNBOUND:                -1.012
REMARK  Name = 
REMARK  7 active torsions:
REMARK  status: ('A' for Active; 'I' for Inactive)
REMARK    1  A    between atoms: C_1  and  C_2
REMARK    2  A    between atoms: C_4  and  C_5
REMARK    3  A    between atoms: C_10  and  N_11
REMARK    4  A    between atoms: N_11  and  C_12
REMARK    5  A    between atoms: C_12  and  C_13
REMARK    6  A    between atoms: C_17  and  C_18
REMARK    7  A    between atoms: C_22  and  C_23
REMARK                            x       y       z     vdW  Elec       q    Type
REMARK                         _______ _______ _______ _____ _____    ______ ____
ROOT
ATOM      1  C   UNL     1      44.962   4.095  12.627  0.00  0.00    +0.000 A 
ATOM      2  C   UNL     1      46.021   3.423  13.242  0.00  0.00    +0.000 A 
ATOM      3  C   UNL     1      47.158   4.126  13.634  0.00  0.00    +0.000 A 
ATOM      4  C   UNL     1      47.241   5.508  13.428  0.00  0.00    +0.000 A 
ATOM      5  C   UNL     1      46.191   6.225  12.827  0.00  0.00    +0.000 A 
ATOM      6  C   UNL     1      45.055   5.487  12.442  0.00  0.00    +0.000 A 
ENDROOT
BRANCH   5   7
ATOM      7  C   UNL     1      46.274   7.683  12.582  0.00  0.00    +0.000 A 
ATOM      8  C   UNL     1      45.180   8.440  12.156  0.00  0.00    +0.000 A 
ATOM      9  N   UNL     1      45.194   9.779  11.931  0.00  0.00    +0.000 NA
ATOM     10  C   UNL     1      46.358  10.424  12.156  0.00  0.00    +0.000 A 
ATOM     11  C   UNL     1      47.512   9.794  12.588  0.00  0.00    +0.000 A 
ATOM     12  C   UNL     1      47.458   8.407  12.788  0.00  0.00    +0.000 A 
BRANCH  11  13
ATOM     13  C   UNL     1      48.766  10.569  12.845  0.00  0.00    +0.000 C 
ATOM     14  F   UNL     1      49.072  11.461  11.864  0.00  0.00    +0.000 F 
ATOM     15  F   UNL     1      48.701  11.290  13.999  0.00  0.00    +0.000 F 
ATOM     16  F   UNL     1      49.857   9.764  12.971  0.00  0.00    +0.000 F 
ENDBRANCH  11  13
ENDBRANCH   5   7
BRANCH   1  17
ATOM     17  C   UNL     1      43.759   3.347  12.098  0.00  0.00    +0.000 C 
BRANCH  17  18
ATOM     18  N   UNL     1      43.601   3.529  10.670  0.00  0.00    +0.000 N 
ATOM     19  H   UNL     1      42.676   3.268  10.338  0.00  0.00    +0.000 HD
BRANCH  18  26
ATOM     20  C   UNL     1      45.364   5.748   9.336  0.00  0.00    +0.000 C 
ATOM     21  C   UNL     1      45.381   4.269   9.051  0.00  0.00    +0.000 A 
ATOM     22  C   UNL     1      46.273   3.864   8.027  0.00  0.00    +0.000 A 
ATOM     23  C   UNL     1      46.417   2.531   7.639  0.00  0.00    +0.000 A 
ATOM     24  C   UNL     1      45.656   1.571   8.297  0.00  0.00    +0.000 A 
ATOM     25  C   UNL     1      44.765   1.960   9.311  0.00  0.00    +0.000 A 
ATOM     26  C   UNL     1      44.609   3.301   9.727  0.00  0.00    +0.000 A 
BRANCH  23  27
ATOM     27  C   UNL     1      47.377   2.234   6.534  0.00  0.00    +0.000 C 
ATOM     28  N   UNL     1      47.274   2.934   5.366  0.00  0.00    +0.000 N 
ATOM     29  O   UNL     1      48.250   1.382   6.652  0.00  0.00    +0.000 OA
ATOM     30  H   UNL     1      46.605   3.663   5.181  0.00  0.00    +0.000 HD
ATOM     31  H   UNL     1      47.950   2.712   4.646  0.00  0.00    +0.000 HD
ENDBRANCH  23  27
ENDBRANCH  18  26
ENDBRANCH  17  18
ENDBRANCH   1  17
TORSDOF 6
ENDMDL
MODEL 5
REMARK VINA RESULT:    -7.381      4.093      7.580
REMARK INTER + INTRA:         -10.982
REMARK INTER:                 -10.139
REMARK INTRA:                  -0.843
REMARK UNBOUND:                -1.012
REMARK  Name = 
REMARK  7 active torsions:
REMARK  status: ('A' for Active; 'I' for Inactive)
REMARK    1  A    between atoms: C_1  and  C_2
REMARK    2  A    between atoms: C_4  and  C_5
REMARK    3  A    between atoms: C_10  and  N_11
REMARK    4  A    between atoms: N_11  and  C_12
REMARK    5  A    between atoms: C_12  and  C_13
REMARK    6  A    between atoms: C_17  and  C_18
REMARK    7  A    between atoms: C_22  and  C_23
REMARK                            x       y       z     vdW  Elec       q    Type
REMARK                         _______ _______ _______ _____ _____    ______ ____
ROOT
ATOM      1  C   UNL     1      45.277   6.588  11.503  0.00  0.00    +0.000 A 
ATOM      2  C   UNL     1      43.916   6.757  11.765  0.00  0.00    +0.000 A 
ATOM      3  C   UNL     1      42.988   5.860  11.240  0.00  0.00    +0.000 A 
ATOM      4  C   UNL     1      43.414   4.778  10.460  0.00  0.00    +0.000 A 
ATOM      5  C   UNL     1      44.776   4.563  10.186  0.00  0.00    +0.000 A 
ATOM      6  C   UNL     1      45.689   5.486  10.730  0.00  0.00    +0.000 A 
ENDROOT
BRANCH   5   7
ATOM      7  C   UNL     1      45.240   3.436   9.344  0.00  0.00    +0.000 A 
ATOM      8  C   UNL     1      44.842   2.115   9.565  0.00  0.00    +0.000 A 
ATOM      9  N   UNL     1      45.222   1.048   8.817  0.00  0.00    +0.000 NA
ATOM     10  C   UNL     1      46.037   1.294   7.769  0.00  0.00    +0.000 A 
ATOM     11  C   UNL     1      46.496   2.556   7.437  0.00  0.00    +0.000 A 
ATOM     12  C   UNL     1      46.095   3.628   8.248  0.00  0.00    +0.000 A 
BRANCH  11  13
ATOM     13  C   UNL     1      47.377   2.770   6.246  0.00  0.00    +0.000 C 
ATOM     14  F   UNL     1      46.954   3.768   5.422  0.00  0.00    +0.000 F 
ATOM     15  F   UNL     1      48.653   3.093   6.598  0.00  0.00    +0.000 F 
ATOM     16  F   UNL     1      47.476   1.659   5.466  0.00  0.00    +0.000 F 
ENDBRANCH  11  13
ENDBRANCH   5   7
BRANCH   1  17
ATOM     17  C   UNL     1      46.298   7.600  11.971  0.00  0.00    +0.000 C 
BRANCH  17  18
ATOM     18  N   UNL     1      47.505   6.959  12.452  0.00  0.00    +0.000 N 
ATOM     19  H   UNL     1      47.999   6.449  11.724  0.00  0.00    +0.000 HD
BRANCH  18  26
ATOM     20  C   UNL     1      49.227   8.127  14.793  0.00  0.00    +0.000 C 
ATOM     21  C   UNL     1      48.457   6.833  14.779  0.00  0.00    +0.000 A 
ATOM     22  C   UNL     1      48.576   6.049  15.954  0.00  0.00    +0.000 A 
ATOM     23  C   UNL     1      47.925   4.824  16.110  0.00  0.00    +0.000 A 
ATOM     24  C   UNL     1      47.125   4.370  15.068  0.00  0.00    +0.000 A 
ATOM     25  C   UNL     1      47.002   5.135  13.896  0.00  0.00    +0.000 A 
ATOM     26  C   UNL     1      47.643   6.382  13.719  0.00  0.00    +0.000 A 
BRANCH  23  27
ATOM     27  C   UNL     1      48.145   4.085  17.388  0.00  0.00    +0.000 C 
ATOM     28  N   UNL     1      47.109   3.376  17.927  0.00  0.00    +0.000 N 
ATOM     29  O   UNL     1      49.229   4.099  17.961  0.00  0.00    +0.000 OA
ATOM     30  H   UNL     1      46.191   3.288  17.524  0.00  0.00    +0.000 HD
ATOM     31  H   UNL     1      47.302   2.879  18.787  0.00  0.00    +0.000 HD
ENDBRANCH  23  27
ENDBRANCH  18  26
ENDBRANCH  17  18
ENDBRANCH   1  17
TORSDOF 6
ENDMDL
MODEL 6
REMARK VINA RESULT:    -7.312      5.201      8.591
REMARK INTER + INTRA:         -10.889
REMARK INTER:                  -9.742
REMARK INTRA:                  -1.147
REMARK UNBOUND:                -1.012
REMARK  Name = 
REMARK  7 active torsions:
REMARK  status: ('A' for Active; 'I' for Inactive)
REMARK    1  A    between atoms: C_1  and  C_2
REMARK    2  A    between atoms: C_4  and  C_5
REMARK    3  A    between atoms: C_10  and  N_11
REMARK    4  A    between atoms: N_11  and  C_12
REMARK    5  A    between atoms: C_12  and  C_13
REMARK    6  A    between atoms: C_17  and  C_18
REMARK    7  A    between atoms: C_22  and  C_23
REMARK                            x       y       z     vdW  Elec       q    Type
REMARK                         _______ _______ _______ _____ _____    ______ ____
ROOT
ATOM      1  C   UNL     1      47.113   7.892  13.419  0.00  0.00    +0.000 A 
ATOM      2  C   UNL     1      46.547   9.038  12.854  0.00  0.00    +0.000 A 
ATOM      3  C   UNL     1      45.451   8.927  12.002  0.00  0.00    +0.000 A 
ATOM      4  C   UNL     1      44.901   7.672  11.716  0.00  0.00    +0.000 A 
ATOM      5  C   UNL     1      45.430   6.495  12.277  0.00  0.00    +0.000 A 
ATOM      6  C   UNL     1      46.537   6.640  13.134  0.00  0.00    +0.000 A 
ENDROOT
BRANCH   5   7
ATOM      7  C   UNL     1      44.873   5.158  11.967  0.00  0.00    +0.000 A 
ATOM      8  C   UNL     1      44.048   4.461  12.852  0.00  0.00    +0.000 A 
ATOM      9  N   UNL     1      43.498   3.242  12.615  0.00  0.00    +0.000 NA
ATOM     10  C   UNL     1      43.762   2.675  11.419  0.00  0.00    +0.000 A 
ATOM     11  C   UNL     1      44.556   3.263  10.451  0.00  0.00    +0.000 A 
ATOM     12  C   UNL     1      45.120   4.513  10.745  0.00  0.00    +0.000 A 
BRANCH  11  13
ATOM     13  C   UNL     1      44.791   2.596   9.132  0.00  0.00    +0.000 C 
ATOM     14  F   UNL     1      44.250   1.350   9.043  0.00  0.00    +0.000 F 
ATOM     15  F   UNL     1      44.267   3.305   8.093  0.00  0.00    +0.000 F 
ATOM     16  F   UNL     1      46.115   2.449   8.852  0.00  0.00    +0.000 F 
ENDBRANCH  11  13
ENDBRANCH   5   7
BRANCH   1  17
ATOM     17  C   UNL     1      48.363   7.969  14.265  0.00  0.00    +0.000 C 
BRANCH  17  18
ATOM     18  N   UNL     1      48.795   6.657  14.702  0.00  0.00    +0.000 N 
ATOM     19  H   UNL     1      48.659   5.940  13.994  0.00  0.00    +0.000 HD
BRANCH  18  26
ATOM     20  C   UNL     1      47.293   4.031  15.510  0.00  0.00    +0.000 C 
ATOM     21  C   UNL     1      47.938   5.036  16.426  0.00  0.00    +0.000 A 
ATOM     22  C   UNL     1      47.798   4.765  17.810  0.00  0.00    +0.000 A 
ATOM     23  C   UNL     1      48.340   5.592  18.797  0.00  0.00    +0.000 A 
ATOM     24  C   UNL     1      49.048   6.718  18.392  0.00  0.00    +0.000 A 
ATOM     25  C   UNL     1      49.190   6.999  17.023  0.00  0.00    +0.000 A 
ATOM     26  C   UNL     1      48.660   6.173  16.007  0.00  0.00    +0.000 A 
BRANCH  23  27
ATOM     27  C   UNL     1      48.108   5.208  20.221  0.00  0.00    +0.000 C 
ATOM     28  N   UNL     1      47.097   5.814  20.911  0.00  0.00    +0.000 N 
ATOM     29  O   UNL     1      48.801   4.367  20.781  0.00  0.00    +0.000 OA
ATOM     30  H   UNL     1      46.464   6.500  20.535  0.00  0.00    +0.000 HD
ATOM     31  H   UNL     1      46.964   5.517  21.870  0.00  0.00    +0.000 HD
ENDBRANCH  23  27
ENDBRANCH  18  26
ENDBRANCH  17  18
ENDBRANCH   1  17
TORSDOF 6
ENDMDL
MODEL 7
REMARK VINA RESULT:    -7.163      4.927      8.145
REMARK INTER + INTRA:         -10.687
REMARK INTER:                  -9.721
REMARK INTRA:                  -0.966
REMARK UNBOUND:                -1.012
REMARK  Name = 
REMARK  7 active torsions:
REMARK  status: ('A' for Active; 'I' for Inactive)
REMARK    1  A    between atoms: C_1  and  C_2
REMARK    2  A    between atoms: C_4  and  C_5
REMARK    3  A    between atoms: C_10  and  N_11
REMARK    4  A    between atoms: N_11  and  C_12
REMARK    5  A    between atoms: C_12  and  C_13
REMARK    6  A    between atoms: C_17  and  C_18
REMARK    7  A    between atoms: C_22  and  C_23
REMARK                            x       y       z     vdW  Elec       q    Type
REMARK                         _______ _______ _______ _____ _____    ______ ____
ROOT
ATOM      1  C   UNL     1      47.173   7.798  13.475  0.00  0.00    +0.000 A 
ATOM      2  C   UNL     1      46.545   8.995  13.121  0.00  0.00    +0.000 A 
ATOM      3  C   UNL     1      45.429   8.977  12.287  0.00  0.00    +0.000 A 
ATOM      4  C   UNL     1      44.922   7.763  11.810  0.00  0.00    +0.000 A 
ATOM      5  C   UNL     1      45.514   6.535  12.155  0.00  0.00    +0.000 A 
ATOM      6  C   UNL     1      46.640   6.585  13.000  0.00  0.00    +0.000 A 
ENDROOT
BRANCH   5   7
ATOM      7  C   UNL     1      45.003   5.244  11.641  0.00  0.00    +0.000 A 
ATOM      8  C   UNL     1      44.083   4.462  12.344  0.00  0.00    +0.000 A 
ATOM      9  N   UNL     1      43.570   3.281  11.915  0.00  0.00    +0.000 NA
ATOM     10  C   UNL     1      43.973   2.843  10.703  0.00  0.00    +0.000 A 
ATOM     11  C   UNL     1      44.871   3.526   9.903  0.00  0.00    +0.000 A 
ATOM     12  C   UNL     1      45.392   4.732  10.393  0.00  0.00    +0.000 A 
BRANCH  11  13
ATOM     13  C   UNL     1      45.260   3.002   8.556  0.00  0.00    +0.000 C 
ATOM     14  F   UNL     1      45.496   1.662   8.534  0.00  0.00    +0.000 F 
ATOM     15  F   UNL     1      44.299   3.227   7.616  0.00  0.00    +0.000 F 
ATOM     16  F   UNL     1      46.392   3.588   8.077  0.00  0.00    +0.000 F 
ENDBRANCH  11  13
ENDBRANCH   5   7
BRANCH   1  17
ATOM     17  C   UNL     1      48.444   7.790  14.293  0.00  0.00    +0.000 C 
BRANCH  17  18
ATOM     18  N   UNL     1      48.231   7.215  15.606  0.00  0.00    +0.000 N 
ATOM     19  H   UNL     1      47.930   7.901  16.294  0.00  0.00    +0.000 HD
BRANCH  18  26
ATOM     20  C   UNL     1      47.174   4.373  16.387  0.00  0.00    +0.000 C 
ATOM     21  C   UNL     1      48.563   4.920  16.583  0.00  0.00    +0.000 A 
ATOM     22  C   UNL     1      49.466   4.046  17.239  0.00  0.00    +0.000 A 
ATOM     23  C   UNL     1      50.794   4.393  17.498  0.00  0.00    +0.000 A 
ATOM     24  C   UNL     1      51.237   5.644  17.083  0.00  0.00    +0.000 A 
ATOM     25  C   UNL     1      50.350   6.520  16.436  0.00  0.00    +0.000 A 
ATOM     26  C   UNL     1      49.006   6.189  16.155  0.00  0.00    +0.000 A 
BRANCH  23  27
ATOM     27  C   UNL     1      51.641   3.392  18.212  0.00  0.00    +0.000 C 
ATOM     28  N   UNL     1      52.191   3.733  19.415  0.00  0.00    +0.000 N 
ATOM     29  O   UNL     1      51.852   2.279  17.745  0.00  0.00    +0.000 OA
ATOM     30  H   UNL     1      52.061   4.612  19.887  0.00  0.00    +0.000 HD
ATOM     31  H   UNL     1      52.748   3.023  19.873  0.00  0.00    +0.000 HD
ENDBRANCH  23  27
ENDBRANCH  18  26
ENDBRANCH  17  18
ENDBRANCH   1  17
TORSDOF 6
ENDMDL
MODEL 8
REMARK VINA RESULT:    -6.987      5.364      8.074
REMARK INTER + INTRA:         -10.450
REMARK INTER:                  -9.255
REMARK INTRA:                  -1.194
REMARK UNBOUND:                -1.012
REMARK  Name = 
REMARK  7 active torsions:
REMARK  status: ('A' for Active; 'I' for Inactive)
REMARK    1  A    between atoms: C_1  and  C_2
REMARK    2  A    between atoms: C_4  and  C_5
REMARK    3  A    between atoms: C_10  and  N_11
REMARK    4  A    between atoms: N_11  and  C_12
REMARK    5  A    between atoms: C_12  and  C_13
REMARK    6  A    between atoms: C_17  and  C_18
REMARK    7  A    between atoms: C_22  and  C_23
REMARK                            x       y       z     vdW  Elec       q    Type
REMARK                         _______ _______ _______ _____ _____    ______ ____
ROOT
ATOM      1  C   UNL     1      48.773   7.819  14.536  0.00  0.00    +0.000 A 
ATOM      2  C   UNL     1      49.803   8.086  13.632  0.00  0.00    +0.000 A 
ATOM      3  C   UNL     1      49.612   7.862  12.270  0.00  0.00    +0.000 A 
ATOM      4  C   UNL     1      48.385   7.381  11.798  0.00  0.00    +0.000 A 
ATOM      5  C   UNL     1      47.316   7.115  12.673  0.00  0.00    +0.000 A 
ATOM      6  C   UNL     1      47.540   7.352  14.043  0.00  0.00    +0.000 A 
ENDROOT
BRANCH   5   7
ATOM      7  C   UNL     1      46.020   6.585  12.191  0.00  0.00    +0.000 A 
ATOM      8  C   UNL     1      44.999   7.410  11.712  0.00  0.00    +0.000 A 
ATOM      9  N   UNL     1      43.799   6.979  11.245  0.00  0.00    +0.000 NA
ATOM     10  C   UNL     1      43.592   5.645  11.230  0.00  0.00    +0.000 A 
ATOM     11  C   UNL     1      44.523   4.721  11.668  0.00  0.00    +0.000 A 
ATOM     12  C   UNL     1      45.741   5.210  12.162  0.00  0.00    +0.000 A 
BRANCH  11  13
ATOM     13  C   UNL     1      44.245   3.252  11.603  0.00  0.00    +0.000 C 
ATOM     14  F   UNL     1      44.337   2.730  10.349  0.00  0.00    +0.000 F 
ATOM     15  F   UNL     1      45.105   2.528  12.372  0.00  0.00    +0.000 F 
ATOM     16  F   UNL     1      42.997   2.939  12.046  0.00  0.00    +0.000 F 
ENDBRANCH  11  13
ENDBRANCH   5   7
BRANCH   1  17
ATOM     17  C   UNL     1      48.982   7.954  16.027  0.00  0.00    +0.000 C 
BRANCH  17  18
ATOM     18  N   UNL     1      48.485   6.798  16.745  0.00  0.00    +0.000 N 
ATOM     19  H   UNL     1      47.927   7.046  17.557  0.00  0.00    +0.000 HD
BRANCH  18  26
ATOM     20  C   UNL     1      47.215   3.936  16.834  0.00  0.00    +0.000 C 
ATOM     21  C   UNL     1      48.663   4.302  17.022  0.00  0.00    +0.000 A 
ATOM     22  C   UNL     1      49.525   3.216  17.316  0.00  0.00    +0.000 A 
ATOM     23  C   UNL     1      50.897   3.377  17.515  0.00  0.00    +0.000 A 
ATOM     24  C   UNL     1      51.428   4.658  17.410  0.00  0.00    +0.000 A 
ATOM     25  C   UNL     1      50.584   5.743  17.123  0.00  0.00    +0.000 A 
ATOM     26  C   UNL     1      49.195   5.604  16.909  0.00  0.00    +0.000 A 
BRANCH  23  27
ATOM     27  C   UNL     1      51.695   2.157  17.837  0.00  0.00    +0.000 C 
ATOM     28  N   UNL     1      51.150   0.929  17.592  0.00  0.00    +0.000 N 
ATOM     29  O   UNL     1      52.822   2.233  18.314  0.00  0.00    +0.000 OA
ATOM     30  H   UNL     1      50.243   0.765  17.187  0.00  0.00    +0.000 HD
ATOM     31  H   UNL     1      51.727   0.127  17.812  0.00  0.00    +0.000 HD
ENDBRANCH  23  27
ENDBRANCH  18  26
ENDBRANCH  17  18
ENDBRANCH   1  17
TORSDOF 6
ENDMDL
MODEL 9
REMARK VINA RESULT:    -6.840      4.989      8.421
REMARK INTER + INTRA:         -10.250
REMARK INTER:                  -9.393
REMARK INTRA:                  -0.857
REMARK UNBOUND:                -1.012
REMARK  Name = 
REMARK  7 active torsions:
REMARK  status: ('A' for Active; 'I' for Inactive)
REMARK    1  A    between atoms: C_1  and  C_2
REMARK    2  A    between atoms: C_4  and  C_5
REMARK    3  A    between atoms: C_10  and  N_11
REMARK    4  A    between atoms: N_11  and  C_12
REMARK    5  A    between atoms: C_12  and  C_13
REMARK    6  A    between atoms: C_17  and  C_18
REMARK    7  A    between atoms: C_22  and  C_23
REMARK                            x       y       z     vdW  Elec       q    Type
REMARK                         _______ _______ _______ _____ _____    ______ ____
ROOT
ATOM      1  C   UNL     1      46.958   8.058  13.016  0.00  0.00    +0.000 A 
ATOM      2  C   UNL     1      46.193   9.216  12.848  0.00  0.00    +0.000 A 
ATOM      3  C   UNL     1      45.065   9.193  12.031  0.00  0.00    +0.000 A 
ATOM      4  C   UNL     1      44.682   8.011  11.386  0.00  0.00    +0.000 A 
ATOM      5  C   UNL     1      45.414   6.821  11.541  0.00  0.00    +0.000 A 
ATOM      6  C   UNL     1      46.549   6.875  12.373  0.00  0.00    +0.000 A 
ENDROOT
BRANCH   5   7
ATOM      7  C   UNL     1      45.034   5.569  10.848  0.00  0.00    +0.000 A 
ATOM      8  C   UNL     1      43.952   4.782  11.250  0.00  0.00    +0.000 A 
ATOM      9  N   UNL     1      43.550   3.636  10.643  0.00  0.00    +0.000 NA
ATOM     10  C   UNL     1      44.247   3.241   9.556  0.00  0.00    +0.000 A 
ATOM     11  C   UNL     1      45.332   3.934   9.051  0.00  0.00    +0.000 A 
ATOM     12  C   UNL     1      45.726   5.102   9.720  0.00  0.00    +0.000 A 
BRANCH  11  13
ATOM     13  C   UNL     1      46.050   3.461   7.826  0.00  0.00    +0.000 C 
ATOM     14  F   UNL     1      47.035   4.302   7.407  0.00  0.00    +0.000 F 
ATOM     15  F   UNL     1      46.646   2.250   8.011  0.00  0.00    +0.000 F 
ATOM     16  F   UNL     1      45.215   3.305   6.762  0.00  0.00    +0.000 F 
ENDBRANCH  11  13
ENDBRANCH   5   7
BRANCH   1  17
ATOM     17  C   UNL     1      48.243   8.075  13.812  0.00  0.00    +0.000 C 
BRANCH  17  18
ATOM     18  N   UNL     1      48.006   8.407  15.202  0.00  0.00    +0.000 N 
ATOM     19  H   UNL     1      48.175   9.388  15.409  0.00  0.00    +0.000 HD
BRANCH  18  26
ATOM     20  C   UNL     1      48.175   9.289  18.203  0.00  0.00    +0.000 C 
ATOM     21  C   UNL     1      48.449   7.922  17.633  0.00  0.00    +0.000 A 
ATOM     22  C   UNL     1      48.874   6.952  18.574  0.00  0.00    +0.000 A 
ATOM     23  C   UNL     1      49.166   5.634  18.216  0.00  0.00    +0.000 A 
ATOM     24  C   UNL     1      49.023   5.271  16.882  0.00  0.00    +0.000 A 
ATOM     25  C   UNL     1      48.607   6.225  15.938  0.00  0.00    +0.000 A 
ATOM     26  C   UNL     1      48.297   7.561  16.278  0.00  0.00    +0.000 A 
BRANCH  23  27
ATOM     27  C   UNL     1      49.622   4.712  19.298  0.00  0.00    +0.000 C 
ATOM     28  N   UNL     1      50.827   4.081  19.163  0.00  0.00    +0.000 N 
ATOM     29  O   UNL     1      48.943   4.508  20.298  0.00  0.00    +0.000 OA
ATOM     30  H   UNL     1      51.462   4.198  18.391  0.00  0.00    +0.000 HD
ATOM     31  H   UNL     1      51.105   3.474  19.923  0.00  0.00    +0.000 HD
ENDBRANCH  23  27
ENDBRANCH  18  26
ENDBRANCH  17  18
ENDBRANCH   1  17
TORSDOF 6
ENDMDL
