MODEL 1
REMARK VINA RESULT:    -9.800      0.000      0.000
REMARK INTER + INTRA:         -14.231
REMARK INTER:                 -13.238
REMARK INTRA:                  -0.994
REMARK UNBOUND:                -0.994
REMARK  Name = 
REMARK  6 active torsions:
REMARK  status: ('A' for Active; 'I' for Inactive)
REMARK    1  A    between atoms: C_2  and  C_4
REMARK    2  A    between atoms: N_8  and  C_9
REMARK    3  A    between atoms: C_9  and  C_10
REMARK    4  A    between atoms: C_10  and  C_13
REMARK    5  A    between atoms: C_18  and  O_19
REMARK    6  A    between atoms: O_19  and  C_20
REMARK                            x       y       z     vdW  Elec       q    Type
REMARK                         _______ _______ _______ _____ _____    ______ ____
ROOT
ATOM      1  C   UNL     1      43.310   5.688  12.098  0.00  0.00    +0.000 C 
ATOM      2  F   UNL     1      42.508   6.635  11.522  0.00  0.00    +0.000 F 
ATOM      3  F   UNL     1      42.700   5.368  13.277  0.00  0.00    +0.000 F 
ENDROOT
BRANCH   1   4
ATOM      4  C   UNL     1      44.724   6.196  12.319  0.00  0.00    +0.000 A 
ATOM      5  C   UNL     1      45.122   7.455  11.864  0.00  0.00    +0.000 A 
ATOM      6  C   UNL     1      46.437   7.884  12.059  0.00  0.00    +0.000 A 
ATOM      7  C   UNL     1      47.381   7.071  12.711  0.00  0.00    +0.000 A 
ATOM      8 CL   UNL     1      48.951   7.759  12.897  0.00  0.00    +0.000 Cl
ATOM      9  C   UNL     1      46.998   5.809  13.179  0.00  0.00    +0.000 A 
ATOM     10  C   UNL     1      45.670   5.393  12.977  0.00  0.00    +0.000 A 
BRANCH   9  11
ATOM     11  O   UNL     1      47.712   4.877  13.891  0.00  0.00    +0.000 OA
BRANCH  11  12
ATOM     12  C   UNL     1      47.150   4.126  14.977  0.00  0.00    +0.000 C 
ATOM     13  C   UNL     1      47.519   4.548  16.410  0.00  0.00    +0.000 C 
ATOM     14  C   UNL     1      47.879   3.079  16.600  0.00  0.00    +0.000 C 
ATOM     15  O   UNL     1      47.853   2.857  15.173  0.00  0.00    +0.000 OA
ENDBRANCH  11  12
ENDBRANCH   9  11
ENDBRANCH   1   4
BRANCH   1  16
ATOM     16  C   UNL     1      43.323   4.438  11.176  0.00  0.00    +0.000 C 
BRANCH  16  21
ATOM     17  C   UNL     1      46.467   2.498   7.672  0.00  0.00    +0.000 A 
ATOM     18  C   UNL     1      45.625   1.835   8.559  0.00  0.00    +0.000 A 
ATOM     19  C   UNL     1      44.698   2.571   9.297  0.00  0.00    +0.000 A 
ATOM     20  C   UNL     1      44.641   3.955   9.151  0.00  0.00    +0.000 A 
ATOM     21  N   UNL     1      43.703   4.744   9.791  0.00  0.00    +0.000 N 
ATOM     22  N   UNL     1      45.465   4.609   8.312  0.00  0.00    +0.000 NA
ATOM     23  C   UNL     1      46.362   3.877   7.596  0.00  0.00    +0.000 A 
ATOM     24  H   UNL     1      43.939   5.721   9.611  0.00  0.00    +0.000 HD
BRANCH  17  26
ATOM     25  N   UNL     1      48.571   2.509   6.452  0.00  0.00    +0.000 N 
ATOM     26  C   UNL     1      47.464   1.801   6.832  0.00  0.00    +0.000 C 
ATOM     27  O   UNL     1      47.324   0.627   6.515  0.00  0.00    +0.000 OA
ATOM     28  H   UNL     1      49.292   1.985   5.968  0.00  0.00    +0.000 HD
ATOM     29  H   UNL     1      48.846   3.372   6.897  0.00  0.00    +0.000 HD
ENDBRANCH  17  26
ENDBRANCH  16  21
ENDBRANCH   1  16
TORSDOF 6
ENDMDL
MODEL 2
REMARK VINA RESULT:    -8.362      2.746      4.245
REMARK INTER + INTRA:         -12.288
REMARK INTER:                 -11.348
REMARK INTRA:                  -0.940
REMARK UNBOUND:                -0.994
REMARK  Name = 
REMARK  6 active torsions:
REMARK  status: ('A' for Active; 'I' for Inactive)
REMARK    1  A    between atoms: C_2  and  C_4
REMARK    2  A    between atoms: N_8  and  C_9
REMARK    3  A    between atoms: C_9  and  C_10
REMARK    4  A    between atoms: C_10  and  C_13
REMARK    5  A    between atoms: C_18  and  O_19
REMARK    6  A    between atoms: O_19  and  C_20
REMARK                            x       y       z     vdW  Elec       q    Type
REMARK                         _______ _______ _______ _____ _____    ______ ____
ROOT
ATOM      1  C   UNL     1      44.674   4.818  12.297  0.00  0.00    +0.000 C 
ATOM      2  F   UNL     1      44.090   4.662  13.524  0.00  0.00    +0.000 F 
ATOM      3  F   UNL     1      45.506   3.745  12.155  0.00  0.00    +0.000 F 
ENDROOT
BRANCH   1   4
ATOM      4  C   UNL     1      45.430   6.131  12.187  0.00  0.00    +0.000 A 
ATOM      5  C   UNL     1      46.803   6.158  11.939  0.00  0.00    +0.000 A 
ATOM      6  C   UNL     1      47.476   7.381  11.869  0.00  0.00    +0.000 A 
ATOM      7  C   UNL     1      46.796   8.599  12.045  0.00  0.00    +0.000 A 
ATOM      8 CL   UNL     1      47.765  10.017  11.900  0.00  0.00    +0.000 Cl
ATOM      9  C   UNL     1      45.419   8.591  12.289  0.00  0.00    +0.000 A 
ATOM     10  C   UNL     1      44.756   7.352  12.353  0.00  0.00    +0.000 A 
BRANCH   9  11
ATOM     11  O   UNL     1      44.539   9.636  12.428  0.00  0.00    +0.000 OA
BRANCH  11  12
ATOM     12  C   UNL     1      44.241  10.552  11.364  0.00  0.00    +0.000 C 
ATOM     13  C   UNL     1      42.892  11.292  11.409  0.00  0.00    +0.000 C 
ATOM     14  C   UNL     1      42.727  10.788   9.980  0.00  0.00    +0.000 C 
ATOM     15  O   UNL     1      43.811   9.849  10.154  0.00  0.00    +0.000 OA
ENDBRANCH  11  12
ENDBRANCH   9  11
ENDBRANCH   1   4
BRANCH   1  16
ATOM     16  C   UNL     1      43.560   4.744  11.217  0.00  0.00    +0.000 C 
BRANCH  16  21
ATOM     17  C   UNL     1      46.509   2.591   7.666  0.00  0.00    +0.000 A 
ATOM     18  C   UNL     1      45.541   2.006   8.477  0.00  0.00    +0.000 A 
ATOM     19  C   UNL     1      44.709   2.823   9.241  0.00  0.00    +0.000 A 
ATOM     20  C   UNL     1      44.868   4.207   9.198  0.00  0.00    +0.000 A 
ATOM     21  N   UNL     1      44.037   5.084   9.870  0.00  0.00    +0.000 N 
ATOM     22  N   UNL     1      45.815   4.782   8.435  0.00  0.00    +0.000 NA
ATOM     23  C   UNL     1      46.617   3.972   7.692  0.00  0.00    +0.000 A 
ATOM     24  H   UNL     1      44.426   6.023   9.771  0.00  0.00    +0.000 HD
BRANCH  17  26
ATOM     25  N   UNL     1      48.538   2.441   6.335  0.00  0.00    +0.000 N 
ATOM     26  C   UNL     1      47.420   1.809   6.805  0.00  0.00    +0.000 C 
ATOM     27  O   UNL     1      47.203   0.632   6.547  0.00  0.00    +0.000 OA
ATOM     28  H   UNL     1      49.204   1.861   5.837  0.00  0.00    +0.000 HD
ATOM     29  H   UNL     1      48.881   3.306   6.727  0.00  0.00    +0.000 HD
ENDBRANCH  17  26
ENDBRANCH  16  21
ENDBRANCH   1  16
TORSDOF 6
ENDMDL
MODEL 3
REMARK VINA RESULT:    -8.320      1.876      2.153
REMARK INTER + INTRA:         -12.232
REMARK INTER:                 -11.782
REMARK INTRA:                  -0.450
REMARK UNBOUND:                -0.994
REMARK  Name = 
REMARK  6 active torsions:
REMARK  status: ('A' for Active; 'I' for Inactive)
REMARK    1  A    between atoms: C_2  and  C_4
REMARK    2  A    between atoms: N_8  and  C_9
REMARK    3  A    between atoms: C_9  and  C_10
REMARK    4  A    between atoms: C_10  and  C_13
REMARK    5  A    between atoms: C_18  and  O_19
REMARK    6  A    between atoms: O_19  and  C_20
REMARK                            x       y       z     vdW  Elec       q    Type
REMARK                         _______ _______ _______ _____ _____    ______ ____
ROOT
ATOM      1  C   UNL     1      44.391   4.473  12.298  0.00  0.00    +0.000 C 
ATOM      2  F   UNL     1      43.781   4.267  13.504  0.00  0.00    +0.000 F 
ATOM      3  F   UNL     1      45.232   3.410  12.131  0.00  0.00    +0.000 F 
ENDROOT
BRANCH   1   4
ATOM      4  C   UNL     1      45.143   5.792  12.257  0.00  0.00    +0.000 A 
ATOM      5  C   UNL     1      44.524   6.968  11.828  0.00  0.00    +0.000 A 
ATOM      6  C   UNL     1      45.250   8.161  11.778  0.00  0.00    +0.000 A 
ATOM      7  C   UNL     1      46.604   8.208  12.153  0.00  0.00    +0.000 A 
ATOM      8 CL   UNL     1      47.346   9.761  12.060  0.00  0.00    +0.000 Cl
ATOM      9  C   UNL     1      47.239   7.041  12.591  0.00  0.00    +0.000 A 
ATOM     10  C   UNL     1      46.494   5.849  12.638  0.00  0.00    +0.000 A 
BRANCH   9  11
ATOM     11  O   UNL     1      48.515   6.853  13.063  0.00  0.00    +0.000 OA
BRANCH  11  12
ATOM     12  C   UNL     1      48.956   7.343  14.337  0.00  0.00    +0.000 C 
ATOM     13  C   UNL     1      50.371   7.940  14.428  0.00  0.00    +0.000 C 
ATOM     14  C   UNL     1      50.547   6.986  15.603  0.00  0.00    +0.000 C 
ATOM     15  O   UNL     1      49.364   6.250  15.221  0.00  0.00    +0.000 OA
ENDBRANCH  11  12
ENDBRANCH   9  11
ENDBRANCH   1   4
BRANCH   1  16
ATOM     16  C   UNL     1      43.302   4.438  11.190  0.00  0.00    +0.000 C 
BRANCH  16  21
ATOM     17  C   UNL     1      46.461   2.519   7.687  0.00  0.00    +0.000 A 
ATOM     18  C   UNL     1      45.495   1.869   8.448  0.00  0.00    +0.000 A 
ATOM     19  C   UNL     1      44.602   2.627   9.205  0.00  0.00    +0.000 A 
ATOM     20  C   UNL     1      44.699   4.016   9.204  0.00  0.00    +0.000 A 
ATOM     21  N   UNL     1      43.807   4.837   9.870  0.00  0.00    +0.000 N 
ATOM     22  N   UNL     1      45.643   4.654   8.489  0.00  0.00    +0.000 NA
ATOM     23  C   UNL     1      46.506   3.903   7.753  0.00  0.00    +0.000 A 
ATOM     24  H   UNL     1      44.156   5.794   9.809  0.00  0.00    +0.000 HD
BRANCH  17  26
ATOM     25  N   UNL     1      48.501   2.517   6.363  0.00  0.00    +0.000 N 
ATOM     26  C   UNL     1      47.435   1.803   6.837  0.00  0.00    +0.000 C 
ATOM     27  O   UNL     1      47.313   0.610   6.592  0.00  0.00    +0.000 OA
ATOM     28  H   UNL     1      49.212   1.987   5.873  0.00  0.00    +0.000 HD
ATOM     29  H   UNL     1      48.772   3.410   6.746  0.00  0.00    +0.000 HD
ENDBRANCH  17  26
ENDBRANCH  16  21
ENDBRANCH   1  16
TORSDOF 6
ENDMDL
MODEL 4
REMARK VINA RESULT:    -7.625      3.781      7.658
REMARK INTER + INTRA:         -11.293
REMARK INTER:                 -10.493
REMARK INTRA:                  -0.799
REMARK UNBOUND:                -0.994
REMARK  Name = 
REMARK  6 active torsions:
REMARK  status: ('A' for Active; 'I' for Inactive)
REMARK    1  A    between atoms: C_2  and  C_4
REMARK    2  A    between atoms: N_8  and  C_9
REMARK    3  A    between atoms: C_9  and  C_10
REMARK    4  A    between atoms: C_10  and  C_13
REMARK    5  A    between atoms: C_18  and  O_19
REMARK    6  A    between atoms: O_19  and  C_20
REMARK                            x       y       z     vdW  Elec       q    Type
REMARK                         _______ _______ _______ _____ _____    ______ ____
ROOT
ATOM      1  C   UNL     1      45.748   6.664  11.689  0.00  0.00    +0.000 C 
ATOM      2  F   UNL     1      44.811   7.641  11.499  0.00  0.00    +0.000 F 
ATOM      3  F   UNL     1      46.911   7.177  11.190  0.00  0.00    +0.000 F 
ENDROOT
BRANCH   1   4
ATOM      4  C   UNL     1      45.368   5.366  10.997  0.00  0.00    +0.000 A 
ATOM      5  C   UNL     1      44.765   4.320  11.699  0.00  0.00    +0.000 A 
ATOM      6  C   UNL     1      44.450   3.128  11.040  0.00  0.00    +0.000 A 
ATOM      7  C   UNL     1      44.728   2.954   9.673  0.00  0.00    +0.000 A 
ATOM      8 CL   UNL     1      44.252   1.437   9.006  0.00  0.00    +0.000 Cl
ATOM      9  C   UNL     1      45.326   3.994   8.953  0.00  0.00    +0.000 A 
ATOM     10  C   UNL     1      45.634   5.188   9.630  0.00  0.00    +0.000 A 
BRANCH   9  11
ATOM     11  O   UNL     1      45.631   4.083   7.617  0.00  0.00    +0.000 OA
BRANCH  11  12
ATOM     12  C   UNL     1      46.867   3.609   7.064  0.00  0.00    +0.000 C 
ATOM     13  C   UNL     1      46.845   3.043   5.634  0.00  0.00    +0.000 C 
ATOM     14  C   UNL     1      47.555   1.842   6.248  0.00  0.00    +0.000 C 
ATOM     15  O   UNL     1      47.213   2.283   7.580  0.00  0.00    +0.000 OA
ENDBRANCH  11  12
ENDBRANCH   9  11
ENDBRANCH   1   4
BRANCH   1  16
ATOM     16  C   UNL     1      45.907   6.435  13.217  0.00  0.00    +0.000 C 
BRANCH  16  21
ATOM     17  C   UNL     1      48.569   4.338  17.019  0.00  0.00    +0.000 A 
ATOM     18  C   UNL     1      47.545   3.786  16.255  0.00  0.00    +0.000 A 
ATOM     19  C   UNL     1      47.092   4.471  15.128  0.00  0.00    +0.000 A 
ATOM     20  C   UNL     1      47.654   5.701  14.794  0.00  0.00    +0.000 A 
ATOM     21  N   UNL     1      47.309   6.404  13.654  0.00  0.00    +0.000 N 
ATOM     22  N   UNL     1      48.629   6.254  15.538  0.00  0.00    +0.000 NA
ATOM     23  C   UNL     1      49.063   5.573  16.632  0.00  0.00    +0.000 A 
ATOM     24  H   UNL     1      47.771   7.313  13.695  0.00  0.00    +0.000 HD
BRANCH  17  26
ATOM     25  N   UNL     1      48.247   3.092  19.082  0.00  0.00    +0.000 N 
ATOM     26  C   UNL     1      49.129   3.676  18.215  0.00  0.00    +0.000 C 
ATOM     27  O   UNL     1      50.336   3.621  18.410  0.00  0.00    +0.000 OA
ATOM     28  H   UNL     1      48.653   2.552  19.838  0.00  0.00    +0.000 HD
ATOM     29  H   UNL     1      47.290   2.890  18.832  0.00  0.00    +0.000 HD
ENDBRANCH  17  26
ENDBRANCH  16  21
ENDBRANCH   1  16
TORSDOF 6
ENDMDL
MODEL 5
REMARK VINA RESULT:    -6.955      4.180      7.388
REMARK INTER + INTRA:         -10.389
REMARK INTER:                  -9.357
REMARK INTRA:                  -1.032
REMARK UNBOUND:                -0.994
REMARK  Name = 
REMARK  6 active torsions:
REMARK  status: ('A' for Active; 'I' for Inactive)
REMARK    1  A    between atoms: C_2  and  C_4
REMARK    2  A    between atoms: N_8  and  C_9
REMARK    3  A    between atoms: C_9  and  C_10
REMARK    4  A    between atoms: C_10  and  C_13
REMARK    5  A    between atoms: C_18  and  O_19
REMARK    6  A    between atoms: O_19  and  C_20
REMARK                            x       y       z     vdW  Elec       q    Type
REMARK                         _______ _______ _______ _____ _____    ______ ____
ROOT
ATOM      1  C   UNL     1      48.364   8.005  12.086  0.00  0.00    +0.000 C 
ATOM      2  F   UNL     1      48.664   9.070  11.283  0.00  0.00    +0.000 F 
ATOM      3  F   UNL     1      49.276   7.041  11.764  0.00  0.00    +0.000 F 
ENDROOT
BRANCH   1   4
ATOM      4  C   UNL     1      46.940   7.518  11.879  0.00  0.00    +0.000 A 
ATOM      5  C   UNL     1      45.845   8.290  12.271  0.00  0.00    +0.000 A 
ATOM      6  C   UNL     1      44.547   7.804  12.091  0.00  0.00    +0.000 A 
ATOM      7  C   UNL     1      44.314   6.542  11.517  0.00  0.00    +0.000 A 
ATOM      8 CL   UNL     1      42.656   6.103  11.339  0.00  0.00    +0.000 Cl
ATOM      9  C   UNL     1      45.399   5.757  11.112  0.00  0.00    +0.000 A 
ATOM     10  C   UNL     1      46.698   6.262  11.298  0.00  0.00    +0.000 A 
BRANCH   9  11
ATOM     11  O   UNL     1      45.421   4.539  10.478  0.00  0.00    +0.000 OA
BRANCH  11  12
ATOM     12  C   UNL     1      45.007   4.360   9.116  0.00  0.00    +0.000 C 
ATOM     13  C   UNL     1      45.036   2.935   8.537  0.00  0.00    +0.000 C 
ATOM     14  C   UNL     1      45.831   3.565   7.399  0.00  0.00    +0.000 C 
ATOM     15  O   UNL     1      46.057   4.760   8.178  0.00  0.00    +0.000 OA
ENDBRANCH  11  12
ENDBRANCH   9  11
ENDBRANCH   1   4
BRANCH   1  16
ATOM     16  C   UNL     1      48.578   8.435  13.563  0.00  0.00    +0.000 C 
BRANCH  16  21
ATOM     17  C   UNL     1      47.966   4.492  16.727  0.00  0.00    +0.000 A 
ATOM     18  C   UNL     1      47.277   4.793  15.557  0.00  0.00    +0.000 A 
ATOM     19  C   UNL     1      47.746   5.820  14.736  0.00  0.00    +0.000 A 
ATOM     20  C   UNL     1      48.880   6.538  15.106  0.00  0.00    +0.000 A 
ATOM     21  N   UNL     1      49.446   7.518  14.312  0.00  0.00    +0.000 N 
ATOM     22  N   UNL     1      49.541   6.269  16.247  0.00  0.00    +0.000 NA
ATOM     23  C   UNL     1      49.075   5.264  17.035  0.00  0.00    +0.000 A 
ATOM     24  H   UNL     1      50.190   7.966  14.849  0.00  0.00    +0.000 HD
BRANCH  17  26
ATOM     25  N   UNL     1      48.400   3.115  18.683  0.00  0.00    +0.000 N 
ATOM     26  C   UNL     1      47.559   3.409  17.646  0.00  0.00    +0.000 C 
ATOM     27  O   UNL     1      46.495   2.819  17.507  0.00  0.00    +0.000 OA
ATOM     28  H   UNL     1      48.056   2.446  19.363  0.00  0.00    +0.000 HD
ATOM     29  H   UNL     1      49.138   3.736  18.980  0.00  0.00    +0.000 HD
ENDBRANCH  17  26
ENDBRANCH  16  21
ENDBRANCH   1  16
TORSDOF 6
ENDMDL
