MODEL 1
REMARK VINA RESULT:    -8.309      0.000      0.000
REMARK INTER + INTRA:         -10.144
REMARK INTER:                  -9.766
REMARK INTRA:                  -0.378
REMARK UNBOUND:                -0.378
REMARK  Name = 
REMARK  3 active torsions:
REMARK  status: ('A' for Active; 'I' for Inactive)
REMARK    1  A    between atoms: C_2  and  C_4
REMARK    2  A    between atoms: N_8  and  C_9
REMARK    3  A    between atoms: C_9  and  C_10
REMARK                            x       y       z     vdW  Elec       q    Type
REMARK                         _______ _______ _______ _____ _____    ______ ____
ROOT
ATOM      1  C   UNL     1      46.431   2.321   7.711  0.00  0.00    +0.000 A 
ATOM      2  C   UNL     1      45.607   1.831   8.720  0.00  0.00    +0.000 A 
ATOM      3  C   UNL     1      44.753   2.709   9.386  0.00  0.00    +0.000 A 
ATOM      4  C   UNL     1      44.750   4.059   9.047  0.00  0.00    +0.000 A 
ATOM      5  N   UNL     1      43.876   4.971   9.583  0.00  0.00    +0.000 N 
ATOM      6  N   UNL     1      45.561   4.547   8.088  0.00  0.00    +0.000 NA
ATOM      7  C   UNL     1      46.389   3.680   7.447  0.00  0.00    +0.000 A 
ATOM      8  H   UNL     1      44.089   5.901   9.236  0.00  0.00    +0.000 HD
ENDROOT
BRANCH   1  10
ATOM      9  N   UNL     1      48.461   2.039   6.415  0.00  0.00    +0.000 N 
ATOM     10  C   UNL     1      47.329   1.460   6.918  0.00  0.00    +0.000 C 
ATOM     11  O   UNL     1      47.095   0.272   6.754  0.00  0.00    +0.000 OA
ATOM     12  H   UNL     1      49.124   1.413   5.972  0.00  0.00    +0.000 HD
ATOM     13  H   UNL     1      48.810   2.928   6.743  0.00  0.00    +0.000 HD
ENDBRANCH   1  10
BRANCH   5  14
ATOM     14  C   UNL     1      43.382   4.896  10.942  0.00  0.00    +0.000 C 
BRANCH  14  15
ATOM     15  C   UNL     1      44.507   5.080  11.927  0.00  0.00    +0.000 A 
ATOM     16  C   UNL     1      45.315   6.223  11.957  0.00  0.00    +0.000 A 
ATOM     17  C   UNL     1      46.332   6.335  12.900  0.00  0.00    +0.000 A 
ATOM     18  C   UNL     1      46.498   5.304  13.806  0.00  0.00    +0.000 A 
ATOM     19  N   UNL     1      45.722   4.200  13.837  0.00  0.00    +0.000 NA
ATOM     20  C   UNL     1      44.747   4.116  12.902  0.00  0.00    +0.000 A 
ENDBRANCH  14  15
ENDBRANCH   5  14
TORSDOF 3
ENDMDL
MODEL 2
REMARK VINA RESULT:    -7.395      2.772      6.144
REMARK INTER + INTRA:          -9.070
REMARK INTER:                  -8.674
REMARK INTRA:                  -0.396
REMARK UNBOUND:                -0.378
REMARK  Name = 
REMARK  3 active torsions:
REMARK  status: ('A' for Active; 'I' for Inactive)
REMARK    1  A    between atoms: C_2  and  C_4
REMARK    2  A    between atoms: N_8  and  C_9
REMARK    3  A    between atoms: C_9  and  C_10
REMARK                            x       y       z     vdW  Elec       q    Type
REMARK                         _______ _______ _______ _____ _____    ______ ____
ROOT
ATOM      1  C   UNL     1      46.692   5.087  13.289  0.00  0.00    +0.000 A 
ATOM      2  C   UNL     1      46.553   5.882  12.156  0.00  0.00    +0.000 A 
ATOM      3  C   UNL     1      45.761   5.430  11.101  0.00  0.00    +0.000 A 
ATOM      4  C   UNL     1      45.140   4.187  11.189  0.00  0.00    +0.000 A 
ATOM      5  N   UNL     1      44.269   3.709  10.242  0.00  0.00    +0.000 N 
ATOM      6  N   UNL     1      45.288   3.400  12.272  0.00  0.00    +0.000 NA
ATOM      7  C   UNL     1      46.062   3.853  13.293  0.00  0.00    +0.000 A 
ATOM      8  H   UNL     1      43.980   2.766  10.481  0.00  0.00    +0.000 HD
ENDROOT
BRANCH   1  10
ATOM      9  N   UNL     1      47.117   4.950  15.673  0.00  0.00    +0.000 N 
ATOM     10  C   UNL     1      47.467   5.505  14.473  0.00  0.00    +0.000 C 
ATOM     11  O   UNL     1      48.408   6.279  14.380  0.00  0.00    +0.000 OA
ATOM     12  H   UNL     1      47.727   5.156  16.456  0.00  0.00    +0.000 HD
ATOM     13  H   UNL     1      46.531   4.130  15.744  0.00  0.00    +0.000 HD
ENDBRANCH   1  10
BRANCH   5  14
ATOM     14  C   UNL     1      44.393   3.999   8.828  0.00  0.00    +0.000 C 
BRANCH  14  15
ATOM     15  C   UNL     1      45.437   3.116   8.195  0.00  0.00    +0.000 A 
ATOM     16  C   UNL     1      46.363   3.585   7.256  0.00  0.00    +0.000 A 
ATOM     17  C   UNL     1      47.309   2.720   6.716  0.00  0.00    +0.000 A 
ATOM     18  C   UNL     1      47.315   1.406   7.149  0.00  0.00    +0.000 A 
ATOM     19  N   UNL     1      46.463   0.919   8.077  0.00  0.00    +0.000 NA
ATOM     20  C   UNL     1      45.550   1.783   8.577  0.00  0.00    +0.000 A 
ENDBRANCH  14  15
ENDBRANCH   5  14
TORSDOF 3
ENDMDL
MODEL 3
REMARK VINA RESULT:    -6.920      1.602      2.089
REMARK INTER + INTRA:          -8.512
REMARK INTER:                  -8.230
REMARK INTRA:                  -0.282
REMARK UNBOUND:                -0.378
REMARK  Name = 
REMARK  3 active torsions:
REMARK  status: ('A' for Active; 'I' for Inactive)
REMARK    1  A    between atoms: C_2  and  C_4
REMARK    2  A    between atoms: N_8  and  C_9
REMARK    3  A    between atoms: C_9  and  C_10
REMARK                            x       y       z     vdW  Elec       q    Type
REMARK                         _______ _______ _______ _____ _____    ______ ____
ROOT
ATOM      1  C   UNL     1      46.591   2.634   7.305  0.00  0.00    +0.000 A 
ATOM      2  C   UNL     1      46.335   3.935   7.725  0.00  0.00    +0.000 A 
ATOM      3  C   UNL     1      45.535   4.142   8.849  0.00  0.00    +0.000 A 
ATOM      4  C   UNL     1      44.990   3.049   9.517  0.00  0.00    +0.000 A 
ATOM      5  N   UNL     1      44.273   3.157  10.683  0.00  0.00    +0.000 N 
ATOM      6  N   UNL     1      45.213   1.787   9.104  0.00  0.00    +0.000 NA
ATOM      7  C   UNL     1      45.995   1.600   8.008  0.00  0.00    +0.000 A 
ATOM      8  H   UNL     1      43.928   2.245  10.963  0.00  0.00    +0.000 HD
ENDROOT
BRANCH   1  10
ATOM      9  N   UNL     1      47.346   3.107   5.049  0.00  0.00    +0.000 N 
ATOM     10  C   UNL     1      47.465   2.317   6.159  0.00  0.00    +0.000 C 
ATOM     11  O   UNL     1      48.289   1.416   6.214  0.00  0.00    +0.000 OA
ATOM     12  H   UNL     1      48.028   2.953   4.316  0.00  0.00    +0.000 HD
ATOM     13  H   UNL     1      46.874   4.001   5.065  0.00  0.00    +0.000 HD
ENDBRANCH   1  10
BRANCH   5  14
ATOM     14  C   UNL     1      43.418   4.285  10.989  0.00  0.00    +0.000 C 
BRANCH  14  15
ATOM     15  C   UNL     1      44.205   5.382  11.656  0.00  0.00    +0.000 A 
ATOM     16  C   UNL     1      45.201   5.136  12.608  0.00  0.00    +0.000 A 
ATOM     17  C   UNL     1      45.899   6.195  13.179  0.00  0.00    +0.000 A 
ATOM     18  C   UNL     1      45.594   7.478  12.763  0.00  0.00    +0.000 A 
ATOM     19  N   UNL     1      44.666   7.761  11.824  0.00  0.00    +0.000 NA
ATOM     20  C   UNL     1      43.999   6.710  11.293  0.00  0.00    +0.000 A 
ENDBRANCH  14  15
ENDBRANCH   5  14
TORSDOF 3
ENDMDL
MODEL 4
REMARK VINA RESULT:    -6.539      3.302      6.342
REMARK INTER + INTRA:          -8.064
REMARK INTER:                  -7.835
REMARK INTRA:                  -0.229
REMARK UNBOUND:                -0.378
REMARK  Name = 
REMARK  3 active torsions:
REMARK  status: ('A' for Active; 'I' for Inactive)
REMARK    1  A    between atoms: C_2  and  C_4
REMARK    2  A    between atoms: N_8  and  C_9
REMARK    3  A    between atoms: C_9  and  C_10
REMARK                            x       y       z     vdW  Elec       q    Type
REMARK                         _______ _______ _______ _____ _____    ______ ____
ROOT
ATOM      1  C   UNL     1      46.650   7.751  12.654  0.00  0.00    +0.000 A 
ATOM      2  C   UNL     1      47.043   6.459  12.322  0.00  0.00    +0.000 A 
ATOM      3  C   UNL     1      46.196   5.669  11.544  0.00  0.00    +0.000 A 
ATOM      4  C   UNL     1      44.968   6.177  11.130  0.00  0.00    +0.000 A 
ATOM      5  N   UNL     1      44.119   5.505  10.287  0.00  0.00    +0.000 N 
ATOM      6  N   UNL     1      44.568   7.418  11.467  0.00  0.00    +0.000 NA
ATOM      7  C   UNL     1      45.404   8.177  12.225  0.00  0.00    +0.000 A 
ATOM      8  H   UNL     1      43.261   6.035  10.164  0.00  0.00    +0.000 HD
ENDROOT
BRANCH   1  10
ATOM      9  N   UNL     1      47.144   8.905  14.729  0.00  0.00    +0.000 N 
ATOM     10  C   UNL     1      47.501   8.675  13.429  0.00  0.00    +0.000 C 
ATOM     11  O   UNL     1      48.503   9.180  12.944  0.00  0.00    +0.000 OA
ATOM     12  H   UNL     1      47.798   9.448  15.282  0.00  0.00    +0.000 HD
ATOM     13  H   UNL     1      46.492   8.317  15.227  0.00  0.00    +0.000 HD
ENDBRANCH   1  10
BRANCH   5  14
ATOM     14  C   UNL     1      43.984   4.064  10.274  0.00  0.00    +0.000 C 
BRANCH  14  15
ATOM     15  C   UNL     1      44.908   3.453   9.253  0.00  0.00    +0.000 A 
ATOM     16  C   UNL     1      45.561   4.206   8.269  0.00  0.00    +0.000 A 
ATOM     17  C   UNL     1      46.410   3.581   7.362  0.00  0.00    +0.000 A 
ATOM     18  C   UNL     1      46.600   2.216   7.477  0.00  0.00    +0.000 A 
ATOM     19  N   UNL     1      46.019   1.456   8.430  0.00  0.00    +0.000 NA
ATOM     20  C   UNL     1      45.192   2.091   9.293  0.00  0.00    +0.000 A 
ENDBRANCH  14  15
ENDBRANCH   5  14
TORSDOF 3
ENDMDL
MODEL 5
REMARK VINA RESULT:    -6.455      2.844      6.260
REMARK INTER + INTRA:          -7.964
REMARK INTER:                  -7.668
REMARK INTRA:                  -0.296
REMARK UNBOUND:                -0.378
REMARK  Name = 
REMARK  3 active torsions:
REMARK  status: ('A' for Active; 'I' for Inactive)
REMARK    1  A    between atoms: C_2  and  C_4
REMARK    2  A    between atoms: N_8  and  C_9
REMARK    3  A    between atoms: C_9  and  C_10
REMARK                            x       y       z     vdW  Elec       q    Type
REMARK                         _______ _______ _______ _____ _____    ______ ____
ROOT
ATOM      1  C   UNL     1      46.453   4.575  14.061  0.00  0.00    +0.000 A 
ATOM      2  C   UNL     1      46.417   3.452  13.239  0.00  0.00    +0.000 A 
ATOM      3  C   UNL     1      45.872   3.562  11.961  0.00  0.00    +0.000 A 
ATOM      4  C   UNL     1      45.355   4.783  11.535  0.00  0.00    +0.000 A 
ATOM      5  N   UNL     1      44.887   5.002  10.263  0.00  0.00    +0.000 N 
ATOM      6  N   UNL     1      45.363   5.869  12.332  0.00  0.00    +0.000 NA
ATOM      7  C   UNL     1      45.899   5.747  13.575  0.00  0.00    +0.000 A 
ATOM      8  H   UNL     1      44.509   5.942  10.190  0.00  0.00    +0.000 HD
ENDROOT
BRANCH   1  10
ATOM      9  N   UNL     1      47.907   5.592  15.714  0.00  0.00    +0.000 N 
ATOM     10  C   UNL     1      47.057   4.566  15.407  0.00  0.00    +0.000 C 
ATOM     11  O   UNL     1      46.777   3.703  16.227  0.00  0.00    +0.000 OA
ATOM     12  H   UNL     1      48.224   5.637  16.676  0.00  0.00    +0.000 HD
ATOM     13  H   UNL     1      47.955   6.442  15.169  0.00  0.00    +0.000 HD
ENDBRANCH   1  10
BRANCH   5  14
ATOM     14  C   UNL     1      44.227   3.986   9.471  0.00  0.00    +0.000 C 
BRANCH  14  15
ATOM     15  C   UNL     1      45.230   3.217   8.652  0.00  0.00    +0.000 A 
ATOM     16  C   UNL     1      45.403   1.832   8.763  0.00  0.00    +0.000 A 
ATOM     17  C   UNL     1      46.340   1.179   7.969  0.00  0.00    +0.000 A 
ATOM     18  C   UNL     1      47.067   1.932   7.065  0.00  0.00    +0.000 A 
ATOM     19  N   UNL     1      46.910   3.263   6.899  0.00  0.00    +0.000 NA
ATOM     20  C   UNL     1      45.997   3.870   7.692  0.00  0.00    +0.000 A 
ENDBRANCH  14  15
ENDBRANCH   5  14
TORSDOF 3
ENDMDL
MODEL 6
REMARK VINA RESULT:    -5.875      4.057      6.580
REMARK INTER + INTRA:          -7.283
REMARK INTER:                  -6.986
REMARK INTRA:                  -0.297
REMARK UNBOUND:                -0.378
REMARK  Name = 
REMARK  3 active torsions:
REMARK  status: ('A' for Active; 'I' for Inactive)
REMARK    1  A    between atoms: C_2  and  C_4
REMARK    2  A    between atoms: N_8  and  C_9
REMARK    3  A    between atoms: C_9  and  C_10
REMARK                            x       y       z     vdW  Elec       q    Type
REMARK                         _______ _______ _______ _____ _____    ______ ____
ROOT
ATOM      1  C   UNL     1      45.960   5.560  12.104  0.00  0.00    +0.000 A 
ATOM      2  C   UNL     1      46.931   6.156  12.903  0.00  0.00    +0.000 A 
ATOM      3  C   UNL     1      47.369   5.492  14.048  0.00  0.00    +0.000 A 
ATOM      4  C   UNL     1      46.817   4.259  14.384  0.00  0.00    +0.000 A 
ATOM      5  N   UNL     1      47.257   3.496  15.437  0.00  0.00    +0.000 N 
ATOM      6  N   UNL     1      45.859   3.686  13.630  0.00  0.00    +0.000 NA
ATOM      7  C   UNL     1      45.442   4.344  12.516  0.00  0.00    +0.000 A 
ATOM      8  H   UNL     1      46.679   2.667  15.530  0.00  0.00    +0.000 HD
ENDROOT
BRANCH   1  10
ATOM      9  N   UNL     1      44.711   7.295  10.958  0.00  0.00    +0.000 N 
ATOM     10  C   UNL     1      45.472   6.164  10.849  0.00  0.00    +0.000 C 
ATOM     11  O   UNL     1      45.768   5.699   9.759  0.00  0.00    +0.000 OA
ATOM     12  H   UNL     1      44.479   7.763  10.089  0.00  0.00    +0.000 HD
ATOM     13  H   UNL     1      44.667   7.843  11.806  0.00  0.00    +0.000 HD
ENDBRANCH   1  10
BRANCH   5  14
ATOM     14  C   UNL     1      47.766   4.059  16.670  0.00  0.00    +0.000 C 
BRANCH  14  15
ATOM     15  C   UNL     1      49.115   3.477  17.002  0.00  0.00    +0.000 A 
ATOM     16  C   UNL     1      50.123   4.206  17.644  0.00  0.00    +0.000 A 
ATOM     17  C   UNL     1      51.344   3.605  17.932  0.00  0.00    +0.000 A 
ATOM     18  C   UNL     1      51.517   2.278  17.587  0.00  0.00    +0.000 A 
ATOM     19  N   UNL     1      50.562   1.526  16.997  0.00  0.00    +0.000 NA
ATOM     20  C   UNL     1      49.388   2.141  16.723  0.00  0.00    +0.000 A 
ENDBRANCH  14  15
ENDBRANCH   5  14
TORSDOF 3
ENDMDL
MODEL 7
REMARK VINA RESULT:    -5.824      3.424      6.665
REMARK INTER + INTRA:          -7.223
REMARK INTER:                  -6.877
REMARK INTRA:                  -0.347
REMARK UNBOUND:                -0.378
REMARK  Name = 
REMARK  3 active torsions:
REMARK  status: ('A' for Active; 'I' for Inactive)
REMARK    1  A    between atoms: C_2  and  C_4
REMARK    2  A    between atoms: N_8  and  C_9
REMARK    3  A    between atoms: C_9  and  C_10
REMARK                            x       y       z     vdW  Elec       q    Type
REMARK                         _______ _______ _______ _____ _____    ______ ____
ROOT
ATOM      1  C   UNL     1      47.760   5.361  15.244  0.00  0.00    +0.000 A 
ATOM      2  C   UNL     1      46.764   4.535  14.733  0.00  0.00    +0.000 A 
ATOM      3  C   UNL     1      46.255   4.791  13.460  0.00  0.00    +0.000 A 
ATOM      4  C   UNL     1      46.734   5.877  12.732  0.00  0.00    +0.000 A 
ATOM      5  N   UNL     1      46.357   6.144  11.439  0.00  0.00    +0.000 N 
ATOM      6  N   UNL     1      47.680   6.697  13.228  0.00  0.00    +0.000 NA
ATOM      7  C   UNL     1      48.168   6.435  14.470  0.00  0.00    +0.000 A 
ATOM      8  H   UNL     1      46.785   7.010  11.126  0.00  0.00    +0.000 HD
ENDROOT
BRANCH   1  10
ATOM      9  N   UNL     1      47.674   5.499  17.664  0.00  0.00    +0.000 N 
ATOM     10  C   UNL     1      48.393   5.137  16.558  0.00  0.00    +0.000 C 
ATOM     11  O   UNL     1      49.492   4.614  16.657  0.00  0.00    +0.000 OA
ATOM     12  H   UNL     1      48.069   5.236  18.559  0.00  0.00    +0.000 HD
ATOM     13  H   UNL     1      46.682   5.686  17.631  0.00  0.00    +0.000 HD
ENDBRANCH   1  10
BRANCH   5  14
ATOM     14  C   UNL     1      45.036   5.862  10.920  0.00  0.00    +0.000 C 
BRANCH  14  15
ATOM     15  C   UNL     1      45.074   4.685   9.980  0.00  0.00    +0.000 A 
ATOM     16  C   UNL     1      45.689   4.733   8.724  0.00  0.00    +0.000 A 
ATOM     17  C   UNL     1      45.699   3.607   7.907  0.00  0.00    +0.000 A 
ATOM     18  C   UNL     1      45.109   2.451   8.383  0.00  0.00    +0.000 A 
ATOM     19  N   UNL     1      44.534   2.348   9.601  0.00  0.00    +0.000 NA
ATOM     20  C   UNL     1      44.533   3.463  10.368  0.00  0.00    +0.000 A 
ENDBRANCH  14  15
ENDBRANCH   5  14
TORSDOF 3
ENDMDL
MODEL 8
REMARK VINA RESULT:    -5.321      3.570      5.460
REMARK INTER + INTRA:          -6.631
REMARK INTER:                  -6.287
REMARK INTRA:                  -0.345
REMARK UNBOUND:                -0.378
REMARK  Name = 
REMARK  3 active torsions:
REMARK  status: ('A' for Active; 'I' for Inactive)
REMARK    1  A    between atoms: C_2  and  C_4
REMARK    2  A    between atoms: N_8  and  C_9
REMARK    3  A    between atoms: C_9  and  C_10
REMARK                            x       y       z     vdW  Elec       q    Type
REMARK                         _______ _______ _______ _____ _____    ______ ____
ROOT
ATOM      1  C   UNL     1      44.454   4.292  11.405  0.00  0.00    +0.000 A 
ATOM      2  C   UNL     1      45.187   5.175  10.617  0.00  0.00    +0.000 A 
ATOM      3  C   UNL     1      45.684   6.345  11.190  0.00  0.00    +0.000 A 
ATOM      4  C   UNL     1      45.423   6.622  12.529  0.00  0.00    +0.000 A 
ATOM      5  N   UNL     1      45.951   7.700  13.195  0.00  0.00    +0.000 N 
ATOM      6  N   UNL     1      44.694   5.786  13.293  0.00  0.00    +0.000 NA
ATOM      7  C   UNL     1      44.217   4.648  12.722  0.00  0.00    +0.000 A 
ATOM      8  H   UNL     1      45.586   7.736  14.141  0.00  0.00    +0.000 HD
ENDROOT
BRANCH   1  10
ATOM      9  N   UNL     1      43.372   2.161  11.815  0.00  0.00    +0.000 N 
ATOM     10  C   UNL     1      43.934   3.008  10.899  0.00  0.00    +0.000 C 
ATOM     11  O   UNL     1      43.965   2.729   9.710  0.00  0.00    +0.000 OA
ATOM     12  H   UNL     1      42.917   1.336  11.441  0.00  0.00    +0.000 HD
ATOM     13  H   UNL     1      43.099   2.463  12.740  0.00  0.00    +0.000 HD
ENDBRANCH   1  10
BRANCH   5  14
ATOM     14  C   UNL     1      46.212   8.976  12.562  0.00  0.00    +0.000 C 
BRANCH  14  15
ATOM     15  C   UNL     1      47.694   9.230  12.469  0.00  0.00    +0.000 A 
ATOM     16  C   UNL     1      48.571   8.381  11.784  0.00  0.00    +0.000 A 
ATOM     17  C   UNL     1      49.928   8.678  11.727  0.00  0.00    +0.000 A 
ATOM     18  C   UNL     1      50.370   9.835  12.341  0.00  0.00    +0.000 A 
ATOM     19  N   UNL     1      49.556  10.701  12.982  0.00  0.00    +0.000 NA
ATOM     20  C   UNL     1      48.243  10.380  13.029  0.00  0.00    +0.000 A 
ENDBRANCH  14  15
ENDBRANCH   5  14
TORSDOF 3
ENDMDL
