MODEL 1
REMARK VINA RESULT:    -7.585      0.000      0.000
REMARK INTER + INTRA:         -10.043
REMARK INTER:                  -9.580
REMARK INTRA:                  -0.462
REMARK UNBOUND:                -0.462
REMARK  Name = 
REMARK  5 active torsions:
REMARK  status: ('A' for Active; 'I' for Inactive)
REMARK    1  A    between atoms: N_1  and  C_2
REMARK    2  A    between atoms: C_2  and  C_3
REMARK    3  A    between atoms: C_6  and  C_7
REMARK    4  A    between atoms: C_7  and  N_8
REMARK    5  A    between atoms: C_13  and  C_14
REMARK                            x       y       z     vdW  Elec       q    Type
REMARK                         _______ _______ _______ _____ _____    ______ ____
ROOT
ATOM      1  N   UNL     1      44.058   4.542  10.612  0.00  0.00    +0.000 N 
ATOM      2  C   UNL     1      43.449   3.481  11.236  0.00  0.00    +0.000 A 
ATOM      3  C   UNL     1      43.918   2.321  10.668  0.00  0.00    +0.000 A 
ATOM      4  C   UNL     1      44.837   2.684   9.650  0.00  0.00    +0.000 A 
ATOM      5  C   UNL     1      45.625   1.933   8.755  0.00  0.00    +0.000 A 
ATOM      6  C   UNL     1      46.434   2.601   7.827  0.00  0.00    +0.000 A 
ATOM      7  C   UNL     1      46.489   3.997   7.815  0.00  0.00    +0.000 A 
ATOM      8  C   UNL     1      45.726   4.761   8.708  0.00  0.00    +0.000 A 
ATOM      9  C   UNL     1      44.901   4.081   9.618  0.00  0.00    +0.000 A 
ENDROOT
BRANCH   6  10
ATOM     10  C   UNL     1      47.259   1.849   6.842  0.00  0.00    +0.000 C 
ATOM     11  N   UNL     1      48.323   2.505   6.287  0.00  0.00    +0.000 N 
ATOM     12  O   UNL     1      47.029   0.678   6.568  0.00  0.00    +0.000 OA
ATOM     13  H   UNL     1      48.688   3.366   6.667  0.00  0.00    +0.000 HD
ATOM     14  H   UNL     1      48.942   1.949   5.710  0.00  0.00    +0.000 HD
ENDBRANCH   6  10
BRANCH   1  15
ATOM     15  C   UNL     1      43.906   5.925  11.040  0.00  0.00    +0.000 C 
BRANCH  15  19
ATOM     16  C   UNL     1      47.361   6.745  12.400  0.00  0.00    +0.000 C 
ATOM     17  C   UNL     1      46.767   5.330  12.297  0.00  0.00    +0.000 C 
ATOM     18  C   UNL     1      45.418   5.210  13.004  0.00  0.00    +0.000 C 
ATOM     19  C   UNL     1      44.383   6.218  12.479  0.00  0.00    +0.000 C 
ATOM     20  C   UNL     1      44.960   7.643  12.577  0.00  0.00    +0.000 C 
ATOM     21  C   UNL     1      46.337   7.790  11.922  0.00  0.00    +0.000 C 
BRANCH  16  22
ATOM     22  C   UNL     1      47.880   7.079  13.816  0.00  0.00    +0.000 C 
BRANCH  22  23
ATOM     23  N   UNL     1      49.184   6.471  14.067  0.00  0.00    +0.000 NA
ATOM     24  H   UNL     1      49.692   6.374  13.188  0.00  0.00    +0.000 HD
ATOM     25  H   UNL     1      49.062   5.529  14.435  0.00  0.00    +0.000 HD
ENDBRANCH  22  23
ENDBRANCH  16  22
ENDBRANCH  15  19
ENDBRANCH   1  15
TORSDOF 5
ENDMDL
MODEL 2
REMARK VINA RESULT:    -6.065      4.447      8.154
REMARK INTER + INTRA:          -8.123
REMARK INTER:                  -7.620
REMARK INTRA:                  -0.503
REMARK UNBOUND:                -0.462
REMARK  Name = 
REMARK  5 active torsions:
REMARK  status: ('A' for Active; 'I' for Inactive)
REMARK    1  A    between atoms: N_1  and  C_2
REMARK    2  A    between atoms: C_2  and  C_3
REMARK    3  A    between atoms: C_6  and  C_7
REMARK    4  A    between atoms: C_7  and  N_8
REMARK    5  A    between atoms: C_13  and  C_14
REMARK                            x       y       z     vdW  Elec       q    Type
REMARK                         _______ _______ _______ _____ _____    ______ ____
ROOT
ATOM      1  N   UNL     1      48.221   6.322  14.301  0.00  0.00    +0.000 N 
ATOM      2  C   UNL     1      49.019   7.437  14.389  0.00  0.00    +0.000 A 
ATOM      3  C   UNL     1      49.549   7.487  15.656  0.00  0.00    +0.000 A 
ATOM      4  C   UNL     1      49.048   6.371  16.374  0.00  0.00    +0.000 A 
ATOM      5  C   UNL     1      49.249   5.906  17.689  0.00  0.00    +0.000 A 
ATOM      6  C   UNL     1      48.574   4.756  18.121  0.00  0.00    +0.000 A 
ATOM      7  C   UNL     1      47.740   4.057  17.245  0.00  0.00    +0.000 A 
ATOM      8  C   UNL     1      47.540   4.494  15.929  0.00  0.00    +0.000 A 
ATOM      9  C   UNL     1      48.204   5.660  15.514  0.00  0.00    +0.000 A 
ENDROOT
BRANCH   6  10
ATOM     10  C   UNL     1      48.732   4.247  19.510  0.00  0.00    +0.000 C 
ATOM     11  N   UNL     1      48.309   2.971  19.761  0.00  0.00    +0.000 N 
ATOM     12  O   UNL     1      49.259   4.919  20.389  0.00  0.00    +0.000 OA
ATOM     13  H   UNL     1      48.107   2.312  19.023  0.00  0.00    +0.000 HD
ATOM     14  H   UNL     1      48.528   2.597  20.676  0.00  0.00    +0.000 HD
ENDBRANCH   6  10
BRANCH   1  15
ATOM     15  C   UNL     1      47.598   5.872  13.064  0.00  0.00    +0.000 C 
BRANCH  15  19
ATOM     16  C   UNL     1      44.973   4.361  10.765  0.00  0.00    +0.000 C 
ATOM     17  C   UNL     1      45.741   5.665  10.491  0.00  0.00    +0.000 C 
ATOM     18  C   UNL     1      45.609   6.673  11.632  0.00  0.00    +0.000 C 
ATOM     19  C   UNL     1      46.075   6.102  12.981  0.00  0.00    +0.000 C 
ATOM     20  C   UNL     1      45.314   4.795  13.275  0.00  0.00    +0.000 C 
ATOM     21  C   UNL     1      45.381   3.779  12.130  0.00  0.00    +0.000 C 
BRANCH  16  22
ATOM     22  C   UNL     1      43.441   4.531  10.666  0.00  0.00    +0.000 C 
BRANCH  22  23
ATOM     23  N   UNL     1      42.735   3.451  11.350  0.00  0.00    +0.000 NA
ATOM     24  H   UNL     1      42.575   2.681  10.700  0.00  0.00    +0.000 HD
ATOM     25  H   UNL     1      41.816   3.773  11.648  0.00  0.00    +0.000 HD
ENDBRANCH  22  23
ENDBRANCH  16  22
ENDBRANCH  15  19
ENDBRANCH   1  15
TORSDOF 5
ENDMDL
MODEL 3
REMARK VINA RESULT:    -5.952      3.893      6.614
REMARK INTER + INTRA:          -7.980
REMARK INTER:                  -7.417
REMARK INTRA:                  -0.563
REMARK UNBOUND:                -0.462
REMARK  Name = 
REMARK  5 active torsions:
REMARK  status: ('A' for Active; 'I' for Inactive)
REMARK    1  A    between atoms: N_1  and  C_2
REMARK    2  A    between atoms: C_2  and  C_3
REMARK    3  A    between atoms: C_6  and  C_7
REMARK    4  A    between atoms: C_7  and  N_8
REMARK    5  A    between atoms: C_13  and  C_14
REMARK                            x       y       z     vdW  Elec       q    Type
REMARK                         _______ _______ _______ _____ _____    ______ ____
ROOT
ATOM      1  N   UNL     1      46.196   8.541  12.388  0.00  0.00    +0.000 N 
ATOM      2  C   UNL     1      45.830   9.846  12.165  0.00  0.00    +0.000 A 
ATOM      3  C   UNL     1      46.951  10.547  11.789  0.00  0.00    +0.000 A 
ATOM      4  C   UNL     1      48.044   9.644  11.797  0.00  0.00    +0.000 A 
ATOM      5  C   UNL     1      49.413   9.789  11.495  0.00  0.00    +0.000 A 
ATOM      6  C   UNL     1      50.266   8.685  11.625  0.00  0.00    +0.000 A 
ATOM      7  C   UNL     1      49.757   7.443  12.013  0.00  0.00    +0.000 A 
ATOM      8  C   UNL     1      48.397   7.274  12.302  0.00  0.00    +0.000 A 
ATOM      9  C   UNL     1      47.556   8.393  12.190  0.00  0.00    +0.000 A 
ENDROOT
BRANCH   6  10
ATOM     10  C   UNL     1      51.723   8.800  11.346  0.00  0.00    +0.000 C 
ATOM     11  N   UNL     1      52.569   8.060  12.125  0.00  0.00    +0.000 N 
ATOM     12  O   UNL     1      52.153   9.492  10.432  0.00  0.00    +0.000 OA
ATOM     13  H   UNL     1      52.246   7.302  12.708  0.00  0.00    +0.000 HD
ATOM     14  H   UNL     1      53.544   8.057  11.851  0.00  0.00    +0.000 HD
ENDBRANCH   6  10
BRANCH   1  15
ATOM     15  C   UNL     1      45.245   7.475  12.674  0.00  0.00    +0.000 C 
BRANCH  15  19
ATOM     16  C   UNL     1      43.780   3.970  12.498  0.00  0.00    +0.000 C 
ATOM     17  C   UNL     1      45.283   4.300  12.492  0.00  0.00    +0.000 C 
ATOM     18  C   UNL     1      45.662   5.281  11.384  0.00  0.00    +0.000 C 
ATOM     19  C   UNL     1      44.869   6.596  11.462  0.00  0.00    +0.000 C 
ATOM     20  C   UNL     1      43.361   6.285  11.467  0.00  0.00    +0.000 C 
ATOM     21  C   UNL     1      42.950   5.266  12.534  0.00  0.00    +0.000 C 
BRANCH  16  22
ATOM     22  C   UNL     1      43.356   3.067  11.320  0.00  0.00    +0.000 C 
BRANCH  22  23
ATOM     23  N   UNL     1      42.984   1.730  11.774  0.00  0.00    +0.000 NA
ATOM     24  H   UNL     1      43.216   1.627  12.761  0.00  0.00    +0.000 HD
ATOM     25  H   UNL     1      43.530   1.030  11.274  0.00  0.00    +0.000 HD
ENDBRANCH  22  23
ENDBRANCH  16  22
ENDBRANCH  15  19
ENDBRANCH   1  15
TORSDOF 5
ENDMDL
MODEL 4
REMARK VINA RESULT:    -5.891      3.648      5.840
REMARK INTER + INTRA:          -7.903
REMARK INTER:                  -7.278
REMARK INTRA:                  -0.625
REMARK UNBOUND:                -0.462
REMARK  Name = 
REMARK  5 active torsions:
REMARK  status: ('A' for Active; 'I' for Inactive)
REMARK    1  A    between atoms: N_1  and  C_2
REMARK    2  A    between atoms: C_2  and  C_3
REMARK    3  A    between atoms: C_6  and  C_7
REMARK    4  A    between atoms: C_7  and  N_8
REMARK    5  A    between atoms: C_13  and  C_14
REMARK                            x       y       z     vdW  Elec       q    Type
REMARK                         _______ _______ _______ _____ _____    ______ ____
ROOT
ATOM      1  N   UNL     1      47.913   6.265  13.993  0.00  0.00    +0.000 N 
ATOM      2  C   UNL     1      47.944   7.545  13.495  0.00  0.00    +0.000 A 
ATOM      3  C   UNL     1      47.000   7.642  12.502  0.00  0.00    +0.000 A 
ATOM      4  C   UNL     1      46.379   6.374  12.375  0.00  0.00    +0.000 A 
ATOM      5  C   UNL     1      45.351   5.886  11.544  0.00  0.00    +0.000 A 
ATOM      6  C   UNL     1      44.966   4.542  11.645  0.00  0.00    +0.000 A 
ATOM      7  C   UNL     1      45.568   3.705  12.587  0.00  0.00    +0.000 A 
ATOM      8  C   UNL     1      46.581   4.175  13.433  0.00  0.00    +0.000 A 
ATOM      9  C   UNL     1      46.974   5.517  13.308  0.00  0.00    +0.000 A 
ENDROOT
BRANCH   6  10
ATOM     10  C   UNL     1      43.906   3.977  10.765  0.00  0.00    +0.000 C 
ATOM     11  N   UNL     1      43.768   4.525   9.520  0.00  0.00    +0.000 N 
ATOM     12  O   UNL     1      43.213   3.031  11.117  0.00  0.00    +0.000 OA
ATOM     13  H   UNL     1      44.471   5.122   9.109  0.00  0.00    +0.000 HD
ATOM     14  H   UNL     1      43.127   4.057   8.892  0.00  0.00    +0.000 HD
ENDBRANCH   6  10
BRANCH   1  15
ATOM     15  C   UNL     1      48.684   5.830  15.150  0.00  0.00    +0.000 C 
BRANCH  15  19
ATOM     16  C   UNL     1      49.623   4.492  18.583  0.00  0.00    +0.000 C 
ATOM     17  C   UNL     1      48.831   3.713  17.519  0.00  0.00    +0.000 C 
ATOM     18  C   UNL     1      47.589   4.467  17.046  0.00  0.00    +0.000 C 
ATOM     19  C   UNL     1      47.921   5.862  16.491  0.00  0.00    +0.000 C 
ATOM     20  C   UNL     1      48.713   6.658  17.545  0.00  0.00    +0.000 C 
ATOM     21  C   UNL     1      49.939   5.912  18.080  0.00  0.00    +0.000 C 
BRANCH  16  22
ATOM     22  C   UNL     1      48.915   4.529  19.954  0.00  0.00    +0.000 C 
BRANCH  22  23
ATOM     23  N   UNL     1      48.353   3.228  20.305  0.00  0.00    +0.000 NA
ATOM     24  H   UNL     1      47.366   3.333  20.539  0.00  0.00    +0.000 HD
ATOM     25  H   UNL     1      48.811   2.867  21.141  0.00  0.00    +0.000 HD
ENDBRANCH  22  23
ENDBRANCH  16  22
ENDBRANCH  15  19
ENDBRANCH   1  15
TORSDOF 5
ENDMDL
MODEL 5
REMARK VINA RESULT:    -5.705      3.671      6.139
REMARK INTER + INTRA:          -7.668
REMARK INTER:                  -6.895
REMARK INTRA:                  -0.773
REMARK UNBOUND:                -0.462
REMARK  Name = 
REMARK  5 active torsions:
REMARK  status: ('A' for Active; 'I' for Inactive)
REMARK    1  A    between atoms: N_1  and  C_2
REMARK    2  A    between atoms: C_2  and  C_3
REMARK    3  A    between atoms: C_6  and  C_7
REMARK    4  A    between atoms: C_7  and  N_8
REMARK    5  A    between atoms: C_13  and  C_14
REMARK                            x       y       z     vdW  Elec       q    Type
REMARK                         _______ _______ _______ _____ _____    ______ ____
ROOT
ATOM      1  N   UNL     1      47.916   7.102  13.944  0.00  0.00    +0.000 N 
ATOM      2  C   UNL     1      47.406   8.342  13.644  0.00  0.00    +0.000 A 
ATOM      3  C   UNL     1      46.170   8.170  13.070  0.00  0.00    +0.000 A 
ATOM      4  C   UNL     1      45.919   6.775  13.001  0.00  0.00    +0.000 A 
ATOM      5  C   UNL     1      44.830   6.017  12.528  0.00  0.00    +0.000 A 
ATOM      6  C   UNL     1      44.895   4.618  12.575  0.00  0.00    +0.000 A 
ATOM      7  C   UNL     1      46.013   3.982  13.122  0.00  0.00    +0.000 A 
ATOM      8  C   UNL     1      47.099   4.719  13.613  0.00  0.00    +0.000 A 
ATOM      9  C   UNL     1      47.032   6.119  13.539  0.00  0.00    +0.000 A 
ENDROOT
BRANCH   6  10
ATOM     10  C   UNL     1      43.782   3.777  12.058  0.00  0.00    +0.000 C 
ATOM     11  N   UNL     1      43.750   2.468  12.454  0.00  0.00    +0.000 N 
ATOM     12  O   UNL     1      42.901   4.240  11.344  0.00  0.00    +0.000 OA
ATOM     13  H   UNL     1      44.302   2.121  13.225  0.00  0.00    +0.000 HD
ATOM     14  H   UNL     1      42.928   1.940  12.191  0.00  0.00    +0.000 HD
ENDBRANCH   6  10
BRANCH   1  15
ATOM     15  C   UNL     1      49.154   6.896  14.684  0.00  0.00    +0.000 C 
BRANCH  15  19
ATOM     16  C   UNL     1      50.369   4.760  17.586  0.00  0.00    +0.000 C 
ATOM     17  C   UNL     1      48.975   4.664  16.942  0.00  0.00    +0.000 C 
ATOM     18  C   UNL     1      48.244   6.005  16.926  0.00  0.00    +0.000 C 
ATOM     19  C   UNL     1      49.043   7.105  16.209  0.00  0.00    +0.000 C 
ATOM     20  C   UNL     1      50.442   7.219  16.843  0.00  0.00    +0.000 C 
ATOM     21  C   UNL     1      51.187   5.882  16.921  0.00  0.00    +0.000 C 
BRANCH  16  22
ATOM     22  C   UNL     1      50.314   4.942  19.118  0.00  0.00    +0.000 C 
BRANCH  22  23
ATOM     23  N   UNL     1      49.365   4.019  19.735  0.00  0.00    +0.000 NA
ATOM     24  H   UNL     1      48.627   3.790  19.069  0.00  0.00    +0.000 HD
ATOM     25  H   UNL     1      48.909   4.469  20.527  0.00  0.00    +0.000 HD
ENDBRANCH  22  23
ENDBRANCH  16  22
ENDBRANCH  15  19
ENDBRANCH   1  15
TORSDOF 5
ENDMDL
MODEL 6
REMARK VINA RESULT:    -5.662      3.044      4.981
REMARK INTER + INTRA:          -7.613
REMARK INTER:                  -6.932
REMARK INTRA:                  -0.681
REMARK UNBOUND:                -0.462
REMARK  Name = 
REMARK  5 active torsions:
REMARK  status: ('A' for Active; 'I' for Inactive)
REMARK    1  A    between atoms: N_1  and  C_2
REMARK    2  A    between atoms: C_2  and  C_3
REMARK    3  A    between atoms: C_6  and  C_7
REMARK    4  A    between atoms: C_7  and  N_8
REMARK    5  A    between atoms: C_13  and  C_14
REMARK                            x       y       z     vdW  Elec       q    Type
REMARK                         _______ _______ _______ _____ _____    ______ ____
ROOT
ATOM      1  N   UNL     1      47.492   6.419  13.817  0.00  0.00    +0.000 N 
ATOM      2  C   UNL     1      47.552   5.469  14.807  0.00  0.00    +0.000 A 
ATOM      3  C   UNL     1      46.820   4.379  14.403  0.00  0.00    +0.000 A 
ATOM      4  C   UNL     1      46.279   4.677  13.126  0.00  0.00    +0.000 A 
ATOM      5  C   UNL     1      45.470   3.948  12.232  0.00  0.00    +0.000 A 
ATOM      6  C   UNL     1      45.072   4.542  11.026  0.00  0.00    +0.000 A 
ATOM      7  C   UNL     1      45.505   5.828  10.697  0.00  0.00    +0.000 A 
ATOM      8  C   UNL     1      46.324   6.563  11.565  0.00  0.00    +0.000 A 
ATOM      9  C   UNL     1      46.698   5.967  12.780  0.00  0.00    +0.000 A 
ENDROOT
BRANCH   6  10
ATOM     10  C   UNL     1      44.192   3.821  10.066  0.00  0.00    +0.000 C 
ATOM     11  N   UNL     1      44.026   4.379   8.829  0.00  0.00    +0.000 N 
ATOM     12  O   UNL     1      43.670   2.750  10.349  0.00  0.00    +0.000 OA
ATOM     13  H   UNL     1      44.626   5.112   8.480  0.00  0.00    +0.000 HD
ATOM     14  H   UNL     1      43.522   3.823   8.150  0.00  0.00    +0.000 HD
ENDBRANCH   6  10
BRANCH   1  15
ATOM     15  C   UNL     1      48.259   7.657  13.838  0.00  0.00    +0.000 C 
BRANCH  15  19
ATOM     16  C   UNL     1      50.388  10.196  11.973  0.00  0.00    +0.000 C 
ATOM     17  C   UNL     1      49.448   9.176  11.309  0.00  0.00    +0.000 C 
ATOM     18  C   UNL     1      49.749   7.739  11.735  0.00  0.00    +0.000 C 
ATOM     19  C   UNL     1      49.685   7.549  13.259  0.00  0.00    +0.000 C 
ATOM     20  C   UNL     1      50.624   8.562  13.942  0.00  0.00    +0.000 C 
ATOM     21  C   UNL     1      50.384  10.010  13.501  0.00  0.00    +0.000 C 
BRANCH  16  22
ATOM     22  C   UNL     1      51.824  10.148  11.408  0.00  0.00    +0.000 C 
BRANCH  22  23
ATOM     23  N   UNL     1      51.893  10.717  10.065  0.00  0.00    +0.000 NA
ATOM     24  H   UNL     1      52.757  10.421   9.611  0.00  0.00    +0.000 HD
ATOM     25  H   UNL     1      51.929  11.734  10.120  0.00  0.00    +0.000 HD
ENDBRANCH  22  23
ENDBRANCH  16  22
ENDBRANCH  15  19
ENDBRANCH   1  15
TORSDOF 5
ENDMDL
MODEL 7
REMARK VINA RESULT:    -5.463      3.383      5.869
REMARK INTER + INTRA:          -7.363
REMARK INTER:                  -6.883
REMARK INTRA:                  -0.480
REMARK UNBOUND:                -0.462
REMARK  Name = 
REMARK  5 active torsions:
REMARK  status: ('A' for Active; 'I' for Inactive)
REMARK    1  A    between atoms: N_1  and  C_2
REMARK    2  A    between atoms: C_2  and  C_3
REMARK    3  A    between atoms: C_6  and  C_7
REMARK    4  A    between atoms: C_7  and  N_8
REMARK    5  A    between atoms: C_13  and  C_14
REMARK                            x       y       z     vdW  Elec       q    Type
REMARK                         _______ _______ _______ _____ _____    ______ ____
ROOT
ATOM      1  N   UNL     1      47.951   6.398  13.784  0.00  0.00    +0.000 N 
ATOM      2  C   UNL     1      48.438   7.377  12.953  0.00  0.00    +0.000 A 
ATOM      3  C   UNL     1      47.709   7.353  11.788  0.00  0.00    +0.000 A 
ATOM      4  C   UNL     1      46.752   6.313  11.903  0.00  0.00    +0.000 A 
ATOM      5  C   UNL     1      45.744   5.835  11.042  0.00  0.00    +0.000 A 
ATOM      6  C   UNL     1      44.957   4.747  11.443  0.00  0.00    +0.000 A 
ATOM      7  C   UNL     1      45.144   4.167  12.700  0.00  0.00    +0.000 A 
ATOM      8  C   UNL     1      46.130   4.638  13.577  0.00  0.00    +0.000 A 
ATOM      9  C   UNL     1      46.927   5.714  13.155  0.00  0.00    +0.000 A 
ENDROOT
BRANCH   6  10
ATOM     10  C   UNL     1      43.902   4.190  10.553  0.00  0.00    +0.000 C 
ATOM     11  N   UNL     1      43.946   4.543   9.233  0.00  0.00    +0.000 N 
ATOM     12  O   UNL     1      43.052   3.412  10.968  0.00  0.00    +0.000 OA
ATOM     13  H   UNL     1      44.759   4.970   8.813  0.00  0.00    +0.000 HD
ATOM     14  H   UNL     1      43.296   4.068   8.619  0.00  0.00    +0.000 HD
ENDBRANCH   6  10
BRANCH   1  15
ATOM     15  C   UNL     1      48.392   6.216  15.160  0.00  0.00    +0.000 C 
BRANCH  15  19
ATOM     16  C   UNL     1      49.670   6.974  18.660  0.00  0.00    +0.000 C 
ATOM     17  C   UNL     1      48.470   7.665  17.990  0.00  0.00    +0.000 C 
ATOM     18  C   UNL     1      48.830   8.282  16.639  0.00  0.00    +0.000 C 
ATOM     19  C   UNL     1      49.418   7.255  15.658  0.00  0.00    +0.000 C 
ATOM     20  C   UNL     1      50.624   6.554  16.312  0.00  0.00    +0.000 C 
ATOM     21  C   UNL     1      50.314   5.965  17.692  0.00  0.00    +0.000 C 
BRANCH  16  22
ATOM     22  C   UNL     1      50.715   7.972  19.203  0.00  0.00    +0.000 C 
BRANCH  22  23
ATOM     23  N   UNL     1      50.112   8.939  20.116  0.00  0.00    +0.000 NA
ATOM     24  H   UNL     1      50.835   9.548  20.498  0.00  0.00    +0.000 HD
ATOM     25  H   UNL     1      49.696   8.453  20.909  0.00  0.00    +0.000 HD
ENDBRANCH  22  23
ENDBRANCH  16  22
ENDBRANCH  15  19
ENDBRANCH   1  15
TORSDOF 5
ENDMDL
MODEL 8
REMARK VINA RESULT:    -5.431      3.348      5.305
REMARK INTER + INTRA:          -7.322
REMARK INTER:                  -6.667
REMARK INTRA:                  -0.655
REMARK UNBOUND:                -0.462
REMARK  Name = 
REMARK  5 active torsions:
REMARK  status: ('A' for Active; 'I' for Inactive)
REMARK    1  A    between atoms: N_1  and  C_2
REMARK    2  A    between atoms: C_2  and  C_3
REMARK    3  A    between atoms: C_6  and  C_7
REMARK    4  A    between atoms: C_7  and  N_8
REMARK    5  A    between atoms: C_13  and  C_14
REMARK                            x       y       z     vdW  Elec       q    Type
REMARK                         _______ _______ _______ _____ _____    ______ ____
ROOT
ATOM      1  N   UNL     1      46.215   8.257  12.855  0.00  0.00    +0.000 N 
ATOM      2  C   UNL     1      45.463   9.098  12.071  0.00  0.00    +0.000 A 
ATOM      3  C   UNL     1      44.546   8.340  11.385  0.00  0.00    +0.000 A 
ATOM      4  C   UNL     1      44.752   6.984  11.749  0.00  0.00    +0.000 A 
ATOM      5  C   UNL     1      44.116   5.783  11.379  0.00  0.00    +0.000 A 
ATOM      6  C   UNL     1      44.579   4.570  11.907  0.00  0.00    +0.000 A 
ATOM      7  C   UNL     1      45.637   4.556  12.820  0.00  0.00    +0.000 A 
ATOM      8  C   UNL     1      46.272   5.742  13.212  0.00  0.00    +0.000 A 
ATOM      9  C   UNL     1      45.814   6.948  12.660  0.00  0.00    +0.000 A 
ENDROOT
BRANCH   6  10
ATOM     10  C   UNL     1      43.958   3.274  11.520  0.00  0.00    +0.000 C 
ATOM     11  N   UNL     1      43.712   2.375  12.521  0.00  0.00    +0.000 N 
ATOM     12  O   UNL     1      43.635   3.032  10.364  0.00  0.00    +0.000 OA
ATOM     13  H   UNL     1      43.731   2.631  13.497  0.00  0.00    +0.000 HD
ATOM     14  H   UNL     1      43.186   1.549  12.263  0.00  0.00    +0.000 HD
ENDBRANCH   6  10
BRANCH   1  15
ATOM     15  C   UNL     1      47.200   8.721  13.822  0.00  0.00    +0.000 C 
BRANCH  15  19
ATOM     16  C   UNL     1      50.618   8.456  15.467  0.00  0.00    +0.000 C 
ATOM     17  C   UNL     1      49.778   9.742  15.380  0.00  0.00    +0.000 C 
ATOM     18  C   UNL     1      49.384  10.087  13.944  0.00  0.00    +0.000 C 
ATOM     19  C   UNL     1      48.616   8.948  13.253  0.00  0.00    +0.000 C 
ATOM     20  C   UNL     1      49.444   7.652  13.328  0.00  0.00    +0.000 C 
ATOM     21  C   UNL     1      49.900   7.300  14.748  0.00  0.00    +0.000 C 
BRANCH  16  22
ATOM     22  C   UNL     1      52.056   8.638  14.935  0.00  0.00    +0.000 C 
BRANCH  22  23
ATOM     23  N   UNL     1      52.777   7.369  14.891  0.00  0.00    +0.000 NA
ATOM     24  H   UNL     1      52.916   7.021  15.840  0.00  0.00    +0.000 HD
ATOM     25  H   UNL     1      53.706   7.512  14.498  0.00  0.00    +0.000 HD
ENDBRANCH  22  23
ENDBRANCH  16  22
ENDBRANCH  15  19
ENDBRANCH   1  15
TORSDOF 5
ENDMDL
MODEL 9
REMARK VINA RESULT:    -5.317      4.142      8.085
REMARK INTER + INTRA:          -7.178
REMARK INTER:                  -6.548
REMARK INTRA:                  -0.630
REMARK UNBOUND:                -0.462
REMARK  Name = 
REMARK  5 active torsions:
REMARK  status: ('A' for Active; 'I' for Inactive)
REMARK    1  A    between atoms: N_1  and  C_2
REMARK    2  A    between atoms: C_2  and  C_3
REMARK    3  A    between atoms: C_6  and  C_7
REMARK    4  A    between atoms: C_7  and  N_8
REMARK    5  A    between atoms: C_13  and  C_14
REMARK                            x       y       z     vdW  Elec       q    Type
REMARK                         _______ _______ _______ _____ _____    ______ ____
ROOT
ATOM      1  N   UNL     1      48.334   7.335  14.166  0.00  0.00    +0.000 N 
ATOM      2  C   UNL     1      49.288   8.205  13.699  0.00  0.00    +0.000 A 
ATOM      3  C   UNL     1      50.418   8.055  14.465  0.00  0.00    +0.000 A 
ATOM      4  C   UNL     1      50.143   7.068  15.446  0.00  0.00    +0.000 A 
ATOM      5  C   UNL     1      50.913   6.501  16.480  0.00  0.00    +0.000 A 
ATOM      6  C   UNL     1      50.335   5.539  17.319  0.00  0.00    +0.000 A 
ATOM      7  C   UNL     1      49.019   5.118  17.107  0.00  0.00    +0.000 A 
ATOM      8  C   UNL     1      48.242   5.658  16.074  0.00  0.00    +0.000 A 
ATOM      9  C   UNL     1      48.826   6.637  15.254  0.00  0.00    +0.000 A 
ENDROOT
BRANCH   6  10
ATOM     10  C   UNL     1      51.101   4.936  18.444  0.00  0.00    +0.000 C 
ATOM     11  N   UNL     1      50.399   4.189  19.349  0.00  0.00    +0.000 N 
ATOM     12  O   UNL     1      52.315   5.061  18.538  0.00  0.00    +0.000 OA
ATOM     13  H   UNL     1      49.461   3.861  19.171  0.00  0.00    +0.000 HD
ATOM     14  H   UNL     1      50.946   3.691  20.040  0.00  0.00    +0.000 HD
ENDBRANCH   6  10
BRANCH   1  15
ATOM     15  C   UNL     1      47.049   7.120  13.514  0.00  0.00    +0.000 C 
BRANCH  15  19
ATOM     16  C   UNL     1      44.100   5.289  11.961  0.00  0.00    +0.000 C 
ATOM     17  C   UNL     1      44.777   4.906  13.288  0.00  0.00    +0.000 C 
ATOM     18  C   UNL     1      46.281   4.687  13.135  0.00  0.00    +0.000 C 
ATOM     19  C   UNL     1      47.001   5.914  12.552  0.00  0.00    +0.000 C 
ATOM     20  C   UNL     1      46.338   6.312  11.220  0.00  0.00    +0.000 C 
ATOM     21  C   UNL     1      44.820   6.491  11.323  0.00  0.00    +0.000 C 
BRANCH  16  22
ATOM     22  C   UNL     1      44.001   4.108  10.971  0.00  0.00    +0.000 C 
BRANCH  22  23
ATOM     23  N   UNL     1      42.966   3.159  11.370  0.00  0.00    +0.000 NA
ATOM     24  H   UNL     1      43.234   2.218  11.080  0.00  0.00    +0.000 HD
ATOM     25  H   UNL     1      42.095   3.372  10.886  0.00  0.00    +0.000 HD
ENDBRANCH  22  23
ENDBRANCH  16  22
ENDBRANCH  15  19
ENDBRANCH   1  15
TORSDOF 5
ENDMDL
