MODEL 1
REMARK VINA RESULT:    -9.348      0.000      0.000
REMARK INTER + INTRA:         -13.065
REMARK INTER:                 -12.080
REMARK INTRA:                  -0.985
REMARK UNBOUND:                -0.985
REMARK  Name = 
REMARK  6 active torsions:
REMARK  status: ('A' for Active; 'I' for Inactive)
REMARK    1  A    between atoms: C_1  and  O_2
REMARK    2  A    between atoms: O_2  and  C_3
REMARK    3  A    between atoms: C_7  and  C_8
REMARK    4  A    between atoms: C_12  and  C_13
REMARK    5  A    between atoms: C_13  and  N_14
REMARK    6  A    between atoms: C_18  and  C_19
REMARK                            x       y       z     vdW  Elec       q    Type
REMARK                         _______ _______ _______ _____ _____    ______ ____
ROOT
ATOM      1  C   UNL     1      43.889   5.090  11.151  0.00  0.00    +0.000 C 
ATOM      2  C   UNL     1      42.636   5.842  11.604  0.00  0.00    +0.000 C 
ATOM      3  C   UNL     1      42.678   4.356  11.695  0.00  0.00    +0.000 C 
ENDROOT
BRANCH   1   4
ATOM      4  N   UNL     1      44.190   5.114   9.707  0.00  0.00    +0.000 N 
ATOM      5  C   UNL     1      44.997   4.158   9.078  0.00  0.00    +0.000 A 
ATOM      6  C   UNL     1      44.960   2.807   9.402  0.00  0.00    +0.000 A 
ATOM      7  C   UNL     1      45.705   1.892   8.658  0.00  0.00    +0.000 A 
ATOM      8  C   UNL     1      46.486   2.351   7.604  0.00  0.00    +0.000 A 
ATOM      9  C   UNL     1      46.502   3.717   7.365  0.00  0.00    +0.000 A 
ATOM     10  N   UNL     1      45.765   4.619   8.068  0.00  0.00    +0.000 NA
ATOM     11  H   UNL     1      44.498   6.010   9.333  0.00  0.00    +0.000 HD
BRANCH   8  12
ATOM     12  C   UNL     1      47.287   1.454   6.746  0.00  0.00    +0.000 C 
ATOM     13  N   UNL     1      48.322   2.008   6.050  0.00  0.00    +0.000 N 
ATOM     14  O   UNL     1      47.051   0.254   6.686  0.00  0.00    +0.000 OA
ATOM     15  H   UNL     1      48.694   2.925   6.253  0.00  0.00    +0.000 HD
ATOM     16  H   UNL     1      48.918   1.368   5.543  0.00  0.00    +0.000 HD
ENDBRANCH   8  12
ENDBRANCH   1   4
BRANCH   1  21
ATOM     17  C   UNL     1      47.175   6.601  12.495  0.00  0.00    +0.000 A 
ATOM     18  C   UNL     1      47.387   5.799  13.626  0.00  0.00    +0.000 A 
ATOM     19  C   UNL     1      46.497   4.775  13.961  0.00  0.00    +0.000 A 
ATOM     20  C   UNL     1      45.372   4.533  13.172  0.00  0.00    +0.000 A 
ATOM     21  C   UNL     1      45.117   5.302  12.030  0.00  0.00    +0.000 A 
ATOM     22  C   UNL     1      46.049   6.309  11.706  0.00  0.00    +0.000 A 
BRANCH  17  27
ATOM     23  C   UNL     1      50.222   8.635  11.476  0.00  0.00    +0.000 A 
ATOM     24  C   UNL     1      49.629   9.890  11.462  0.00  0.00    +0.000 A 
ATOM     25  N   UNL     1      48.334  10.127  11.764  0.00  0.00    +0.000 NA
ATOM     26  C   UNL     1      47.589   9.046  12.096  0.00  0.00    +0.000 A 
ATOM     27  C   UNL     1      48.062   7.733  12.156  0.00  0.00    +0.000 A 
ATOM     28  C   UNL     1      49.419   7.552  11.832  0.00  0.00    +0.000 A 
BRANCH  23  30
ATOM     29  C   UNL     1      51.962   7.491  10.336  0.00  0.00    +0.000 C 
ATOM     30  O   UNL     1      51.544   8.589  11.138  0.00  0.00    +0.000 OA
ENDBRANCH  23  30
ENDBRANCH  17  27
ENDBRANCH   1  21
TORSDOF 5
ENDMDL
MODEL 2
REMARK VINA RESULT:    -9.282      2.721      4.200
REMARK INTER + INTRA:         -12.980
REMARK INTER:                 -12.110
REMARK INTRA:                  -0.870
REMARK UNBOUND:                -0.985
REMARK  Name = 
REMARK  6 active torsions:
REMARK  status: ('A' for Active; 'I' for Inactive)
REMARK    1  A    between atoms: C_1  and  O_2
REMARK    2  A    between atoms: O_2  and  C_3
REMARK    3  A    between atoms: C_7  and  C_8
REMARK    4  A    between atoms: C_12  and  C_13
REMARK    5  A    between atoms: C_13  and  N_14
REMARK    6  A    between atoms: C_18  and  C_19
REMARK                            x       y       z     vdW  Elec       q    Type
REMARK                         _______ _______ _______ _____ _____    ______ ____
ROOT
ATOM      1  C   UNL     1      43.909   5.129  11.135  0.00  0.00    +0.000 C 
ATOM      2  C   UNL     1      42.515   5.554  11.599  0.00  0.00    +0.000 C 
ATOM      3  C   UNL     1      42.969   4.151  11.813  0.00  0.00    +0.000 C 
ENDROOT
BRANCH   1   4
ATOM      4  N   UNL     1      44.139   5.091   9.678  0.00  0.00    +0.000 N 
ATOM      5  C   UNL     1      44.965   4.146   9.058  0.00  0.00    +0.000 A 
ATOM      6  C   UNL     1      45.015   2.813   9.452  0.00  0.00    +0.000 A 
ATOM      7  C   UNL     1      45.771   1.898   8.719  0.00  0.00    +0.000 A 
ATOM      8  C   UNL     1      46.475   2.340   7.604  0.00  0.00    +0.000 A 
ATOM      9  C   UNL     1      46.407   3.690   7.297  0.00  0.00    +0.000 A 
ATOM     10  N   UNL     1      45.658   4.590   7.989  0.00  0.00    +0.000 NA
ATOM     11  H   UNL     1      44.381   5.980   9.244  0.00  0.00    +0.000 HD
BRANCH   8  12
ATOM     12  C   UNL     1      47.281   1.440   6.754  0.00  0.00    +0.000 C 
ATOM     13  N   UNL     1      48.330   1.989   6.074  0.00  0.00    +0.000 N 
ATOM     14  O   UNL     1      47.036   0.242   6.686  0.00  0.00    +0.000 OA
ATOM     15  H   UNL     1      48.706   2.902   6.286  0.00  0.00    +0.000 HD
ATOM     16  H   UNL     1      48.927   1.346   5.573  0.00  0.00    +0.000 HD
ENDBRANCH   8  12
ENDBRANCH   1   4
BRANCH   1  21
ATOM     17  C   UNL     1      46.717   5.544  13.748  0.00  0.00    +0.000 A 
ATOM     18  C   UNL     1      47.229   6.798  13.383  0.00  0.00    +0.000 A 
ATOM     19  C   UNL     1      46.682   7.518  12.318  0.00  0.00    +0.000 A 
ATOM     20  C   UNL     1      45.613   6.996  11.590  0.00  0.00    +0.000 A 
ATOM     21  C   UNL     1      45.062   5.751  11.915  0.00  0.00    +0.000 A 
ATOM     22  C   UNL     1      45.620   5.063  13.013  0.00  0.00    +0.000 A 
BRANCH  17  27
ATOM     23  C   UNL     1      48.240   4.493  17.070  0.00  0.00    +0.000 A 
ATOM     24  C   UNL     1      48.365   3.134  16.811  0.00  0.00    +0.000 A 
ATOM     25  N   UNL     1      48.006   2.540  15.652  0.00  0.00    +0.000 NA
ATOM     26  C   UNL     1      47.491   3.352  14.698  0.00  0.00    +0.000 A 
ATOM     27  C   UNL     1      47.320   4.732  14.825  0.00  0.00    +0.000 A 
ATOM     28  C   UNL     1      47.713   5.291  16.055  0.00  0.00    +0.000 A 
BRANCH  23  30
ATOM     29  C   UNL     1      47.852   5.898  18.943  0.00  0.00    +0.000 C 
ATOM     30  O   UNL     1      48.652   4.913  18.302  0.00  0.00    +0.000 OA
ENDBRANCH  23  30
ENDBRANCH  17  27
ENDBRANCH   1  21
TORSDOF 5
ENDMDL
MODEL 3
REMARK VINA RESULT:    -7.877      2.190      3.097
REMARK INTER + INTRA:         -11.165
REMARK INTER:                 -10.822
REMARK INTRA:                  -0.343
REMARK UNBOUND:                -0.985
REMARK  Name = 
REMARK  6 active torsions:
REMARK  status: ('A' for Active; 'I' for Inactive)
REMARK    1  A    between atoms: C_1  and  O_2
REMARK    2  A    between atoms: O_2  and  C_3
REMARK    3  A    between atoms: C_7  and  C_8
REMARK    4  A    between atoms: C_12  and  C_13
REMARK    5  A    between atoms: C_13  and  N_14
REMARK    6  A    between atoms: C_18  and  C_19
REMARK                            x       y       z     vdW  Elec       q    Type
REMARK                         _______ _______ _______ _____ _____    ______ ____
ROOT
ATOM      1  C   UNL     1      43.961   5.439  11.142  0.00  0.00    +0.000 C 
ATOM      2  C   UNL     1      42.551   5.246  11.702  0.00  0.00    +0.000 C 
ATOM      3  C   UNL     1      43.641   4.315  12.108  0.00  0.00    +0.000 C 
ENDROOT
BRANCH   1   4
ATOM      4  N   UNL     1      44.141   5.187   9.701  0.00  0.00    +0.000 N 
ATOM      5  C   UNL     1      44.911   4.130   9.199  0.00  0.00    +0.000 A 
ATOM      6  C   UNL     1      44.925   2.865   9.776  0.00  0.00    +0.000 A 
ATOM      7  C   UNL     1      45.621   1.826   9.160  0.00  0.00    +0.000 A 
ATOM      8  C   UNL     1      46.304   2.076   7.976  0.00  0.00    +0.000 A 
ATOM      9  C   UNL     1      46.277   3.371   7.481  0.00  0.00    +0.000 A 
ATOM     10  N   UNL     1      45.585   4.390   8.058  0.00  0.00    +0.000 NA
ATOM     11  H   UNL     1      44.402   5.995   9.138  0.00  0.00    +0.000 HD
BRANCH   8  12
ATOM     12  C   UNL     1      47.048   1.033   7.240  0.00  0.00    +0.000 C 
ATOM     13  N   UNL     1      46.765  -0.269   7.537  0.00  0.00    +0.000 N 
ATOM     14  O   UNL     1      47.863   1.325   6.374  0.00  0.00    +0.000 OA
ATOM     15  H   UNL     1      45.947  -0.550   8.057  0.00  0.00    +0.000 HD
ATOM     16  H   UNL     1      47.211  -0.969   6.961  0.00  0.00    +0.000 HD
ENDBRANCH   8  12
ENDBRANCH   1   4
BRANCH   1  21
ATOM     17  C   UNL     1      46.549   7.673  12.933  0.00  0.00    +0.000 A 
ATOM     18  C   UNL     1      46.103   8.946  12.549  0.00  0.00    +0.000 A 
ATOM     19  C   UNL     1      44.981   9.102  11.731  0.00  0.00    +0.000 A 
ATOM     20  C   UNL     1      44.280   7.984  11.276  0.00  0.00    +0.000 A 
ATOM     21  C   UNL     1      44.680   6.691  11.634  0.00  0.00    +0.000 A 
ATOM     22  C   UNL     1      45.801   6.571  12.482  0.00  0.00    +0.000 A 
BRANCH  17  27
ATOM     23  C   UNL     1      49.045   6.297  15.449  0.00  0.00    +0.000 A 
ATOM     24  C   UNL     1      50.114   7.128  15.145  0.00  0.00    +0.000 A 
ATOM     25  N   UNL     1      50.086   8.096  14.203  0.00  0.00    +0.000 NA
ATOM     26  C   UNL     1      48.922   8.239  13.527  0.00  0.00    +0.000 A 
ATOM     27  C   UNL     1      47.771   7.477  13.739  0.00  0.00    +0.000 A 
ATOM     28  C   UNL     1      47.863   6.486  14.733  0.00  0.00    +0.000 A 
BRANCH  23  30
ATOM     29  C   UNL     1      48.178   4.501  16.737  0.00  0.00    +0.000 C 
ATOM     30  O   UNL     1      49.260   5.372  16.431  0.00  0.00    +0.000 OA
ENDBRANCH  23  30
ENDBRANCH  17  27
ENDBRANCH   1  21
TORSDOF 5
ENDMDL
MODEL 4
REMARK VINA RESULT:    -7.066      5.261      8.365
REMARK INTER + INTRA:         -10.117
REMARK INTER:                  -9.158
REMARK INTRA:                  -0.958
REMARK UNBOUND:                -0.985
REMARK  Name = 
REMARK  6 active torsions:
REMARK  status: ('A' for Active; 'I' for Inactive)
REMARK    1  A    between atoms: C_1  and  O_2
REMARK    2  A    between atoms: O_2  and  C_3
REMARK    3  A    between atoms: C_7  and  C_8
REMARK    4  A    between atoms: C_12  and  C_13
REMARK    5  A    between atoms: C_13  and  N_14
REMARK    6  A    between atoms: C_18  and  C_19
REMARK                            x       y       z     vdW  Elec       q    Type
REMARK                         _______ _______ _______ _____ _____    ______ ____
ROOT
ATOM      1  C   UNL     1      49.142   7.113  16.821  0.00  0.00    +0.000 C 
ATOM      2  C   UNL     1      48.439   8.307  17.466  0.00  0.00    +0.000 C 
ATOM      3  C   UNL     1      49.915   8.162  17.598  0.00  0.00    +0.000 C 
ENDROOT
BRANCH   1   4
ATOM      4  N   UNL     1      48.856   5.786  17.396  0.00  0.00    +0.000 N 
ATOM      5  C   UNL     1      49.777   4.730  17.381  0.00  0.00    +0.000 A 
ATOM      6  C   UNL     1      51.139   4.913  17.592  0.00  0.00    +0.000 A 
ATOM      7  C   UNL     1      51.984   3.807  17.680  0.00  0.00    +0.000 A 
ATOM      8  C   UNL     1      51.449   2.532  17.543  0.00  0.00    +0.000 A 
ATOM      9  C   UNL     1      50.088   2.431  17.296  0.00  0.00    +0.000 A 
ATOM     10  N   UNL     1      49.247   3.498  17.229  0.00  0.00    +0.000 NA
ATOM     11  H   UNL     1      47.968   5.367  17.125  0.00  0.00    +0.000 HD
BRANCH   8  12
ATOM     12  C   UNL     1      52.262   1.302  17.646  0.00  0.00    +0.000 C 
ATOM     13  N   UNL     1      51.640   0.173  18.095  0.00  0.00    +0.000 N 
ATOM     14  O   UNL     1      53.440   1.290  17.311  0.00  0.00    +0.000 OA
ATOM     15  H   UNL     1      50.636   0.082  18.149  0.00  0.00    +0.000 HD
ATOM     16  H   UNL     1      52.183  -0.679  18.070  0.00  0.00    +0.000 HD
ENDBRANCH   8  12
ENDBRANCH   1   4
BRANCH   1  21
ATOM     17  C   UNL     1      48.031   6.504  13.176  0.00  0.00    +0.000 A 
ATOM     18  C   UNL     1      49.070   7.138  12.478  0.00  0.00    +0.000 A 
ATOM     19  C   UNL     1      50.127   7.750  13.157  0.00  0.00    +0.000 A 
ATOM     20  C   UNL     1      50.165   7.746  14.552  0.00  0.00    +0.000 A 
ATOM     21  C   UNL     1      49.156   7.124  15.296  0.00  0.00    +0.000 A 
ATOM     22  C   UNL     1      48.119   6.492  14.579  0.00  0.00    +0.000 A 
BRANCH  17  27
ATOM     23  C   UNL     1      44.960   4.396  12.419  0.00  0.00    +0.000 A 
ATOM     24  C   UNL     1      44.670   4.907  11.161  0.00  0.00    +0.000 A 
ATOM     25  N   UNL     1      45.393   5.867  10.542  0.00  0.00    +0.000 NA
ATOM     26  C   UNL     1      46.463   6.342  11.221  0.00  0.00    +0.000 A 
ATOM     27  C   UNL     1      46.869   5.910  12.486  0.00  0.00    +0.000 A 
ATOM     28  C   UNL     1      46.077   4.909  13.077  0.00  0.00    +0.000 A 
BRANCH  23  30
ATOM     29  C   UNL     1      43.379   2.698  11.913  0.00  0.00    +0.000 C 
ATOM     30  O   UNL     1      44.114   3.431  12.886  0.00  0.00    +0.000 OA
ENDBRANCH  23  30
ENDBRANCH  17  27
ENDBRANCH   1  21
TORSDOF 5
ENDMDL
MODEL 5
REMARK VINA RESULT:    -6.908      3.013      7.006
REMARK INTER + INTRA:          -9.912
REMARK INTER:                 -10.076
REMARK INTRA:                   0.164
REMARK UNBOUND:                -0.985
REMARK  Name = 
REMARK  6 active torsions:
REMARK  status: ('A' for Active; 'I' for Inactive)
REMARK    1  A    between atoms: C_1  and  O_2
REMARK    2  A    between atoms: O_2  and  C_3
REMARK    3  A    between atoms: C_7  and  C_8
REMARK    4  A    between atoms: C_12  and  C_13
REMARK    5  A    between atoms: C_13  and  N_14
REMARK    6  A    between atoms: C_18  and  C_19
REMARK                            x       y       z     vdW  Elec       q    Type
REMARK                         _______ _______ _______ _____ _____    ______ ____
ROOT
ATOM      1  C   UNL     1      45.991   7.716  12.102  0.00  0.00    +0.000 C 
ATOM      2  C   UNL     1      45.317   8.831  12.901  0.00  0.00    +0.000 C 
ATOM      3  C   UNL     1      45.899   9.131  11.563  0.00  0.00    +0.000 C 
ENDROOT
BRANCH   1   4
ATOM      4  N   UNL     1      47.253   7.181  12.645  0.00  0.00    +0.000 N 
ATOM      5  C   UNL     1      47.302   6.224  13.667  0.00  0.00    +0.000 A 
ATOM      6  C   UNL     1      46.410   5.160  13.748  0.00  0.00    +0.000 A 
ATOM      7  C   UNL     1      46.585   4.178  14.723  0.00  0.00    +0.000 A 
ATOM      8  C   UNL     1      47.649   4.286  15.611  0.00  0.00    +0.000 A 
ATOM      9  C   UNL     1      48.473   5.395  15.493  0.00  0.00    +0.000 A 
ATOM     10  N   UNL     1      48.328   6.349  14.534  0.00  0.00    +0.000 NA
ATOM     11  H   UNL     1      47.957   7.873  12.896  0.00  0.00    +0.000 HD
BRANCH   8  12
ATOM     12  C   UNL     1      47.927   3.283  16.659  0.00  0.00    +0.000 C 
ATOM     13  N   UNL     1      46.924   2.998  17.540  0.00  0.00    +0.000 N 
ATOM     14  O   UNL     1      49.006   2.706  16.715  0.00  0.00    +0.000 OA
ATOM     15  H   UNL     1      45.963   3.266  17.385  0.00  0.00    +0.000 HD
ATOM     16  H   UNL     1      47.097   2.244  18.190  0.00  0.00    +0.000 HD
ENDBRANCH   8  12
ENDBRANCH   1   4
BRANCH   1  21
ATOM     17  C   UNL     1      44.698   4.669  10.118  0.00  0.00    +0.000 A 
ATOM     18  C   UNL     1      43.388   4.575  10.611  0.00  0.00    +0.000 A 
ATOM     19  C   UNL     1      42.908   5.478  11.563  0.00  0.00    +0.000 A 
ATOM     20  C   UNL     1      43.732   6.495  12.047  0.00  0.00    +0.000 A 
ATOM     21  C   UNL     1      45.046   6.636  11.585  0.00  0.00    +0.000 A 
ATOM     22  C   UNL     1      45.489   5.724  10.605  0.00  0.00    +0.000 A 
BRANCH  17  27
ATOM     23  C   UNL     1      46.405   3.129   7.090  0.00  0.00    +0.000 A 
ATOM     24  C   UNL     1      46.328   1.797   7.472  0.00  0.00    +0.000 A 
ATOM     25  N   UNL     1      45.763   1.363   8.620  0.00  0.00    +0.000 NA
ATOM     26  C   UNL     1      45.247   2.316   9.431  0.00  0.00    +0.000 A 
ATOM     27  C   UNL     1      45.251   3.687   9.163  0.00  0.00    +0.000 A 
ATOM     28  C   UNL     1      45.853   4.076   7.953  0.00  0.00    +0.000 A 
BRANCH  23  30
ATOM     29  C   UNL     1      47.728   2.299   5.302  0.00  0.00    +0.000 C 
ATOM     30  O   UNL     1      47.017   3.379   5.895  0.00  0.00    +0.000 OA
ENDBRANCH  23  30
ENDBRANCH  17  27
ENDBRANCH   1  21
TORSDOF 5
ENDMDL
MODEL 6
REMARK VINA RESULT:    -6.759      3.418      8.139
REMARK INTER + INTRA:          -9.719
REMARK INTER:                  -8.736
REMARK INTRA:                  -0.983
REMARK UNBOUND:                -0.985
REMARK  Name = 
REMARK  6 active torsions:
REMARK  status: ('A' for Active; 'I' for Inactive)
REMARK    1  A    between atoms: C_1  and  O_2
REMARK    2  A    between atoms: O_2  and  C_3
REMARK    3  A    between atoms: C_7  and  C_8
REMARK    4  A    between atoms: C_12  and  C_13
REMARK    5  A    between atoms: C_13  and  N_14
REMARK    6  A    between atoms: C_18  and  C_19
REMARK                            x       y       z     vdW  Elec       q    Type
REMARK                         _______ _______ _______ _____ _____    ______ ____
ROOT
ATOM      1  C   UNL     1      49.092   8.422  12.613  0.00  0.00    +0.000 C 
ATOM      2  C   UNL     1      49.837   9.187  11.519  0.00  0.00    +0.000 C 
ATOM      3  C   UNL     1      50.128   7.742  11.738  0.00  0.00    +0.000 C 
ENDROOT
BRANCH   1   4
ATOM      4  N   UNL     1      49.390   8.800  14.006  0.00  0.00    +0.000 N 
ATOM      5  C   UNL     1      48.990   8.035  15.110  0.00  0.00    +0.000 A 
ATOM      6  C   UNL     1      49.018   6.645  15.114  0.00  0.00    +0.000 A 
ATOM      7  C   UNL     1      48.718   5.946  16.283  0.00  0.00    +0.000 A 
ATOM      8  C   UNL     1      48.384   6.656  17.430  0.00  0.00    +0.000 A 
ATOM      9  C   UNL     1      48.340   8.039  17.338  0.00  0.00    +0.000 A 
ATOM     10  N   UNL     1      48.650   8.735  16.212  0.00  0.00    +0.000 NA
ATOM     11  H   UNL     1      49.176   9.763  14.260  0.00  0.00    +0.000 HD
BRANCH   8  12
ATOM     12  C   UNL     1      48.076   6.003  18.720  0.00  0.00    +0.000 C 
ATOM     13  N   UNL     1      46.790   5.595  18.927  0.00  0.00    +0.000 N 
ATOM     14  O   UNL     1      48.948   5.808  19.557  0.00  0.00    +0.000 OA
ATOM     15  H   UNL     1      46.111   5.519  18.184  0.00  0.00    +0.000 HD
ATOM     16  H   UNL     1      46.616   5.067  19.771  0.00  0.00    +0.000 HD
ENDBRANCH   8  12
ENDBRANCH   1   4
BRANCH   1  21
ATOM     17  C   UNL     1      45.813   6.741  11.464  0.00  0.00    +0.000 A 
ATOM     18  C   UNL     1      44.875   7.705  11.860  0.00  0.00    +0.000 A 
ATOM     19  C   UNL     1      45.275   8.891  12.482  0.00  0.00    +0.000 A 
ATOM     20  C   UNL     1      46.627   9.135  12.726  0.00  0.00    +0.000 A 
ATOM     21  C   UNL     1      47.605   8.209  12.346  0.00  0.00    +0.000 A 
ATOM     22  C   UNL     1      47.168   7.036  11.697  0.00  0.00    +0.000 A 
BRANCH  17  27
ATOM     23  C   UNL     1      45.208   3.940   8.965  0.00  0.00    +0.000 A 
ATOM     24  C   UNL     1      44.709   2.990   9.846  0.00  0.00    +0.000 A 
ATOM     25  N   UNL     1      44.548   3.188  11.173  0.00  0.00    +0.000 NA
ATOM     26  C   UNL     1      44.906   4.406  11.644  0.00  0.00    +0.000 A 
ATOM     27  C   UNL     1      45.412   5.451  10.867  0.00  0.00    +0.000 A 
ATOM     28  C   UNL     1      45.556   5.183   9.494  0.00  0.00    +0.000 A 
BRANCH  23  30
ATOM     29  C   UNL     1      46.596   3.621   7.066  0.00  0.00    +0.000 C 
ATOM     30  O   UNL     1      45.304   3.558   7.658  0.00  0.00    +0.000 OA
ENDBRANCH  23  30
ENDBRANCH  17  27
ENDBRANCH   1  21
TORSDOF 5
ENDMDL
MODEL 7
REMARK VINA RESULT:    -6.554      2.150      2.720
REMARK INTER + INTRA:          -9.455
REMARK INTER:                  -9.316
REMARK INTRA:                  -0.139
REMARK UNBOUND:                -0.985
REMARK  Name = 
REMARK  6 active torsions:
REMARK  status: ('A' for Active; 'I' for Inactive)
REMARK    1  A    between atoms: C_1  and  O_2
REMARK    2  A    between atoms: O_2  and  C_3
REMARK    3  A    between atoms: C_7  and  C_8
REMARK    4  A    between atoms: C_12  and  C_13
REMARK    5  A    between atoms: C_13  and  N_14
REMARK    6  A    between atoms: C_18  and  C_19
REMARK                            x       y       z     vdW  Elec       q    Type
REMARK                         _______ _______ _______ _____ _____    ______ ____
ROOT
ATOM      1  C   UNL     1      43.995   5.236  12.038  0.00  0.00    +0.000 C 
ATOM      2  C   UNL     1      42.619   5.434  11.400  0.00  0.00    +0.000 C 
ATOM      3  C   UNL     1      42.720   5.103  12.849  0.00  0.00    +0.000 C 
ENDROOT
BRANCH   1   4
ATOM      4  N   UNL     1      44.760   4.051  11.608  0.00  0.00    +0.000 N 
ATOM      5  C   UNL     1      45.160   3.837  10.283  0.00  0.00    +0.000 A 
ATOM      6  C   UNL     1      45.610   4.860   9.455  0.00  0.00    +0.000 A 
ATOM      7  C   UNL     1      46.102   4.562   8.185  0.00  0.00    +0.000 A 
ATOM      8  C   UNL     1      46.125   3.239   7.760  0.00  0.00    +0.000 A 
ATOM      9  C   UNL     1      45.623   2.278   8.625  0.00  0.00    +0.000 A 
ATOM     10  N   UNL     1      45.160   2.550   9.875  0.00  0.00    +0.000 NA
ATOM     11  H   UNL     1      44.402   3.152  11.925  0.00  0.00    +0.000 HD
BRANCH   8  12
ATOM     12  C   UNL     1      46.651   2.826   6.442  0.00  0.00    +0.000 C 
ATOM     13  N   UNL     1      46.877   3.806   5.520  0.00  0.00    +0.000 N 
ATOM     14  O   UNL     1      46.904   1.652   6.199  0.00  0.00    +0.000 OA
ATOM     15  H   UNL     1      46.910   4.787   5.756  0.00  0.00    +0.000 HD
ATOM     16  H   UNL     1      47.324   3.520   4.660  0.00  0.00    +0.000 HD
ENDBRANCH   8  12
ENDBRANCH   1   4
BRANCH   1  21
ATOM     17  C   UNL     1      46.887   7.599  13.009  0.00  0.00    +0.000 A 
ATOM     18  C   UNL     1      46.496   8.773  12.349  0.00  0.00    +0.000 A 
ATOM     19  C   UNL     1      45.315   8.823  11.604  0.00  0.00    +0.000 A 
ATOM     20  C   UNL     1      44.500   7.695  11.499  0.00  0.00    +0.000 A 
ATOM     21  C   UNL     1      44.841   6.500  12.142  0.00  0.00    +0.000 A 
ATOM     22  C   UNL     1      46.026   6.492  12.908  0.00  0.00    +0.000 A 
BRANCH  17  27
ATOM     23  C   UNL     1      50.409   8.294  14.262  0.00  0.00    +0.000 A 
ATOM     24  C   UNL     1      50.483   7.290  15.218  0.00  0.00    +0.000 A 
ATOM     25  N   UNL     1      49.493   6.408  15.479  0.00  0.00    +0.000 NA
ATOM     26  C   UNL     1      48.365   6.540  14.742  0.00  0.00    +0.000 A 
ATOM     27  C   UNL     1      48.163   7.498  13.746  0.00  0.00    +0.000 A 
ATOM     28  C   UNL     1      49.231   8.386  13.521  0.00  0.00    +0.000 A 
BRANCH  23  30
ATOM     29  C   UNL     1      52.750   8.443  13.897  0.00  0.00    +0.000 C 
ATOM     30  O   UNL     1      51.509   9.094  14.141  0.00  0.00    +0.000 OA
ENDBRANCH  23  30
ENDBRANCH  17  27
ENDBRANCH   1  21
TORSDOF 5
ENDMDL
