MODEL 1
REMARK VINA RESULT:    -8.123      0.000      0.000
REMARK INTER + INTRA:         -11.954
REMARK INTER:                 -10.973
REMARK INTRA:                  -0.981
REMARK UNBOUND:                -0.981
REMARK  Name = 
REMARK  7 active torsions:
REMARK  status: ('A' for Active; 'I' for Inactive)
REMARK    1  A    between atoms: C_1  and  N_2
REMARK    2  A    between atoms: N_2  and  C_3
REMARK    3  A    between atoms: C_3  and  C_4
REMARK    4  A    between atoms: C_7  and  C_8
REMARK    5  A    between atoms: C_8  and  N_9
REMARK    6  A    between atoms: C_10  and  C_12
REMARK    7  A    between atoms: C_24  and  C_26
REMARK                            x       y       z     vdW  Elec       q    Type
REMARK                         _______ _______ _______ _____ _____    ______ ____
ROOT
ATOM      1  C   UNL     1      45.185   6.798  11.398  0.00  0.00    +0.000 A 
ATOM      2  C   UNL     1      46.452   6.222  11.573  0.00  0.00    +0.000 A 
ATOM      3  C   UNL     1      47.393   6.814  12.422  0.00  0.00    +0.000 A 
ATOM      4  C   UNL     1      47.082   7.988  13.118  0.00  0.00    +0.000 A 
ATOM      5  C   UNL     1      45.843   8.602  12.887  0.00  0.00    +0.000 A 
ATOM      6  C   UNL     1      44.900   8.008  12.042  0.00  0.00    +0.000 A 
ENDROOT
BRANCH   1   7
ATOM      7  C   UNL     1      44.152   6.112  10.534  0.00  0.00    +0.000 C 
BRANCH   7   9
ATOM      8  C   UNL     1      42.599   5.169  12.298  0.00  0.00    +0.000 C 
ATOM      9  N   UNL     1      43.424   4.977  11.108  0.00  0.00    +0.000 N 
ATOM     10  C   UNL     1      43.615   3.647  10.694  0.00  0.00    +0.000 C 
ATOM     11  O   UNL     1      43.004   2.730  11.243  0.00  0.00    +0.000 OA
BRANCH  10  12
ATOM     12  C   UNL     1      44.484   3.326   9.568  0.00  0.00    +0.000 A 
ATOM     13  C   UNL     1      44.889   3.985   8.417  0.00  0.00    +0.000 A 
ATOM     14  C   UNL     1      45.742   3.126   7.680  0.00  0.00    +0.000 A 
ATOM     15  C   UNL     1      45.897   1.979   8.418  0.00  0.00    +0.000 A 
ATOM     16  N   UNL     1      45.179   2.128   9.571  0.00  0.00    +0.000 N 
ATOM     17  H   UNL     1      45.128   1.461  10.332  0.00  0.00    +0.000 HD
ENDBRANCH  10  12
ENDBRANCH   7   9
ENDBRANCH   1   7
BRANCH   4  18
ATOM     18  C   UNL     1      48.062   8.586  14.093  0.00  0.00    +0.000 C 
BRANCH  18  19
ATOM     19  N   UNL     1      48.261   7.735  15.235  0.00  0.00    +0.000 N 
ATOM     20  C   UNL     1      49.423   7.024  15.391  0.00  0.00    +0.000 C 
ATOM     21  O   UNL     1      50.357   7.120  14.598  0.00  0.00    +0.000 OA
ATOM     22  H   UNL     1      47.435   7.464  15.759  0.00  0.00    +0.000 HD
BRANCH  20  23
ATOM     23  C   UNL     1      49.525   6.188  16.594  0.00  0.00    +0.000 A 
ATOM     24  C   UNL     1      50.497   6.467  17.544  0.00  0.00    +0.000 A 
ATOM     25  S   UNL     1      50.442   5.437  18.901  0.00  0.00    +0.000 S 
ATOM     26  C   UNL     1      49.151   4.548  18.240  0.00  0.00    +0.000 A 
ATOM     27  N   UNL     1      48.628   3.479  18.902  0.00  0.00    +0.000 NA
ATOM     28  C   UNL     1      47.677   2.875  18.271  0.00  0.00    +0.000 A 
ATOM     29  N   UNL     1      47.196   3.248  17.043  0.00  0.00    +0.000 N 
ATOM     30  C   UNL     1      47.671   4.337  16.355  0.00  0.00    +0.000 A 
ATOM     31  O   UNL     1      47.185   4.671  15.276  0.00  0.00    +0.000 OA
ATOM     32  C   UNL     1      48.753   5.043  17.013  0.00  0.00    +0.000 A 
ATOM     33  H   UNL     1      46.442   2.737  16.606  0.00  0.00    +0.000 HD
ENDBRANCH  20  23
ENDBRANCH  18  19
ENDBRANCH   4  18
TORSDOF 6
ENDMDL
MODEL 2
REMARK VINA RESULT:    -7.843      2.642      3.226
REMARK INTER + INTRA:         -11.576
REMARK INTER:                 -10.597
REMARK INTRA:                  -0.979
REMARK UNBOUND:                -0.981
REMARK  Name = 
REMARK  7 active torsions:
REMARK  status: ('A' for Active; 'I' for Inactive)
REMARK    1  A    between atoms: C_1  and  N_2
REMARK    2  A    between atoms: N_2  and  C_3
REMARK    3  A    between atoms: C_3  and  C_4
REMARK    4  A    between atoms: C_7  and  C_8
REMARK    5  A    between atoms: C_8  and  N_9
REMARK    6  A    between atoms: C_10  and  C_12
REMARK    7  A    between atoms: C_24  and  C_26
REMARK                            x       y       z     vdW  Elec       q    Type
REMARK                         _______ _______ _______ _____ _____    ______ ____
ROOT
ATOM      1  C   UNL     1      46.588   4.777  13.483  0.00  0.00    +0.000 A 
ATOM      2  C   UNL     1      47.215   5.964  13.079  0.00  0.00    +0.000 A 
ATOM      3  C   UNL     1      48.093   6.635  13.936  0.00  0.00    +0.000 A 
ATOM      4  C   UNL     1      48.367   6.126  15.211  0.00  0.00    +0.000 A 
ATOM      5  C   UNL     1      47.684   4.980  15.642  0.00  0.00    +0.000 A 
ATOM      6  C   UNL     1      46.810   4.306  14.783  0.00  0.00    +0.000 A 
ENDROOT
BRANCH   1   7
ATOM      7  C   UNL     1      45.697   4.023  12.523  0.00  0.00    +0.000 C 
BRANCH   7   9
ATOM      8  C   UNL     1      43.637   5.408  13.023  0.00  0.00    +0.000 C 
ATOM      9  N   UNL     1      44.468   4.680  12.069  0.00  0.00    +0.000 N 
ATOM     10  C   UNL     1      43.924   4.499  10.786  0.00  0.00    +0.000 C 
ATOM     11  O   UNL     1      42.865   5.045  10.474  0.00  0.00    +0.000 OA
BRANCH  10  12
ATOM     12  C   UNL     1      44.626   3.720   9.773  0.00  0.00    +0.000 A 
ATOM     13  C   UNL     1      45.434   4.017   8.686  0.00  0.00    +0.000 A 
ATOM     14  C   UNL     1      45.806   2.805   8.052  0.00  0.00    +0.000 A 
ATOM     15  C   UNL     1      45.272   1.781   8.794  0.00  0.00    +0.000 A 
ATOM     16  N   UNL     1      44.608   2.337   9.851  0.00  0.00    +0.000 N 
ATOM     17  H   UNL     1      44.141   1.831  10.595  0.00  0.00    +0.000 HD
ENDBRANCH  10  12
ENDBRANCH   7   9
ENDBRANCH   1   7
BRANCH   4  18
ATOM     18  C   UNL     1      49.371   6.802  16.108  0.00  0.00    +0.000 C 
BRANCH  18  19
ATOM     19  N   UNL     1      50.388   5.887  16.550  0.00  0.00    +0.000 N 
ATOM     20  C   UNL     1      50.548   5.599  17.881  0.00  0.00    +0.000 C 
ATOM     21  O   UNL     1      49.805   6.066  18.742  0.00  0.00    +0.000 OA
ATOM     22  H   UNL     1      51.141   5.685  15.900  0.00  0.00    +0.000 HD
BRANCH  20  23
ATOM     23  C   UNL     1      51.614   4.650  18.224  0.00  0.00    +0.000 A 
ATOM     24  C   UNL     1      52.739   5.098  18.902  0.00  0.00    +0.000 A 
ATOM     25  S   UNL     1      53.852   3.859  19.270  0.00  0.00    +0.000 S 
ATOM     26  C   UNL     1      52.894   2.692  18.488  0.00  0.00    +0.000 A 
ATOM     27  N   UNL     1      53.296   1.394  18.413  0.00  0.00    +0.000 NA
ATOM     28  C   UNL     1      52.491   0.622  17.762  0.00  0.00    +0.000 A 
ATOM     29  N   UNL     1      51.316   1.030  17.187  0.00  0.00    +0.000 N 
ATOM     30  C   UNL     1      50.855   2.321  17.264  0.00  0.00    +0.000 A 
ATOM     31  O   UNL     1      49.773   2.643  16.777  0.00  0.00    +0.000 OA
ATOM     32  C   UNL     1      51.731   3.234  17.973  0.00  0.00    +0.000 A 
ATOM     33  H   UNL     1      50.725   0.373  16.697  0.00  0.00    +0.000 HD
ENDBRANCH  20  23
ENDBRANCH  18  19
ENDBRANCH   4  18
TORSDOF 6
ENDMDL
MODEL 3
REMARK VINA RESULT:    -7.547      4.258      9.377
REMARK INTER + INTRA:         -11.175
REMARK INTER:                 -10.067
REMARK INTRA:                  -1.108
REMARK UNBOUND:                -0.981
REMARK  Name = 
REMARK  7 active torsions:
REMARK  status: ('A' for Active; 'I' for Inactive)
REMARK    1  A    between atoms: C_1  and  N_2
REMARK    2  A    between atoms: N_2  and  C_3
REMARK    3  A    between atoms: C_3  and  C_4
REMARK    4  A    between atoms: C_7  and  C_8
REMARK    5  A    between atoms: C_8  and  N_9
REMARK    6  A    between atoms: C_10  and  C_12
REMARK    7  A    between atoms: C_24  and  C_26
REMARK                            x       y       z     vdW  Elec       q    Type
REMARK                         _______ _______ _______ _____ _____    ______ ____
ROOT
ATOM      1  C   UNL     1      51.403   3.714  17.754  0.00  0.00    +0.000 A 
ATOM      2  C   UNL     1      50.847   2.475  17.401  0.00  0.00    +0.000 A 
ATOM      3  C   UNL     1      49.479   2.358  17.134  0.00  0.00    +0.000 A 
ATOM      4  C   UNL     1      48.644   3.479  17.205  0.00  0.00    +0.000 A 
ATOM      5  C   UNL     1      49.186   4.700  17.628  0.00  0.00    +0.000 A 
ATOM      6  C   UNL     1      50.555   4.819  17.890  0.00  0.00    +0.000 A 
ENDROOT
BRANCH   1   7
ATOM      7  C   UNL     1      52.894   3.842  17.970  0.00  0.00    +0.000 C 
BRANCH   7   9
ATOM      8  C   UNL     1      53.367   4.073  20.447  0.00  0.00    +0.000 C 
ATOM      9  N   UNL     1      53.455   3.301  19.211  0.00  0.00    +0.000 N 
ATOM     10  C   UNL     1      54.255   2.146  19.257  0.00  0.00    +0.000 C 
ATOM     11  O   UNL     1      54.733   1.761  20.324  0.00  0.00    +0.000 OA
BRANCH  10  12
ATOM     12  C   UNL     1      54.484   1.339  18.065  0.00  0.00    +0.000 A 
ATOM     13  C   UNL     1      53.856   0.252  17.475  0.00  0.00    +0.000 A 
ATOM     14  C   UNL     1      54.578  -0.113  16.311  0.00  0.00    +0.000 A 
ATOM     15  C   UNL     1      55.600   0.792  16.170  0.00  0.00    +0.000 A 
ATOM     16  N   UNL     1      55.506   1.688  17.198  0.00  0.00    +0.000 N 
ATOM     17  H   UNL     1      56.102   2.495  17.342  0.00  0.00    +0.000 HD
ENDBRANCH  10  12
ENDBRANCH   7   9
ENDBRANCH   1   7
BRANCH   4  18
ATOM     18  C   UNL     1      47.185   3.374  16.843  0.00  0.00    +0.000 C 
BRANCH  18  19
ATOM     19  N   UNL     1      46.800   4.385  15.897  0.00  0.00    +0.000 N 
ATOM     20  C   UNL     1      46.924   4.173  14.548  0.00  0.00    +0.000 C 
ATOM     21  O   UNL     1      47.318   3.103  14.090  0.00  0.00    +0.000 OA
ATOM     22  H   UNL     1      46.702   5.333  16.248  0.00  0.00    +0.000 HD
BRANCH  20  23
ATOM     23  C   UNL     1      46.499   5.270  13.669  0.00  0.00    +0.000 A 
ATOM     24  C   UNL     1      47.344   6.352  13.464  0.00  0.00    +0.000 A 
ATOM     25  S   UNL     1      46.721   7.507  12.375  0.00  0.00    +0.000 S 
ATOM     26  C   UNL     1      45.278   6.628  12.183  0.00  0.00    +0.000 A 
ATOM     27  N   UNL     1      44.279   7.091  11.382  0.00  0.00    +0.000 NA
ATOM     28  C   UNL     1      43.228   6.342  11.355  0.00  0.00    +0.000 A 
ATOM     29  N   UNL     1      43.088   5.169  12.049  0.00  0.00    +0.000 N 
ATOM     30  C   UNL     1      44.080   4.647  12.842  0.00  0.00    +0.000 A 
ATOM     31  O   UNL     1      43.939   3.568  13.413  0.00  0.00    +0.000 OA
ATOM     32  C   UNL     1      45.280   5.459  12.921  0.00  0.00    +0.000 A 
ATOM     33  H   UNL     1      42.241   4.623  11.977  0.00  0.00    +0.000 HD
ENDBRANCH  20  23
ENDBRANCH  18  19
ENDBRANCH   4  18
TORSDOF 6
ENDMDL
MODEL 4
REMARK VINA RESULT:    -7.361      2.905      7.897
REMARK INTER + INTRA:         -10.924
REMARK INTER:                  -9.374
REMARK INTRA:                  -1.550
REMARK UNBOUND:                -0.981
REMARK  Name = 
REMARK  7 active torsions:
REMARK  status: ('A' for Active; 'I' for Inactive)
REMARK    1  A    between atoms: C_1  and  N_2
REMARK    2  A    between atoms: N_2  and  C_3
REMARK    3  A    between atoms: C_3  and  C_4
REMARK    4  A    between atoms: C_7  and  C_8
REMARK    5  A    between atoms: C_8  and  N_9
REMARK    6  A    between atoms: C_10  and  C_12
REMARK    7  A    between atoms: C_24  and  C_26
REMARK                            x       y       z     vdW  Elec       q    Type
REMARK                         _______ _______ _______ _____ _____    ______ ____
ROOT
ATOM      1  C   UNL     1      49.114   7.781  16.074  0.00  0.00    +0.000 A 
ATOM      2  C   UNL     1      48.287   8.840  15.669  0.00  0.00    +0.000 A 
ATOM      3  C   UNL     1      47.779   8.888  14.367  0.00  0.00    +0.000 A 
ATOM      4  C   UNL     1      48.079   7.875  13.449  0.00  0.00    +0.000 A 
ATOM      5  C   UNL     1      48.963   6.857  13.832  0.00  0.00    +0.000 A 
ATOM      6  C   UNL     1      49.469   6.805  15.135  0.00  0.00    +0.000 A 
ENDROOT
BRANCH   1   7
ATOM      7  C   UNL     1      49.600   7.702  17.503  0.00  0.00    +0.000 C 
BRANCH   7   9
ATOM      8  C   UNL     1      48.395   8.774  19.456  0.00  0.00    +0.000 C 
ATOM      9  N   UNL     1      48.593   7.633  18.566  0.00  0.00    +0.000 N 
ATOM     10  C   UNL     1      47.919   6.450  18.915  0.00  0.00    +0.000 C 
ATOM     11  O   UNL     1      47.113   6.444  19.846  0.00  0.00    +0.000 OA
BRANCH  10  12
ATOM     12  C   UNL     1      48.103   5.224  18.149  0.00  0.00    +0.000 A 
ATOM     13  C   UNL     1      49.013   4.177  18.167  0.00  0.00    +0.000 A 
ATOM     14  C   UNL     1      48.676   3.265  17.135  0.00  0.00    +0.000 A 
ATOM     15  C   UNL     1      47.532   3.733  16.541  0.00  0.00    +0.000 A 
ATOM     16  N   UNL     1      47.167   4.881  17.187  0.00  0.00    +0.000 N 
ATOM     17  H   UNL     1      46.342   5.437  16.996  0.00  0.00    +0.000 HD
ENDBRANCH  10  12
ENDBRANCH   7   9
ENDBRANCH   1   7
BRANCH   4  18
ATOM     18  C   UNL     1      47.471   7.882  12.071  0.00  0.00    +0.000 C 
BRANCH  18  19
ATOM     19  N   UNL     1      46.814   6.638  11.775  0.00  0.00    +0.000 N 
ATOM     20  C   UNL     1      45.464   6.491  11.962  0.00  0.00    +0.000 C 
ATOM     21  O   UNL     1      44.753   7.420  12.339  0.00  0.00    +0.000 OA
ATOM     22  H   UNL     1      47.401   5.814  11.695  0.00  0.00    +0.000 HD
BRANCH  20  23
ATOM     23  C   UNL     1      44.894   5.180  11.626  0.00  0.00    +0.000 A 
ATOM     24  C   UNL     1      44.171   4.480  12.582  0.00  0.00    +0.000 A 
ATOM     25  S   UNL     1      43.534   3.005  12.012  0.00  0.00    +0.000 S 
ATOM     26  C   UNL     1      44.247   3.226  10.484  0.00  0.00    +0.000 A 
ATOM     27  N   UNL     1      44.109   2.288   9.507  0.00  0.00    +0.000 NA
ATOM     28  C   UNL     1      44.730   2.566   8.409  0.00  0.00    +0.000 A 
ATOM     29  N   UNL     1      45.469   3.701   8.198  0.00  0.00    +0.000 N 
ATOM     30  C   UNL     1      45.609   4.688   9.142  0.00  0.00    +0.000 A 
ATOM     31  O   UNL     1      46.240   5.716   8.903  0.00  0.00    +0.000 OA
ATOM     32  C   UNL     1      44.943   4.417  10.402  0.00  0.00    +0.000 A 
ATOM     33  H   UNL     1      45.924   3.864   7.311  0.00  0.00    +0.000 HD
ENDBRANCH  20  23
ENDBRANCH  18  19
ENDBRANCH   4  18
TORSDOF 6
ENDMDL
MODEL 5
REMARK VINA RESULT:    -7.215      3.158      4.772
REMARK INTER + INTRA:         -10.727
REMARK INTER:                  -9.575
REMARK INTRA:                  -1.152
REMARK UNBOUND:                -0.981
REMARK  Name = 
REMARK  7 active torsions:
REMARK  status: ('A' for Active; 'I' for Inactive)
REMARK    1  A    between atoms: C_1  and  N_2
REMARK    2  A    between atoms: N_2  and  C_3
REMARK    3  A    between atoms: C_3  and  C_4
REMARK    4  A    between atoms: C_7  and  C_8
REMARK    5  A    between atoms: C_8  and  N_9
REMARK    6  A    between atoms: C_10  and  C_12
REMARK    7  A    between atoms: C_24  and  C_26
REMARK                            x       y       z     vdW  Elec       q    Type
REMARK                         _______ _______ _______ _____ _____    ______ ____
ROOT
ATOM      1  C   UNL     1      47.460   5.663  13.802  0.00  0.00    +0.000 A 
ATOM      2  C   UNL     1      48.145   6.207  14.899  0.00  0.00    +0.000 A 
ATOM      3  C   UNL     1      48.257   5.492  16.096  0.00  0.00    +0.000 A 
ATOM      4  C   UNL     1      47.696   4.215  16.215  0.00  0.00    +0.000 A 
ATOM      5  C   UNL     1      46.951   3.702  15.144  0.00  0.00    +0.000 A 
ATOM      6  C   UNL     1      46.842   4.415  13.945  0.00  0.00    +0.000 A 
ENDROOT
BRANCH   1   7
ATOM      7  C   UNL     1      47.406   6.415  12.492  0.00  0.00    +0.000 C 
BRANCH   7   9
ATOM      8  C   UNL     1      46.197   8.590  12.958  0.00  0.00    +0.000 C 
ATOM      9  N   UNL     1      46.268   7.309  12.262  0.00  0.00    +0.000 N 
ATOM     10  C   UNL     1      45.122   6.930  11.543  0.00  0.00    +0.000 C 
ATOM     11  O   UNL     1      44.178   7.711  11.416  0.00  0.00    +0.000 OA
BRANCH  10  12
ATOM     12  C   UNL     1      45.045   5.637  10.874  0.00  0.00    +0.000 A 
ATOM     13  C   UNL     1      44.601   4.371  11.224  0.00  0.00    +0.000 A 
ATOM     14  C   UNL     1      44.814   3.496  10.128  0.00  0.00    +0.000 A 
ATOM     15  C   UNL     1      45.327   4.250   9.104  0.00  0.00    +0.000 A 
ATOM     16  N   UNL     1      45.416   5.542   9.542  0.00  0.00    +0.000 N 
ATOM     17  H   UNL     1      45.727   6.337   8.997  0.00  0.00    +0.000 HD
ENDBRANCH  10  12
ENDBRANCH   7   9
ENDBRANCH   1   7
BRANCH   4  18
ATOM     18  C   UNL     1      47.882   3.409  17.473  0.00  0.00    +0.000 C 
BRANCH  18  19
ATOM     19  N   UNL     1      49.274   3.215  17.779  0.00  0.00    +0.000 N 
ATOM     20  C   UNL     1      50.030   2.310  17.080  0.00  0.00    +0.000 C 
ATOM     21  O   UNL     1      49.571   1.667  16.138  0.00  0.00    +0.000 OA
ATOM     22  H   UNL     1      49.599   3.549  18.680  0.00  0.00    +0.000 HD
BRANCH  20  23
ATOM     23  C   UNL     1      51.440   2.192  17.470  0.00  0.00    +0.000 A 
ATOM     24  C   UNL     1      51.993   0.936  17.675  0.00  0.00    +0.000 A 
ATOM     25  S   UNL     1      53.652   0.976  18.069  0.00  0.00    +0.000 S 
ATOM     26  C   UNL     1      53.675   2.676  18.033  0.00  0.00    +0.000 A 
ATOM     27  N   UNL     1      54.814   3.366  18.314  0.00  0.00    +0.000 NA
ATOM     28  C   UNL     1      54.682   4.650  18.284  0.00  0.00    +0.000 A 
ATOM     29  N   UNL     1      53.515   5.306  17.990  0.00  0.00    +0.000 N 
ATOM     30  C   UNL     1      52.351   4.653  17.669  0.00  0.00    +0.000 A 
ATOM     31  O   UNL     1      51.334   5.273  17.364  0.00  0.00    +0.000 OA
ATOM     32  C   UNL     1      52.441   3.206  17.703  0.00  0.00    +0.000 A 
ATOM     33  H   UNL     1      53.480   6.316  17.974  0.00  0.00    +0.000 HD
ENDBRANCH  20  23
ENDBRANCH  18  19
ENDBRANCH   4  18
TORSDOF 6
ENDMDL
MODEL 6
REMARK VINA RESULT:    -6.651      3.832      5.316
REMARK INTER + INTRA:          -9.965
REMARK INTER:                  -8.822
REMARK INTRA:                  -1.143
REMARK UNBOUND:                -0.981
REMARK  Name = 
REMARK  7 active torsions:
REMARK  status: ('A' for Active; 'I' for Inactive)
REMARK    1  A    between atoms: C_1  and  N_2
REMARK    2  A    between atoms: N_2  and  C_3
REMARK    3  A    between atoms: C_3  and  C_4
REMARK    4  A    between atoms: C_7  and  C_8
REMARK    5  A    between atoms: C_8  and  N_9
REMARK    6  A    between atoms: C_10  and  C_12
REMARK    7  A    between atoms: C_24  and  C_26
REMARK                            x       y       z     vdW  Elec       q    Type
REMARK                         _______ _______ _______ _____ _____    ______ ____
ROOT
ATOM      1  C   UNL     1      46.504   4.859  13.259  0.00  0.00    +0.000 A 
ATOM      2  C   UNL     1      46.918   5.991  12.541  0.00  0.00    +0.000 A 
ATOM      3  C   UNL     1      47.850   6.879  13.086  0.00  0.00    +0.000 A 
ATOM      4  C   UNL     1      48.394   6.647  14.355  0.00  0.00    +0.000 A 
ATOM      5  C   UNL     1      47.927   5.556  15.102  0.00  0.00    +0.000 A 
ATOM      6  C   UNL     1      46.998   4.665  14.555  0.00  0.00    +0.000 A 
ENDROOT
BRANCH   1   7
ATOM      7  C   UNL     1      45.550   3.869  12.632  0.00  0.00    +0.000 C 
BRANCH   7   9
ATOM      8  C   UNL     1      43.303   4.880  13.217  0.00  0.00    +0.000 C 
ATOM      9  N   UNL     1      44.231   4.356  12.218  0.00  0.00    +0.000 N 
ATOM     10  C   UNL     1      43.712   4.179  10.924  0.00  0.00    +0.000 C 
ATOM     11  O   UNL     1      42.580   4.574  10.647  0.00  0.00    +0.000 OA
BRANCH  10  12
ATOM     12  C   UNL     1      44.520   3.588   9.864  0.00  0.00    +0.000 A 
ATOM     13  C   UNL     1      45.277   4.080   8.811  0.00  0.00    +0.000 A 
ATOM     14  C   UNL     1      45.820   2.985   8.092  0.00  0.00    +0.000 A 
ATOM     15  C   UNL     1      45.440   1.842   8.750  0.00  0.00    +0.000 A 
ATOM     16  N   UNL     1      44.703   2.215   9.838  0.00  0.00    +0.000 N 
ATOM     17  H   UNL     1      44.313   1.592  10.536  0.00  0.00    +0.000 HD
ENDBRANCH  10  12
ENDBRANCH   7   9
ENDBRANCH   1   7
BRANCH   4  18
ATOM     18  C   UNL     1      49.457   7.557  14.913  0.00  0.00    +0.000 C 
BRANCH  18  19
ATOM     19  N   UNL     1      50.629   7.576  14.081  0.00  0.00    +0.000 N 
ATOM     20  C   UNL     1      51.271   8.754  13.793  0.00  0.00    +0.000 C 
ATOM     21  O   UNL     1      50.906   9.827  14.268  0.00  0.00    +0.000 OA
ATOM     22  H   UNL     1      50.798   6.759  13.503  0.00  0.00    +0.000 HD
BRANCH  20  23
ATOM     23  C   UNL     1      52.459   8.661  12.937  0.00  0.00    +0.000 A 
ATOM     24  C   UNL     1      53.683   9.117  13.409  0.00  0.00    +0.000 A 
ATOM     25  S   UNL     1      54.967   8.886  12.312  0.00  0.00    +0.000 S 
ATOM     26  C   UNL     1      53.923   8.218  11.147  0.00  0.00    +0.000 A 
ATOM     27  N   UNL     1      54.393   7.823   9.932  0.00  0.00    +0.000 NA
ATOM     28  C   UNL     1      53.488   7.367   9.132  0.00  0.00    +0.000 A 
ATOM     29  N   UNL     1      52.156   7.262   9.441  0.00  0.00    +0.000 N 
ATOM     30  C   UNL     1      51.643   7.616  10.664  0.00  0.00    +0.000 A 
ATOM     31  O   UNL     1      50.451   7.465  10.924  0.00  0.00    +0.000 OA
ATOM     32  C   UNL     1      52.618   8.151  11.596  0.00  0.00    +0.000 A 
ATOM     33  H   UNL     1      51.499   6.886   8.772  0.00  0.00    +0.000 HD
ENDBRANCH  20  23
ENDBRANCH  18  19
ENDBRANCH   4  18
TORSDOF 6
ENDMDL
MODEL 7
REMARK VINA RESULT:    -6.616      2.356      2.904
REMARK INTER + INTRA:          -9.918
REMARK INTER:                  -9.226
REMARK INTRA:                  -0.692
REMARK UNBOUND:                -0.981
REMARK  Name = 
REMARK  7 active torsions:
REMARK  status: ('A' for Active; 'I' for Inactive)
REMARK    1  A    between atoms: C_1  and  N_2
REMARK    2  A    between atoms: N_2  and  C_3
REMARK    3  A    between atoms: C_3  and  C_4
REMARK    4  A    between atoms: C_7  and  C_8
REMARK    5  A    between atoms: C_8  and  N_9
REMARK    6  A    between atoms: C_10  and  C_12
REMARK    7  A    between atoms: C_24  and  C_26
REMARK                            x       y       z     vdW  Elec       q    Type
REMARK                         _______ _______ _______ _____ _____    ______ ____
ROOT
ATOM      1  C   UNL     1      45.389   6.787  11.557  0.00  0.00    +0.000 A 
ATOM      2  C   UNL     1      46.596   6.225  12.001  0.00  0.00    +0.000 A 
ATOM      3  C   UNL     1      47.404   6.904  12.919  0.00  0.00    +0.000 A 
ATOM      4  C   UNL     1      47.015   8.153  13.418  0.00  0.00    +0.000 A 
ATOM      5  C   UNL     1      45.846   8.746  12.921  0.00  0.00    +0.000 A 
ATOM      6  C   UNL     1      45.036   8.065  12.006  0.00  0.00    +0.000 A 
ENDROOT
BRANCH   1   7
ATOM      7  C   UNL     1      44.491   6.012  10.620  0.00  0.00    +0.000 C 
BRANCH   7   9
ATOM      8  C   UNL     1      42.927   5.134  12.407  0.00  0.00    +0.000 C 
ATOM      9  N   UNL     1      43.693   4.919  11.183  0.00  0.00    +0.000 N 
ATOM     10  C   UNL     1      43.763   3.594  10.719  0.00  0.00    +0.000 C 
ATOM     11  O   UNL     1      43.098   2.709  11.259  0.00  0.00    +0.000 OA
BRANCH  10  12
ATOM     12  C   UNL     1      44.565   3.245   9.553  0.00  0.00    +0.000 A 
ATOM     13  C   UNL     1      44.923   3.885   8.376  0.00  0.00    +0.000 A 
ATOM     14  C   UNL     1      45.719   3.002   7.603  0.00  0.00    +0.000 A 
ATOM     15  C   UNL     1      45.888   1.859   8.343  0.00  0.00    +0.000 A 
ATOM     16  N   UNL     1      45.235   2.033   9.531  0.00  0.00    +0.000 N 
ATOM     17  H   UNL     1      45.210   1.374  10.300  0.00  0.00    +0.000 HD
ENDBRANCH  10  12
ENDBRANCH   7   9
ENDBRANCH   1   7
BRANCH   4  18
ATOM     18  C   UNL     1      47.842   8.852  14.465  0.00  0.00    +0.000 C 
BRANCH  18  19
ATOM     19  N   UNL     1      49.127   8.229  14.630  0.00  0.00    +0.000 N 
ATOM     20  C   UNL     1      50.232   8.970  14.964  0.00  0.00    +0.000 C 
ATOM     21  O   UNL     1      50.165  10.177  15.185  0.00  0.00    +0.000 OA
ATOM     22  H   UNL     1      49.247   7.305  14.228  0.00  0.00    +0.000 HD
BRANCH  20  23
ATOM     23  C   UNL     1      51.495   8.235  15.109  0.00  0.00    +0.000 A 
ATOM     24  C   UNL     1      52.584   8.579  14.321  0.00  0.00    +0.000 A 
ATOM     25  S   UNL     1      53.984   7.666  14.654  0.00  0.00    +0.000 S 
ATOM     26  C   UNL     1      53.168   6.742  15.826  0.00  0.00    +0.000 A 
ATOM     27  N   UNL     1      53.804   5.740  16.493  0.00  0.00    +0.000 NA
ATOM     28  C   UNL     1      53.058   5.099  17.329  0.00  0.00    +0.000 A 
ATOM     29  N   UNL     1      51.736   5.374  17.564  0.00  0.00    +0.000 N 
ATOM     30  C   UNL     1      51.063   6.395  16.940  0.00  0.00    +0.000 A 
ATOM     31  O   UNL     1      49.890   6.646  17.210  0.00  0.00    +0.000 OA
ATOM     32  C   UNL     1      51.853   7.139  15.978  0.00  0.00    +0.000 A 
ATOM     33  H   UNL     1      51.208   4.839  18.240  0.00  0.00    +0.000 HD
ENDBRANCH  20  23
ENDBRANCH  18  19
ENDBRANCH   4  18
TORSDOF 6
ENDMDL
MODEL 8
REMARK VINA RESULT:    -6.547      2.023      2.546
REMARK INTER + INTRA:          -9.825
REMARK INTER:                  -8.742
REMARK INTRA:                  -1.083
REMARK UNBOUND:                -0.981
REMARK  Name = 
REMARK  7 active torsions:
REMARK  status: ('A' for Active; 'I' for Inactive)
REMARK    1  A    between atoms: C_1  and  N_2
REMARK    2  A    between atoms: N_2  and  C_3
REMARK    3  A    between atoms: C_3  and  C_4
REMARK    4  A    between atoms: C_7  and  C_8
REMARK    5  A    between atoms: C_8  and  N_9
REMARK    6  A    between atoms: C_10  and  C_12
REMARK    7  A    between atoms: C_24  and  C_26
REMARK                            x       y       z     vdW  Elec       q    Type
REMARK                         _______ _______ _______ _____ _____    ______ ____
ROOT
ATOM      1  C   UNL     1      46.448   5.075  13.019  0.00  0.00    +0.000 A 
ATOM      2  C   UNL     1      47.107   5.017  14.256  0.00  0.00    +0.000 A 
ATOM      3  C   UNL     1      48.028   6.004  14.620  0.00  0.00    +0.000 A 
ATOM      4  C   UNL     1      48.300   7.073  13.759  0.00  0.00    +0.000 A 
ATOM      5  C   UNL     1      47.697   7.092  12.493  0.00  0.00    +0.000 A 
ATOM      6  C   UNL     1      46.772   6.107  12.131  0.00  0.00    +0.000 A 
ENDROOT
BRANCH   1   7
ATOM      7  C   UNL     1      45.402   4.041  12.667  0.00  0.00    +0.000 C 
BRANCH   7   9
ATOM      8  C   UNL     1      43.153   5.077  13.198  0.00  0.00    +0.000 C 
ATOM      9  N   UNL     1      44.089   4.518  12.225  0.00  0.00    +0.000 N 
ATOM     10  C   UNL     1      43.583   4.301  10.933  0.00  0.00    +0.000 C 
ATOM     11  O   UNL     1      42.454   4.690  10.631  0.00  0.00    +0.000 OA
BRANCH  10  12
ATOM     12  C   UNL     1      44.398   3.674   9.900  0.00  0.00    +0.000 A 
ATOM     13  C   UNL     1      45.202   4.131   8.866  0.00  0.00    +0.000 A 
ATOM     14  C   UNL     1      45.727   3.013   8.171  0.00  0.00    +0.000 A 
ATOM     15  C   UNL     1      45.288   1.889   8.824  0.00  0.00    +0.000 A 
ATOM     16  N   UNL     1      44.533   2.295   9.888  0.00  0.00    +0.000 N 
ATOM     17  H   UNL     1      44.102   1.692  10.579  0.00  0.00    +0.000 HD
ENDBRANCH  10  12
ENDBRANCH   7   9
ENDBRANCH   1   7
BRANCH   4  18
ATOM     18  C   UNL     1      49.232   8.180  14.178  0.00  0.00    +0.000 C 
BRANCH  18  19
ATOM     19  N   UNL     1      49.571   8.088  15.573  0.00  0.00    +0.000 N 
ATOM     20  C   UNL     1      50.839   7.748  15.970  0.00  0.00    +0.000 C 
ATOM     21  O   UNL     1      51.745   7.559  15.162  0.00  0.00    +0.000 OA
ATOM     22  H   UNL     1      48.802   8.007  16.230  0.00  0.00    +0.000 HD
BRANCH  20  23
ATOM     23  C   UNL     1      51.079   7.685  17.416  0.00  0.00    +0.000 A 
ATOM     24  C   UNL     1      51.470   8.829  18.098  0.00  0.00    +0.000 A 
ATOM     25  S   UNL     1      51.652   8.595  19.777  0.00  0.00    +0.000 S 
ATOM     26  C   UNL     1      51.268   6.944  19.643  0.00  0.00    +0.000 A 
ATOM     27  N   UNL     1      51.269   6.135  20.738  0.00  0.00    +0.000 NA
ATOM     28  C   UNL     1      50.994   4.899  20.488  0.00  0.00    +0.000 A 
ATOM     29  N   UNL     1      50.709   4.400  19.244  0.00  0.00    +0.000 N 
ATOM     30  C   UNL     1      50.665   5.183  18.117  0.00  0.00    +0.000 A 
ATOM     31  O   UNL     1      50.360   4.711  17.023  0.00  0.00    +0.000 OA
ATOM     32  C   UNL     1      50.983   6.580  18.340  0.00  0.00    +0.000 A 
ATOM     33  H   UNL     1      50.492   3.421  19.116  0.00  0.00    +0.000 HD
ENDBRANCH  20  23
ENDBRANCH  18  19
ENDBRANCH   4  18
TORSDOF 6
ENDMDL
MODEL 9
REMARK VINA RESULT:    -6.399      3.141      8.117
REMARK INTER + INTRA:          -9.626
REMARK INTER:                  -8.438
REMARK INTRA:                  -1.187
REMARK UNBOUND:                -0.981
REMARK  Name = 
REMARK  7 active torsions:
REMARK  status: ('A' for Active; 'I' for Inactive)
REMARK    1  A    between atoms: C_1  and  N_2
REMARK    2  A    between atoms: N_2  and  C_3
REMARK    3  A    between atoms: C_3  and  C_4
REMARK    4  A    between atoms: C_7  and  C_8
REMARK    5  A    between atoms: C_8  and  N_9
REMARK    6  A    between atoms: C_10  and  C_12
REMARK    7  A    between atoms: C_24  and  C_26
REMARK                            x       y       z     vdW  Elec       q    Type
REMARK                         _______ _______ _______ _____ _____    ______ ____
ROOT
ATOM      1  C   UNL     1      48.714   7.495  16.675  0.00  0.00    +0.000 A 
ATOM      2  C   UNL     1      48.814   6.418  15.781  0.00  0.00    +0.000 A 
ATOM      3  C   UNL     1      48.605   6.607  14.411  0.00  0.00    +0.000 A 
ATOM      4  C   UNL     1      48.301   7.877  13.908  0.00  0.00    +0.000 A 
ATOM      5  C   UNL     1      48.129   8.938  14.809  0.00  0.00    +0.000 A 
ATOM      6  C   UNL     1      48.344   8.750  16.178  0.00  0.00    +0.000 A 
ENDROOT
BRANCH   1   7
ATOM      7  C   UNL     1      49.013   7.293  18.142  0.00  0.00    +0.000 C 
BRANCH   7   9
ATOM      8  C   UNL     1      47.055   6.091  19.207  0.00  0.00    +0.000 C 
ATOM      9  N   UNL     1      48.457   6.106  18.798  0.00  0.00    +0.000 N 
ATOM     10  C   UNL     1      49.242   5.027  19.238  0.00  0.00    +0.000 C 
ATOM     11  O   UNL     1      48.723   4.074  19.820  0.00  0.00    +0.000 OA
BRANCH  10  12
ATOM     12  C   UNL     1      50.672   4.973  18.960  0.00  0.00    +0.000 A 
ATOM     13  C   UNL     1      51.824   5.329  19.646  0.00  0.00    +0.000 A 
ATOM     14  C   UNL     1      52.946   5.051  18.825  0.00  0.00    +0.000 A 
ATOM     15  C   UNL     1      52.471   4.474  17.675  0.00  0.00    +0.000 A 
ATOM     16  N   UNL     1      51.112   4.385  17.785  0.00  0.00    +0.000 N 
ATOM     17  H   UNL     1      50.483   3.970  17.106  0.00  0.00    +0.000 HD
ENDBRANCH  10  12
ENDBRANCH   7   9
ENDBRANCH   1   7
BRANCH   4  18
ATOM     18  C   UNL     1      48.151   8.101  12.426  0.00  0.00    +0.000 C 
BRANCH  18  19
ATOM     19  N   UNL     1      47.512   6.985  11.783  0.00  0.00    +0.000 N 
ATOM     20  C   UNL     1      46.161   6.987  11.545  0.00  0.00    +0.000 C 
ATOM     21  O   UNL     1      45.453   7.952  11.821  0.00  0.00    +0.000 OA
ATOM     22  H   UNL     1      48.022   6.107  11.766  0.00  0.00    +0.000 HD
BRANCH  20  23
ATOM     23  C   UNL     1      45.610   5.800  10.880  0.00  0.00    +0.000 A 
ATOM     24  C   UNL     1      45.826   5.610   9.522  0.00  0.00    +0.000 A 
ATOM     25  S   UNL     1      45.166   4.157   8.922  0.00  0.00    +0.000 S 
ATOM     26  C   UNL     1      44.523   3.758  10.445  0.00  0.00    +0.000 A 
ATOM     27  N   UNL     1      43.798   2.619  10.619  0.00  0.00    +0.000 NA
ATOM     28  C   UNL     1      43.340   2.456  11.816  0.00  0.00    +0.000 A 
ATOM     29  N   UNL     1      43.549   3.325  12.855  0.00  0.00    +0.000 N 
ATOM     30  C   UNL     1      44.300   4.468  12.733  0.00  0.00    +0.000 A 
ATOM     31  O   UNL     1      44.507   5.202  13.698  0.00  0.00    +0.000 OA
ATOM     32  C   UNL     1      44.825   4.707  11.402  0.00  0.00    +0.000 A 
ATOM     33  H   UNL     1      43.170   3.135  13.772  0.00  0.00    +0.000 HD
ENDBRANCH  20  23
ENDBRANCH  18  19
ENDBRANCH   4  18
TORSDOF 6
ENDMDL
