MODEL 1
REMARK VINA RESULT:    -8.839      0.000      0.000
REMARK INTER + INTRA:         -13.271
REMARK INTER:                 -12.456
REMARK INTRA:                  -0.814
REMARK UNBOUND:                -0.814
REMARK  Name = 
REMARK  7 active torsions:
REMARK  status: ('A' for Active; 'I' for Inactive)
REMARK    1  A    between atoms: C_2  and  C_19
REMARK    2  A    between atoms: N_3  and  C_4
REMARK    3  A    between atoms: C_4  and  C_5
REMARK    4  A    between atoms: C_8  and  C_9
REMARK    5  A    between atoms: C_9  and  N_10
REMARK    6  A    between atoms: N_10  and  C_11
REMARK    7  A    between atoms: C_11  and  C_12
REMARK                            x       y       z     vdW  Elec       q    Type
REMARK                         _______ _______ _______ _____ _____    ______ ____
ROOT
ATOM      1  C   UNL     1      46.352   4.316  14.456  0.00  0.00    +0.000 C 
ENDROOT
BRANCH   1   2
ATOM      2  C   UNL     1      46.419   5.288  13.327  0.00  0.00    +0.000 C 
ATOM      3  C   UNL     1      47.495   5.981  12.934  0.00  0.00    +0.000 C 
ATOM      4  C   UNL     1      47.186   6.910  11.811  0.00  0.00    +0.000 C 
ATOM      5  C   UNL     1      45.784   6.474  11.346  0.00  0.00    +0.000 C 
ATOM      6  C   UNL     1      45.214   5.623  12.501  0.00  0.00    +0.000 C 
BRANCH   5   7
ATOM      7  C   UNL     1      45.849   5.699  10.014  0.00  0.00    +0.000 C 
BRANCH   7   8
ATOM      8  N   UNL     1      45.017   4.495  10.083  0.00  0.00    +0.000 NA
ATOM      9  H   UNL     1      44.192   4.672  10.654  0.00  0.00    +0.000 HD
BRANCH   8  10
ATOM     10  C   UNL     1      44.594   4.051   8.756  0.00  0.00    +0.000 C 
BRANCH  10  11
ATOM     11  C   UNL     1      45.587   3.081   8.173  0.00  0.00    +0.000 A 
ATOM     12  C   UNL     1      46.500   3.472   7.187  0.00  0.00    +0.000 A 
ATOM     13  C   UNL     1      47.395   2.544   6.663  0.00  0.00    +0.000 A 
ATOM     14  C   UNL     1      47.347   1.247   7.141  0.00  0.00    +0.000 A 
ATOM     15  N   UNL     1      46.481   0.827   8.089  0.00  0.00    +0.000 NA
ATOM     16  C   UNL     1      45.623   1.751   8.579  0.00  0.00    +0.000 A 
ENDBRANCH  10  11
ENDBRANCH   8  10
ENDBRANCH   7   8
ENDBRANCH   5   7
ENDBRANCH   1   2
BRANCH   1  19
ATOM     17  O   UNL     1      46.593   3.278  17.030  0.00  0.00    +0.000 OA
ATOM     18  C   UNL     1      47.471   4.027  16.613  0.00  0.00    +0.000 C 
ATOM     19  N   UNL     1      47.401   4.639  15.387  0.00  0.00    +0.000 N 
ATOM     20  H   UNL     1      48.252   5.021  14.990  0.00  0.00    +0.000 HD
BRANCH  18  21
ATOM     21  C   UNL     1      48.641   4.367  17.430  0.00  0.00    +0.000 A 
ATOM     22  C   UNL     1      48.653   5.530  18.187  0.00  0.00    +0.000 A 
ATOM     23  S   UNL     1      50.117   5.775  19.031  0.00  0.00    +0.000 S 
ATOM     24  C   UNL     1      50.762   4.310  18.452  0.00  0.00    +0.000 A 
ATOM     25  N   UNL     1      52.006   3.897  18.815  0.00  0.00    +0.000 NA
ATOM     26  C   UNL     1      52.348   2.749  18.327  0.00  0.00    +0.000 A 
ATOM     27  N   UNL     1      51.562   1.978  17.512  0.00  0.00    +0.000 N 
ATOM     28  C   UNL     1      50.318   2.376  17.083  0.00  0.00    +0.000 A 
ATOM     29  O   UNL     1      49.676   1.696  16.294  0.00  0.00    +0.000 OA
ATOM     30  C   UNL     1      49.881   3.652  17.615  0.00  0.00    +0.000 A 
ATOM     31  H   UNL     1      51.892   1.095  17.154  0.00  0.00    +0.000 HD
ENDBRANCH  18  21
ENDBRANCH   1  19
TORSDOF 7
ENDMDL
MODEL 2
REMARK VINA RESULT:    -8.732      2.014      2.775
REMARK INTER + INTRA:         -13.120
REMARK INTER:                 -12.054
REMARK INTRA:                  -1.066
REMARK UNBOUND:                -0.814
REMARK  Name = 
REMARK  7 active torsions:
REMARK  status: ('A' for Active; 'I' for Inactive)
REMARK    1  A    between atoms: C_2  and  C_19
REMARK    2  A    between atoms: N_3  and  C_4
REMARK    3  A    between atoms: C_4  and  C_5
REMARK    4  A    between atoms: C_8  and  C_9
REMARK    5  A    between atoms: C_9  and  N_10
REMARK    6  A    between atoms: N_10  and  C_11
REMARK    7  A    between atoms: C_11  and  C_12
REMARK                            x       y       z     vdW  Elec       q    Type
REMARK                         _______ _______ _______ _____ _____    ______ ____
ROOT
ATOM      1  C   UNL     1      46.388   6.159  12.549  0.00  0.00    +0.000 C 
ENDROOT
BRANCH   1   2
ATOM      2  C   UNL     1      45.038   5.532  12.454  0.00  0.00    +0.000 C 
ATOM      3  C   UNL     1      43.949   6.066  11.887  0.00  0.00    +0.000 C 
ATOM      4  C   UNL     1      42.753   5.189  12.030  0.00  0.00    +0.000 C 
ATOM      5  C   UNL     1      43.334   3.853  12.528  0.00  0.00    +0.000 C 
ATOM      6  C   UNL     1      44.750   4.186  13.045  0.00  0.00    +0.000 C 
BRANCH   5   7
ATOM      7  C   UNL     1      43.345   2.792  11.408  0.00  0.00    +0.000 C 
BRANCH   7   8
ATOM      8  N   UNL     1      44.628   2.809  10.702  0.00  0.00    +0.000 NA
ATOM      9  H   UNL     1      45.046   1.879  10.711  0.00  0.00    +0.000 HD
BRANCH   8  10
ATOM     10  C   UNL     1      44.481   3.253   9.317  0.00  0.00    +0.000 C 
BRANCH  10  11
ATOM     11  C   UNL     1      45.567   2.676   8.449  0.00  0.00    +0.000 A 
ATOM     12  C   UNL     1      46.274   3.467   7.537  0.00  0.00    +0.000 A 
ATOM     13  C   UNL     1      47.263   2.895   6.742  0.00  0.00    +0.000 A 
ATOM     14  C   UNL     1      47.515   1.542   6.885  0.00  0.00    +0.000 A 
ATOM     15  N   UNL     1      46.856   0.742   7.751  0.00  0.00    +0.000 NA
ATOM     16  C   UNL     1      45.899   1.326   8.508  0.00  0.00    +0.000 A 
ENDBRANCH  10  11
ENDBRANCH   8  10
ENDBRANCH   7   8
ENDBRANCH   5   7
ENDBRANCH   1   2
BRANCH   1  19
ATOM     17  O   UNL     1      49.017   6.542  13.387  0.00  0.00    +0.000 OA
ATOM     18  C   UNL     1      48.166   6.270  14.228  0.00  0.00    +0.000 C 
ATOM     19  N   UNL     1      46.861   5.996  13.898  0.00  0.00    +0.000 N 
ATOM     20  H   UNL     1      46.161   6.042  14.629  0.00  0.00    +0.000 HD
BRANCH  18  21
ATOM     21  C   UNL     1      48.500   6.163  15.652  0.00  0.00    +0.000 A 
ATOM     22  C   UNL     1      49.017   7.255  16.334  0.00  0.00    +0.000 A 
ATOM     23  S   UNL     1      49.386   6.923  17.967  0.00  0.00    +0.000 S 
ATOM     24  C   UNL     1      48.822   5.323  17.828  0.00  0.00    +0.000 A 
ATOM     25  N   UNL     1      48.837   4.476  18.892  0.00  0.00    +0.000 NA
ATOM     26  C   UNL     1      48.344   3.306  18.648  0.00  0.00    +0.000 A 
ATOM     27  N   UNL     1      47.838   2.905  17.440  0.00  0.00    +0.000 N 
ATOM     28  C   UNL     1      47.844   3.711  16.326  0.00  0.00    +0.000 A 
ATOM     29  O   UNL     1      47.452   3.294  15.244  0.00  0.00    +0.000 OA
ATOM     30  C   UNL     1      48.373   5.043  16.552  0.00  0.00    +0.000 A 
ATOM     31  H   UNL     1      47.478   1.973  17.309  0.00  0.00    +0.000 HD
ENDBRANCH  18  21
ENDBRANCH   1  19
TORSDOF 7
ENDMDL
MODEL 3
REMARK VINA RESULT:    -8.251      2.202      2.702
REMARK INTER + INTRA:         -12.442
REMARK INTER:                 -11.284
REMARK INTRA:                  -1.158
REMARK UNBOUND:                -0.814
REMARK  Name = 
REMARK  7 active torsions:
REMARK  status: ('A' for Active; 'I' for Inactive)
REMARK    1  A    between atoms: C_2  and  C_19
REMARK    2  A    between atoms: N_3  and  C_4
REMARK    3  A    between atoms: C_4  and  C_5
REMARK    4  A    between atoms: C_8  and  C_9
REMARK    5  A    between atoms: C_9  and  N_10
REMARK    6  A    between atoms: N_10  and  C_11
REMARK    7  A    between atoms: C_11  and  C_12
REMARK                            x       y       z     vdW  Elec       q    Type
REMARK                         _______ _______ _______ _____ _____    ______ ____
ROOT
ATOM      1  C   UNL     1      46.620   4.028  13.647  0.00  0.00    +0.000 C 
ENDROOT
BRANCH   1   2
ATOM      2  C   UNL     1      45.813   4.987  12.837  0.00  0.00    +0.000 C 
ATOM      3  C   UNL     1      46.249   5.730  11.812  0.00  0.00    +0.000 C 
ATOM      4  C   UNL     1      45.185   6.625  11.275  0.00  0.00    +0.000 C 
ATOM      5  C   UNL     1      43.897   6.109  11.941  0.00  0.00    +0.000 C 
ATOM      6  C   UNL     1      44.367   5.245  13.132  0.00  0.00    +0.000 C 
BRANCH   5   7
ATOM      7  C   UNL     1      43.025   5.320  10.943  0.00  0.00    +0.000 C 
BRANCH   7   8
ATOM      8  N   UNL     1      43.831   4.871   9.805  0.00  0.00    +0.000 NA
ATOM      9  H   UNL     1      44.698   5.405   9.758  0.00  0.00    +0.000 HD
BRANCH   8  10
ATOM     10  C   UNL     1      44.150   3.447   9.894  0.00  0.00    +0.000 C 
BRANCH  10  11
ATOM     11  C   UNL     1      45.205   3.070   8.889  0.00  0.00    +0.000 A 
ATOM     12  C   UNL     1      45.769   4.017   8.028  0.00  0.00    +0.000 A 
ATOM     13  C   UNL     1      46.733   3.628   7.103  0.00  0.00    +0.000 A 
ATOM     14  C   UNL     1      47.104   2.295   7.066  0.00  0.00    +0.000 A 
ATOM     15  N   UNL     1      46.584   1.348   7.876  0.00  0.00    +0.000 NA
ATOM     16  C   UNL     1      45.648   1.757   8.764  0.00  0.00    +0.000 A 
ENDBRANCH  10  11
ENDBRANCH   8  10
ENDBRANCH   7   8
ENDBRANCH   5   7
ENDBRANCH   1   2
BRANCH   1  19
ATOM     17  O   UNL     1      48.153   2.891  15.675  0.00  0.00    +0.000 OA
ATOM     18  C   UNL     1      47.767   4.048  15.808  0.00  0.00    +0.000 C 
ATOM     19  N   UNL     1      46.950   4.665  14.894  0.00  0.00    +0.000 N 
ATOM     20  H   UNL     1      46.883   5.676  14.913  0.00  0.00    +0.000 HD
BRANCH  18  21
ATOM     21  C   UNL     1      48.110   4.840  16.994  0.00  0.00    +0.000 A 
ATOM     22  C   UNL     1      47.727   4.411  18.258  0.00  0.00    +0.000 A 
ATOM     23  S   UNL     1      48.176   5.488  19.504  0.00  0.00    +0.000 S 
ATOM     24  C   UNL     1      48.940   6.536  18.402  0.00  0.00    +0.000 A 
ATOM     25  N   UNL     1      49.560   7.671  18.823  0.00  0.00    +0.000 NA
ATOM     26  C   UNL     1      50.127   8.348  17.879  0.00  0.00    +0.000 A 
ATOM     27  N   UNL     1      50.132   7.997  16.556  0.00  0.00    +0.000 N 
ATOM     28  C   UNL     1      49.481   6.884  16.079  0.00  0.00    +0.000 A 
ATOM     29  O   UNL     1      49.443   6.641  14.880  0.00  0.00    +0.000 OA
ATOM     30  C   UNL     1      48.841   6.079  17.102  0.00  0.00    +0.000 A 
ATOM     31  H   UNL     1      50.583   8.575  15.865  0.00  0.00    +0.000 HD
ENDBRANCH  18  21
ENDBRANCH   1  19
TORSDOF 7
ENDMDL
MODEL 4
REMARK VINA RESULT:    -7.338      3.632      7.911
REMARK INTER + INTRA:         -11.155
REMARK INTER:                 -10.290
REMARK INTRA:                  -0.865
REMARK UNBOUND:                -0.814
REMARK  Name = 
REMARK  7 active torsions:
REMARK  status: ('A' for Active; 'I' for Inactive)
REMARK    1  A    between atoms: C_2  and  C_19
REMARK    2  A    between atoms: N_3  and  C_4
REMARK    3  A    between atoms: C_4  and  C_5
REMARK    4  A    between atoms: C_8  and  C_9
REMARK    5  A    between atoms: C_9  and  N_10
REMARK    6  A    between atoms: N_10  and  C_11
REMARK    7  A    between atoms: C_11  and  C_12
REMARK                            x       y       z     vdW  Elec       q    Type
REMARK                         _______ _______ _______ _____ _____    ______ ____
ROOT
ATOM      1  C   UNL     1      49.511   7.473  13.184  0.00  0.00    +0.000 C 
ENDROOT
BRANCH   1   2
ATOM      2  C   UNL     1      49.292   7.993  14.565  0.00  0.00    +0.000 C 
ATOM      3  C   UNL     1      48.501   9.015  14.916  0.00  0.00    +0.000 C 
ATOM      4  C   UNL     1      48.571   9.303  16.377  0.00  0.00    +0.000 C 
ATOM      5  C   UNL     1      49.319   8.089  16.957  0.00  0.00    +0.000 C 
ATOM      6  C   UNL     1      49.999   7.408  15.749  0.00  0.00    +0.000 C 
BRANCH   5   7
ATOM      7  C   UNL     1      48.359   7.143  17.708  0.00  0.00    +0.000 C 
BRANCH   7   8
ATOM      8  N   UNL     1      47.964   6.026  16.845  0.00  0.00    +0.000 NA
ATOM      9  H   UNL     1      48.702   5.827  16.172  0.00  0.00    +0.000 HD
BRANCH   8  10
ATOM     10  C   UNL     1      47.680   4.818  17.617  0.00  0.00    +0.000 C 
BRANCH  10  11
ATOM     11  C   UNL     1      48.728   3.766  17.372  0.00  0.00    +0.000 A 
ATOM     12  C   UNL     1      49.997   3.847  17.956  0.00  0.00    +0.000 A 
ATOM     13  C   UNL     1      50.945   2.861  17.696  0.00  0.00    +0.000 A 
ATOM     14  C   UNL     1      50.593   1.821  16.855  0.00  0.00    +0.000 A 
ATOM     15  N   UNL     1      49.381   1.705  16.269  0.00  0.00    +0.000 NA
ATOM     16  C   UNL     1      48.481   2.679  16.540  0.00  0.00    +0.000 A 
ENDBRANCH  10  11
ENDBRANCH   8  10
ENDBRANCH   7   8
ENDBRANCH   5   7
ENDBRANCH   1   2
BRANCH   1  19
ATOM     17  O   UNL     1      47.917   5.301  13.892  0.00  0.00    +0.000 OA
ATOM     18  C   UNL     1      47.484   6.107  13.073  0.00  0.00    +0.000 C 
ATOM     19  N   UNL     1      48.226   7.166  12.614  0.00  0.00    +0.000 N 
ATOM     20  H   UNL     1      47.743   7.931  12.158  0.00  0.00    +0.000 HD
BRANCH  18  21
ATOM     21  C   UNL     1      46.150   5.958  12.482  0.00  0.00    +0.000 A 
ATOM     22  C   UNL     1      45.502   7.054  11.930  0.00  0.00    +0.000 A 
ATOM     23  S   UNL     1      43.943   6.693  11.335  0.00  0.00    +0.000 S 
ATOM     24  C   UNL     1      44.104   5.050  11.751  0.00  0.00    +0.000 A 
ATOM     25  N   UNL     1      43.110   4.158  11.491  0.00  0.00    +0.000 NA
ATOM     26  C   UNL     1      43.387   2.941  11.828  0.00  0.00    +0.000 A 
ATOM     27  N   UNL     1      44.564   2.534  12.400  0.00  0.00    +0.000 N 
ATOM     28  C   UNL     1      45.577   3.406  12.720  0.00  0.00    +0.000 A 
ATOM     29  O   UNL     1      46.583   3.019  13.299  0.00  0.00    +0.000 OA
ATOM     30  C   UNL     1      45.321   4.785  12.348  0.00  0.00    +0.000 A 
ATOM     31  H   UNL     1      44.714   1.570  12.651  0.00  0.00    +0.000 HD
ENDBRANCH  18  21
ENDBRANCH   1  19
TORSDOF 7
ENDMDL
MODEL 5
REMARK VINA RESULT:    -7.327      3.688      8.541
REMARK INTER + INTRA:         -11.140
REMARK INTER:                  -8.963
REMARK INTRA:                  -2.177
REMARK UNBOUND:                -0.814
REMARK  Name = 
REMARK  7 active torsions:
REMARK  status: ('A' for Active; 'I' for Inactive)
REMARK    1  A    between atoms: C_2  and  C_19
REMARK    2  A    between atoms: N_3  and  C_4
REMARK    3  A    between atoms: C_4  and  C_5
REMARK    4  A    between atoms: C_8  and  C_9
REMARK    5  A    between atoms: C_9  and  N_10
REMARK    6  A    between atoms: N_10  and  C_11
REMARK    7  A    between atoms: C_11  and  C_12
REMARK                            x       y       z     vdW  Elec       q    Type
REMARK                         _______ _______ _______ _____ _____    ______ ____
ROOT
ATOM      1  C   UNL     1      49.340   6.528  15.979  0.00  0.00    +0.000 C 
ENDROOT
BRANCH   1   2
ATOM      2  C   UNL     1      49.218   7.724  16.862  0.00  0.00    +0.000 C 
ATOM      3  C   UNL     1      48.295   8.690  16.775  0.00  0.00    +0.000 C 
ATOM      4  C   UNL     1      48.512   9.767  17.781  0.00  0.00    +0.000 C 
ATOM      5  C   UNL     1      49.565   9.175  18.735  0.00  0.00    +0.000 C 
ATOM      6  C   UNL     1      50.191   7.987  17.972  0.00  0.00    +0.000 C 
BRANCH   5   7
ATOM      7  C   UNL     1      48.934   8.751  20.077  0.00  0.00    +0.000 C 
BRANCH   7   8
ATOM      8  N   UNL     1      49.188   7.331  20.335  0.00  0.00    +0.000 NA
ATOM      9  H   UNL     1      49.699   7.220  21.209  0.00  0.00    +0.000 HD
BRANCH   8  10
ATOM     10  C   UNL     1      47.947   6.562  20.406  0.00  0.00    +0.000 C 
BRANCH  10  11
ATOM     11  C   UNL     1      47.946   5.450  19.391  0.00  0.00    +0.000 A 
ATOM     12  C   UNL     1      48.986   4.517  19.326  0.00  0.00    +0.000 A 
ATOM     13  C   UNL     1      48.957   3.510  18.366  0.00  0.00    +0.000 A 
ATOM     14  C   UNL     1      47.882   3.468  17.494  0.00  0.00    +0.000 A 
ATOM     15  N   UNL     1      46.858   4.349  17.521  0.00  0.00    +0.000 NA
ATOM     16  C   UNL     1      46.916   5.318  18.465  0.00  0.00    +0.000 A 
ENDBRANCH  10  11
ENDBRANCH   8  10
ENDBRANCH   7   8
ENDBRANCH   5   7
ENDBRANCH   1   2
BRANCH   1  19
ATOM     17  O   UNL     1      49.274   6.798  13.207  0.00  0.00    +0.000 OA
ATOM     18  C   UNL     1      48.231   6.534  13.797  0.00  0.00    +0.000 C 
ATOM     19  N   UNL     1      48.155   6.452  15.166  0.00  0.00    +0.000 N 
ATOM     20  H   UNL     1      47.358   5.980  15.576  0.00  0.00    +0.000 HD
BRANCH  18  21
ATOM     21  C   UNL     1      46.969   6.342  13.076  0.00  0.00    +0.000 A 
ATOM     22  C   UNL     1      46.335   7.420  12.474  0.00  0.00    +0.000 A 
ATOM     23  S   UNL     1      44.858   7.006  11.724  0.00  0.00    +0.000 S 
ATOM     24  C   UNL     1      45.042   5.365  12.138  0.00  0.00    +0.000 A 
ATOM     25  N   UNL     1      44.115   4.440  11.773  0.00  0.00    +0.000 NA
ATOM     26  C   UNL     1      44.406   3.229  12.124  0.00  0.00    +0.000 A 
ATOM     27  N   UNL     1      45.536   2.861  12.804  0.00  0.00    +0.000 N 
ATOM     28  C   UNL     1      46.477   3.767  13.232  0.00  0.00    +0.000 A 
ATOM     29  O   UNL     1      47.436   3.411  13.903  0.00  0.00    +0.000 OA
ATOM     30  C   UNL     1      46.204   5.140  12.849  0.00  0.00    +0.000 A 
ATOM     31  H   UNL     1      45.700   1.900  13.060  0.00  0.00    +0.000 HD
ENDBRANCH  18  21
ENDBRANCH   1  19
TORSDOF 7
ENDMDL
MODEL 6
REMARK VINA RESULT:    -7.324      3.614      8.439
REMARK INTER + INTRA:         -11.136
REMARK INTER:                  -9.751
REMARK INTRA:                  -1.385
REMARK UNBOUND:                -0.814
REMARK  Name = 
REMARK  7 active torsions:
REMARK  status: ('A' for Active; 'I' for Inactive)
REMARK    1  A    between atoms: C_2  and  C_19
REMARK    2  A    between atoms: N_3  and  C_4
REMARK    3  A    between atoms: C_4  and  C_5
REMARK    4  A    between atoms: C_8  and  C_9
REMARK    5  A    between atoms: C_9  and  N_10
REMARK    6  A    between atoms: N_10  and  C_11
REMARK    7  A    between atoms: C_11  and  C_12
REMARK                            x       y       z     vdW  Elec       q    Type
REMARK                         _______ _______ _______ _____ _____    ______ ____
ROOT
ATOM      1  C   UNL     1      47.379   8.085  11.799  0.00  0.00    +0.000 C 
ENDROOT
BRANCH   1   2
ATOM      2  C   UNL     1      48.530   7.945  12.738  0.00  0.00    +0.000 C 
ATOM      3  C   UNL     1      49.660   8.663  12.728  0.00  0.00    +0.000 C 
ATOM      4  C   UNL     1      50.622   8.211  13.772  0.00  0.00    +0.000 C 
ATOM      5  C   UNL     1      49.789   7.269  14.659  0.00  0.00    +0.000 C 
ATOM      6  C   UNL     1      48.542   6.909  13.822  0.00  0.00    +0.000 C 
BRANCH   5   7
ATOM      7  C   UNL     1      49.429   7.934  16.004  0.00  0.00    +0.000 C 
BRANCH   7   8
ATOM      8  N   UNL     1      48.255   7.286  16.595  0.00  0.00    +0.000 NA
ATOM      9  H   UNL     1      47.770   6.732  15.892  0.00  0.00    +0.000 HD
BRANCH   8  10
ATOM     10  C   UNL     1      48.619   6.424  17.718  0.00  0.00    +0.000 C 
BRANCH  10  11
ATOM     11  C   UNL     1      48.607   4.976  17.308  0.00  0.00    +0.000 A 
ATOM     12  C   UNL     1      49.615   4.092  17.710  0.00  0.00    +0.000 A 
ATOM     13  C   UNL     1      49.577   2.763  17.301  0.00  0.00    +0.000 A 
ATOM     14  C   UNL     1      48.527   2.356  16.496  0.00  0.00    +0.000 A 
ATOM     15  N   UNL     1      47.536   3.175  16.083  0.00  0.00    +0.000 NA
ATOM     16  C   UNL     1      47.601   4.462  16.496  0.00  0.00    +0.000 A 
ENDBRANCH  10  11
ENDBRANCH   8  10
ENDBRANCH   7   8
ENDBRANCH   5   7
ENDBRANCH   1   2
BRANCH   1  19
ATOM     17  O   UNL     1      44.620   7.785  11.565  0.00  0.00    +0.000 OA
ATOM     18  C   UNL     1      45.322   6.779  11.576  0.00  0.00    +0.000 C 
ATOM     19  N   UNL     1      46.682   6.827  11.758  0.00  0.00    +0.000 N 
ATOM     20  H   UNL     1      47.232   6.017  11.496  0.00  0.00    +0.000 HD
BRANCH  18  21
ATOM     21  C   UNL     1      44.743   5.437  11.450  0.00  0.00    +0.000 A 
ATOM     22  C   UNL     1      43.961   4.913  12.470  0.00  0.00    +0.000 A 
ATOM     23  S   UNL     1      43.416   3.325  12.160  0.00  0.00    +0.000 S 
ATOM     24  C   UNL     1      44.166   3.305  10.632  0.00  0.00    +0.000 A 
ATOM     25  N   UNL     1      44.073   2.221   9.817  0.00  0.00    +0.000 NA
ATOM     26  C   UNL     1      44.661   2.363   8.674  0.00  0.00    +0.000 A 
ATOM     27  N   UNL     1      45.332   3.487   8.272  0.00  0.00    +0.000 N 
ATOM     28  C   UNL     1      45.489   4.589   9.080  0.00  0.00    +0.000 A 
ATOM     29  O   UNL     1      46.159   5.547   8.716  0.00  0.00    +0.000 OA
ATOM     30  C   UNL     1      44.834   4.486  10.369  0.00  0.00    +0.000 A 
ATOM     31  H   UNL     1      45.780   3.532   7.371  0.00  0.00    +0.000 HD
ENDBRANCH  18  21
ENDBRANCH   1  19
TORSDOF 7
ENDMDL
MODEL 7
REMARK VINA RESULT:    -7.247      3.812      7.855
REMARK INTER + INTRA:         -11.026
REMARK INTER:                  -9.606
REMARK INTRA:                  -1.421
REMARK UNBOUND:                -0.814
REMARK  Name = 
REMARK  7 active torsions:
REMARK  status: ('A' for Active; 'I' for Inactive)
REMARK    1  A    between atoms: C_2  and  C_19
REMARK    2  A    between atoms: N_3  and  C_4
REMARK    3  A    between atoms: C_4  and  C_5
REMARK    4  A    between atoms: C_8  and  C_9
REMARK    5  A    between atoms: C_9  and  N_10
REMARK    6  A    between atoms: N_10  and  C_11
REMARK    7  A    between atoms: C_11  and  C_12
REMARK                            x       y       z     vdW  Elec       q    Type
REMARK                         _______ _______ _______ _____ _____    ______ ____
ROOT
ATOM      1  C   UNL     1      47.385   3.452  16.553  0.00  0.00    +0.000 C 
ENDROOT
BRANCH   1   2
ATOM      2  C   UNL     1      48.668   3.996  17.084  0.00  0.00    +0.000 C 
ATOM      3  C   UNL     1      49.742   3.288  17.458  0.00  0.00    +0.000 C 
ATOM      4  C   UNL     1      50.825   4.155  18.001  0.00  0.00    +0.000 C 
ATOM      5  C   UNL     1      50.378   5.580  17.632  0.00  0.00    +0.000 C 
ATOM      6  C   UNL     1      48.876   5.466  17.291  0.00  0.00    +0.000 C 
BRANCH   5   7
ATOM      7  C   UNL     1      51.210   6.146  16.463  0.00  0.00    +0.000 C 
BRANCH   7   8
ATOM      8  N   UNL     1      50.330   6.668  15.415  0.00  0.00    +0.000 NA
ATOM      9  H   UNL     1      49.355   6.527  15.674  0.00  0.00    +0.000 HD
BRANCH   8  10
ATOM     10  C   UNL     1      50.559   8.091  15.171  0.00  0.00    +0.000 C 
BRANCH  10  11
ATOM     11  C   UNL     1      49.915   8.526  13.882  0.00  0.00    +0.000 A 
ATOM     12  C   UNL     1      50.031   7.766  12.713  0.00  0.00    +0.000 A 
ATOM     13  C   UNL     1      49.432   8.207  11.537  0.00  0.00    +0.000 A 
ATOM     14  C   UNL     1      48.734   9.401  11.566  0.00  0.00    +0.000 A 
ATOM     15  N   UNL     1      48.599  10.166  12.671  0.00  0.00    +0.000 NA
ATOM     16  C   UNL     1      49.194   9.712  13.799  0.00  0.00    +0.000 A 
ENDBRANCH  10  11
ENDBRANCH   8  10
ENDBRANCH   7   8
ENDBRANCH   5   7
ENDBRANCH   1   2
BRANCH   1  19
ATOM     17  O   UNL     1      47.271   3.201  13.781  0.00  0.00    +0.000 OA
ATOM     18  C   UNL     1      46.757   4.185  14.304  0.00  0.00    +0.000 C 
ATOM     19  N   UNL     1      46.826   4.426  15.654  0.00  0.00    +0.000 N 
ATOM     20  H   UNL     1      46.174   5.088  16.058  0.00  0.00    +0.000 HD
BRANCH  18  21
ATOM     21  C   UNL     1      46.075   5.209  13.507  0.00  0.00    +0.000 A 
ATOM     22  C   UNL     1      46.638   6.468  13.353  0.00  0.00    +0.000 A 
ATOM     23  S   UNL     1      45.676   7.535  12.432  0.00  0.00    +0.000 S 
ATOM     24  C   UNL     1      44.498   6.335  12.167  0.00  0.00    +0.000 A 
ATOM     25  N   UNL     1      43.390   6.588  11.421  0.00  0.00    +0.000 NA
ATOM     26  C   UNL     1      42.603   5.572  11.275  0.00  0.00    +0.000 A 
ATOM     27  N   UNL     1      42.822   4.329  11.805  0.00  0.00    +0.000 N 
ATOM     28  C   UNL     1      43.904   4.039  12.602  0.00  0.00    +0.000 A 
ATOM     29  O   UNL     1      44.029   2.938  13.121  0.00  0.00    +0.000 OA
ATOM     30  C   UNL     1      44.827   5.143  12.784  0.00  0.00    +0.000 A 
ATOM     31  H   UNL     1      42.163   3.579  11.665  0.00  0.00    +0.000 HD
ENDBRANCH  18  21
ENDBRANCH   1  19
TORSDOF 7
ENDMDL
MODEL 8
REMARK VINA RESULT:    -6.983      3.782      8.733
REMARK INTER + INTRA:         -10.655
REMARK INTER:                  -9.340
REMARK INTRA:                  -1.315
REMARK UNBOUND:                -0.814
REMARK  Name = 
REMARK  7 active torsions:
REMARK  status: ('A' for Active; 'I' for Inactive)
REMARK    1  A    between atoms: C_2  and  C_19
REMARK    2  A    between atoms: N_3  and  C_4
REMARK    3  A    between atoms: C_4  and  C_5
REMARK    4  A    between atoms: C_8  and  C_9
REMARK    5  A    between atoms: C_9  and  N_10
REMARK    6  A    between atoms: N_10  and  C_11
REMARK    7  A    between atoms: C_11  and  C_12
REMARK                            x       y       z     vdW  Elec       q    Type
REMARK                         _______ _______ _______ _____ _____    ______ ____
ROOT
ATOM      1  C   UNL     1      47.139   3.413  16.828  0.00  0.00    +0.000 C 
ENDROOT
BRANCH   1   2
ATOM      2  C   UNL     1      48.550   3.625  17.266  0.00  0.00    +0.000 C 
ATOM      3  C   UNL     1      49.565   2.763  17.130  0.00  0.00    +0.000 C 
ATOM      4  C   UNL     1      50.824   3.277  17.739  0.00  0.00    +0.000 C 
ATOM      5  C   UNL     1      50.516   4.757  18.028  0.00  0.00    +0.000 C 
ATOM      6  C   UNL     1      48.978   4.878  17.966  0.00  0.00    +0.000 C 
BRANCH   5   7
ATOM      7  C   UNL     1      51.226   5.686  17.021  0.00  0.00    +0.000 C 
BRANCH   7   8
ATOM      8  N   UNL     1      50.269   6.194  16.034  0.00  0.00    +0.000 NA
ATOM      9  H   UNL     1      49.340   6.257  16.447  0.00  0.00    +0.000 HD
BRANCH   8  10
ATOM     10  C   UNL     1      50.658   7.509  15.527  0.00  0.00    +0.000 C 
BRANCH  10  11
ATOM     11  C   UNL     1      49.850   8.597  16.183  0.00  0.00    +0.000 A 
ATOM     12  C   UNL     1      48.698   8.310  16.922  0.00  0.00    +0.000 A 
ATOM     13  C   UNL     1      47.969   9.343  17.503  0.00  0.00    +0.000 A 
ATOM     14  C   UNL     1      48.418  10.640  17.323  0.00  0.00    +0.000 A 
ATOM     15  N   UNL     1      49.523  10.962  16.616  0.00  0.00    +0.000 NA
ATOM     16  C   UNL     1      50.209   9.936  16.062  0.00  0.00    +0.000 A 
ENDBRANCH  10  11
ENDBRANCH   8  10
ENDBRANCH   7   8
ENDBRANCH   5   7
ENDBRANCH   1   2
BRANCH   1  19
ATOM     17  O   UNL     1      47.292   3.094  14.065  0.00  0.00    +0.000 OA
ATOM     18  C   UNL     1      46.862   4.153  14.512  0.00  0.00    +0.000 C 
ATOM     19  N   UNL     1      46.817   4.425  15.857  0.00  0.00    +0.000 N 
ATOM     20  H   UNL     1      46.222   5.180  16.176  0.00  0.00    +0.000 HD
BRANCH  18  21
ATOM     21  C   UNL     1      46.415   5.234  13.627  0.00  0.00    +0.000 A 
ATOM     22  C   UNL     1      47.244   6.317  13.370  0.00  0.00    +0.000 A 
ATOM     23  S   UNL     1      46.532   7.492  12.357  0.00  0.00    +0.000 S 
ATOM     24  C   UNL     1      45.111   6.568  12.190  0.00  0.00    +0.000 A 
ATOM     25  N   UNL     1      44.077   7.001  11.420  0.00  0.00    +0.000 NA
ATOM     26  C   UNL     1      43.081   6.179  11.357  0.00  0.00    +0.000 A 
ATOM     27  N   UNL     1      43.024   4.967  11.992  0.00  0.00    +0.000 N 
ATOM     28  C   UNL     1      44.025   4.510  12.816  0.00  0.00    +0.000 A 
ATOM     29  O   UNL     1      43.907   3.456  13.427  0.00  0.00    +0.000 OA
ATOM     30  C   UNL     1      45.175   5.390  12.908  0.00  0.00    +0.000 A 
ATOM     31  H   UNL     1      42.212   4.375  11.913  0.00  0.00    +0.000 HD
ENDBRANCH  18  21
ENDBRANCH   1  19
TORSDOF 7
ENDMDL
MODEL 9
REMARK VINA RESULT:    -6.619      3.878      8.564
REMARK INTER + INTRA:         -10.143
REMARK INTER:                  -8.610
REMARK INTRA:                  -1.532
REMARK UNBOUND:                -0.814
REMARK  Name = 
REMARK  7 active torsions:
REMARK  status: ('A' for Active; 'I' for Inactive)
REMARK    1  A    between atoms: C_2  and  C_19
REMARK    2  A    between atoms: N_3  and  C_4
REMARK    3  A    between atoms: C_4  and  C_5
REMARK    4  A    between atoms: C_8  and  C_9
REMARK    5  A    between atoms: C_9  and  N_10
REMARK    6  A    between atoms: N_10  and  C_11
REMARK    7  A    between atoms: C_11  and  C_12
REMARK                            x       y       z     vdW  Elec       q    Type
REMARK                         _______ _______ _______ _____ _____    ______ ____
ROOT
ATOM      1  C   UNL     1      49.240   7.209  15.174  0.00  0.00    +0.000 C 
ENDROOT
BRANCH   1   2
ATOM      2  C   UNL     1      48.848   8.096  16.307  0.00  0.00    +0.000 C 
ATOM      3  C   UNL     1      48.018   9.145  16.249  0.00  0.00    +0.000 C 
ATOM      4  C   UNL     1      47.903   9.845  17.560  0.00  0.00    +0.000 C 
ATOM      5  C   UNL     1      48.575   8.879  18.553  0.00  0.00    +0.000 C 
ATOM      6  C   UNL     1      49.403   7.906  17.686  0.00  0.00    +0.000 C 
BRANCH   5   7
ATOM      7  C   UNL     1      47.531   8.154  19.427  0.00  0.00    +0.000 C 
BRANCH   7   8
ATOM      8  N   UNL     1      47.916   6.755  19.628  0.00  0.00    +0.000 NA
ATOM      9  H   UNL     1      47.958   6.543  20.624  0.00  0.00    +0.000 HD
BRANCH   8  10
ATOM     10  C   UNL     1      46.982   5.835  18.982  0.00  0.00    +0.000 C 
BRANCH  10  11
ATOM     11  C   UNL     1      47.719   4.733  18.269  0.00  0.00    +0.000 A 
ATOM     12  C   UNL     1      47.173   4.088  17.155  0.00  0.00    +0.000 A 
ATOM     13  C   UNL     1      47.879   3.065  16.530  0.00  0.00    +0.000 A 
ATOM     14  C   UNL     1      49.116   2.715  17.043  0.00  0.00    +0.000 A 
ATOM     15  N   UNL     1      49.679   3.310  18.118  0.00  0.00    +0.000 NA
ATOM     16  C   UNL     1      48.967   4.300  18.705  0.00  0.00    +0.000 A 
ENDBRANCH  10  11
ENDBRANCH   8  10
ENDBRANCH   7   8
ENDBRANCH   5   7
ENDBRANCH   1   2
BRANCH   1  19
ATOM     17  O   UNL     1      48.709   6.641  12.499  0.00  0.00    +0.000 OA
ATOM     18  C   UNL     1      47.908   6.266  13.350  0.00  0.00    +0.000 C 
ATOM     19  N   UNL     1      48.053   6.562  14.683  0.00  0.00    +0.000 N 
ATOM     20  H   UNL     1      47.527   6.017  15.357  0.00  0.00    +0.000 HD
BRANCH  18  21
ATOM     21  C   UNL     1      46.700   5.516  12.990  0.00  0.00    +0.000 A 
ATOM     22  C   UNL     1      46.612   4.158  13.262  0.00  0.00    +0.000 A 
ATOM     23  S   UNL     1      45.151   3.453  12.728  0.00  0.00    +0.000 S 
ATOM     24  C   UNL     1      44.570   4.949  12.161  0.00  0.00    +0.000 A 
ATOM     25  N   UNL     1      43.340   5.056  11.591  0.00  0.00    +0.000 NA
ATOM     26  C   UNL     1      43.018   6.259  11.242  0.00  0.00    +0.000 A 
ATOM     27  N   UNL     1      43.812   7.362  11.410  0.00  0.00    +0.000 N 
ATOM     28  C   UNL     1      45.079   7.295  11.940  0.00  0.00    +0.000 A 
ATOM     29  O   UNL     1      45.788   8.290  12.006  0.00  0.00    +0.000 OA
ATOM     30  C   UNL     1      45.482   5.967  12.363  0.00  0.00    +0.000 A 
ATOM     31  H   UNL     1      43.508   8.274  11.106  0.00  0.00    +0.000 HD
ENDBRANCH  18  21
ENDBRANCH   1  19
TORSDOF 7
ENDMDL
