MODEL 1
REMARK VINA RESULT:    -6.953      0.000      0.000
REMARK INTER + INTRA:         -10.977
REMARK INTER:                  -9.798
REMARK INTRA:                  -1.178
REMARK UNBOUND:                -1.178
REMARK  Name = 
REMARK  9 active torsions:
REMARK  status: ('A' for Active; 'I' for Inactive)
REMARK    1  A    between atoms: C_1  and  O_2
REMARK    2  A    between atoms: O_2  and  C_3
REMARK    3  A    between atoms: C_10  and  C_11
REMARK    4  A    between atoms: N_13  and  C_14
REMARK    5  A    between atoms: C_14  and  C_15
REMARK    6  A    between atoms: C_18  and  N_19
REMARK    7  A    between atoms: N_19  and  C_20
REMARK    8  A    between atoms: C_20  and  C_21
REMARK    9  A    between atoms: N_24  and  C_25
REMARK                            x       y       z     vdW  Elec       q    Type
REMARK                         _______ _______ _______ _____ _____    ______ ____
ROOT
ATOM      1  C   UNL     1      48.961   7.340  13.842  0.00  0.00    +0.000 C 
ENDROOT
BRANCH   1   2
ATOM      2  C   UNL     1      47.799   6.588  13.243  0.00  0.00    +0.000 A 
ATOM      3  C   UNL     1      47.268   5.468  13.893  0.00  0.00    +0.000 A 
ATOM      4  C   UNL     1      46.257   4.709  13.293  0.00  0.00    +0.000 A 
ATOM      5  C   UNL     1      45.732   5.065  12.047  0.00  0.00    +0.000 A 
ATOM      6  C   UNL     1      46.271   6.187  11.404  0.00  0.00    +0.000 A 
ATOM      7  C   UNL     1      47.285   6.947  11.995  0.00  0.00    +0.000 A 
BRANCH   5   8
ATOM      8  N   UNL     1      44.762   4.220  11.467  0.00  0.00    +0.000 N 
ATOM      9  H   UNL     1      44.176   3.833  12.208  0.00  0.00    +0.000 HD
BRANCH   8  10
ATOM     10  C   UNL     1      45.284   3.172  10.595  0.00  0.00    +0.000 C 
BRANCH  10  11
ATOM     11  C   UNL     1      44.401   2.925   9.358  0.00  0.00    +0.000 C 
ATOM     12  C   UNL     1      44.690   1.521   8.798  0.00  0.00    +0.000 C 
ATOM     13  C   UNL     1      46.126   1.410   8.271  0.00  0.00    +0.000 C 
ATOM     14  N   UNL     1      46.434   2.436   7.266  0.00  0.00    +0.000 NA
ATOM     15  C   UNL     1      47.859   2.388   6.926  0.00  0.00    +0.000 C 
ATOM     16  C   UNL     1      46.070   3.806   7.666  0.00  0.00    +0.000 C 
ATOM     17  C   UNL     1      44.649   3.918   8.216  0.00  0.00    +0.000 C 
ENDBRANCH  10  11
ENDBRANCH   8  10
ENDBRANCH   5   8
ENDBRANCH   1   2
BRANCH   1  20
ATOM     18  C   UNL     1      50.140   7.224  16.000  0.00  0.00    +0.000 C 
ATOM     19  O   UNL     1      51.218   7.408  15.443  0.00  0.00    +0.000 OA
ATOM     20  N   UNL     1      48.971   7.184  15.282  0.00  0.00    +0.000 N 
ATOM     21  H   UNL     1      48.109   6.916  15.732  0.00  0.00    +0.000 HD
BRANCH  18  29
ATOM     22  C   UNL     1      48.910   4.716  18.035  0.00  0.00    +0.000 A 
ATOM     23  N   UNL     1      48.519   3.920  19.052  0.00  0.00    +0.000 NA
ATOM     24  C   UNL     1      48.719   4.343  20.303  0.00  0.00    +0.000 A 
ATOM     25  N   UNL     1      49.273   5.493  20.676  0.00  0.00    +0.000 NA
ATOM     26  C   UNL     1      49.656   6.252  19.635  0.00  0.00    +0.000 A 
ATOM     27  S   UNL     1      50.384   7.755  19.931  0.00  0.00    +0.000 S 
ATOM     28  C   UNL     1      50.544   8.059  18.270  0.00  0.00    +0.000 A 
ATOM     29  C   UNL     1      50.060   7.037  17.457  0.00  0.00    +0.000 A 
ATOM     30  C   UNL     1      49.524   5.956  18.280  0.00  0.00    +0.000 A 
BRANCH  22  32
ATOM     31  C   UNL     1      48.481   2.838  16.718  0.00  0.00    +0.000 C 
ATOM     32  O   UNL     1      48.740   4.244  16.750  0.00  0.00    +0.000 OA
ENDBRANCH  22  32
ENDBRANCH  18  29
ENDBRANCH   1  20
TORSDOF 7
ENDMDL
MODEL 2
REMARK VINA RESULT:    -6.862      4.666      9.378
REMARK INTER + INTRA:         -10.848
REMARK INTER:                  -9.958
REMARK INTRA:                  -0.890
REMARK UNBOUND:                -1.178
REMARK  Name = 
REMARK  9 active torsions:
REMARK  status: ('A' for Active; 'I' for Inactive)
REMARK    1  A    between atoms: C_1  and  O_2
REMARK    2  A    between atoms: O_2  and  C_3
REMARK    3  A    between atoms: C_10  and  C_11
REMARK    4  A    between atoms: N_13  and  C_14
REMARK    5  A    between atoms: C_14  and  C_15
REMARK    6  A    between atoms: C_18  and  N_19
REMARK    7  A    between atoms: N_19  and  C_20
REMARK    8  A    between atoms: C_20  and  C_21
REMARK    9  A    between atoms: N_24  and  C_25
REMARK                            x       y       z     vdW  Elec       q    Type
REMARK                         _______ _______ _______ _____ _____    ______ ____
ROOT
ATOM      1  C   UNL     1      47.284   3.294  16.869  0.00  0.00    +0.000 C 
ENDROOT
BRANCH   1   2
ATOM      2  C   UNL     1      48.779   3.262  17.063  0.00  0.00    +0.000 A 
ATOM      3  C   UNL     1      49.491   2.069  16.896  0.00  0.00    +0.000 A 
ATOM      4  C   UNL     1      50.861   2.012  17.173  0.00  0.00    +0.000 A 
ATOM      5  C   UNL     1      51.560   3.147  17.594  0.00  0.00    +0.000 A 
ATOM      6  C   UNL     1      50.838   4.338  17.760  0.00  0.00    +0.000 A 
ATOM      7  C   UNL     1      49.467   4.400  17.491  0.00  0.00    +0.000 A 
BRANCH   5   8
ATOM      8  N   UNL     1      52.925   3.007  17.921  0.00  0.00    +0.000 N 
ATOM      9  H   UNL     1      53.472   3.626  17.322  0.00  0.00    +0.000 HD
BRANCH   8  10
ATOM     10  C   UNL     1      53.441   1.642  17.893  0.00  0.00    +0.000 C 
BRANCH  10  11
ATOM     11  C   UNL     1      54.958   1.577  17.638  0.00  0.00    +0.000 C 
ATOM     12  C   UNL     1      55.220   0.854  16.306  0.00  0.00    +0.000 C 
ATOM     13  C   UNL     1      54.781  -0.615  16.367  0.00  0.00    +0.000 C 
ATOM     14  N   UNL     1      55.410  -1.341  17.477  0.00  0.00    +0.000 NA
ATOM     15  C   UNL     1      54.828  -2.682  17.589  0.00  0.00    +0.000 C 
ATOM     16  C   UNL     1      55.320  -0.656  18.779  0.00  0.00    +0.000 C 
ATOM     17  C   UNL     1      55.733   0.814  18.718  0.00  0.00    +0.000 C 
ENDBRANCH  10  11
ENDBRANCH   8  10
ENDBRANCH   5   8
ENDBRANCH   1   2
BRANCH   1  20
ATOM     18  C   UNL     1      46.949   4.158  14.588  0.00  0.00    +0.000 C 
ATOM     19  O   UNL     1      47.269   3.075  14.110  0.00  0.00    +0.000 OA
ATOM     20  N   UNL     1      46.921   4.351  15.947  0.00  0.00    +0.000 N 
ATOM     21  H   UNL     1      46.772   5.274  16.324  0.00  0.00    +0.000 HD
BRANCH  18  29
ATOM     22  C   UNL     1      44.188   4.911  12.650  0.00  0.00    +0.000 A 
ATOM     23  N   UNL     1      43.267   5.454  11.826  0.00  0.00    +0.000 NA
ATOM     24  C   UNL     1      43.539   6.632  11.258  0.00  0.00    +0.000 A 
ATOM     25  N   UNL     1      44.644   7.354  11.411  0.00  0.00    +0.000 NA
ATOM     26  C   UNL     1      45.532   6.783  12.244  0.00  0.00    +0.000 A 
ATOM     27  S   UNL     1      47.002   7.572  12.553  0.00  0.00    +0.000 S 
ATOM     28  C   UNL     1      47.508   6.325  13.586  0.00  0.00    +0.000 A 
ATOM     29  C   UNL     1      46.584   5.293  13.725  0.00  0.00    +0.000 A 
ATOM     30  C   UNL     1      45.401   5.569  12.915  0.00  0.00    +0.000 A 
BRANCH  22  32
ATOM     31  C   UNL     1      43.588   2.680  12.324  0.00  0.00    +0.000 C 
ATOM     32  O   UNL     1      43.873   3.717  13.265  0.00  0.00    +0.000 OA
ENDBRANCH  22  32
ENDBRANCH  18  29
ENDBRANCH   1  20
TORSDOF 7
ENDMDL
MODEL 3
REMARK VINA RESULT:    -6.634      5.159      7.819
REMARK INTER + INTRA:         -10.527
REMARK INTER:                  -9.530
REMARK INTRA:                  -0.997
REMARK UNBOUND:                -1.178
REMARK  Name = 
REMARK  9 active torsions:
REMARK  status: ('A' for Active; 'I' for Inactive)
REMARK    1  A    between atoms: C_1  and  O_2
REMARK    2  A    between atoms: O_2  and  C_3
REMARK    3  A    between atoms: C_10  and  C_11
REMARK    4  A    between atoms: N_13  and  C_14
REMARK    5  A    between atoms: C_14  and  C_15
REMARK    6  A    between atoms: C_18  and  N_19
REMARK    7  A    between atoms: N_19  and  C_20
REMARK    8  A    between atoms: C_20  and  C_21
REMARK    9  A    between atoms: N_24  and  C_25
REMARK                            x       y       z     vdW  Elec       q    Type
REMARK                         _______ _______ _______ _____ _____    ______ ____
ROOT
ATOM      1  C   UNL     1      50.623   8.262  11.642  0.00  0.00    +0.000 C 
ENDROOT
BRANCH   1   2
ATOM      2  C   UNL     1      49.392   7.564  12.162  0.00  0.00    +0.000 A 
ATOM      3  C   UNL     1      48.273   7.392  11.338  0.00  0.00    +0.000 A 
ATOM      4  C   UNL     1      47.094   6.835  11.847  0.00  0.00    +0.000 A 
ATOM      5  C   UNL     1      47.012   6.411  13.176  0.00  0.00    +0.000 A 
ATOM      6  C   UNL     1      48.137   6.589  13.993  0.00  0.00    +0.000 A 
ATOM      7  C   UNL     1      49.316   7.150  13.493  0.00  0.00    +0.000 A 
BRANCH   5   8
ATOM      8  N   UNL     1      45.773   5.921  13.644  0.00  0.00    +0.000 N 
ATOM      9  H   UNL     1      45.748   6.008  14.660  0.00  0.00    +0.000 HD
BRANCH   8  10
ATOM     10  C   UNL     1      45.431   4.569  13.214  0.00  0.00    +0.000 C 
BRANCH  10  11
ATOM     11  C   UNL     1      43.919   4.373  12.994  0.00  0.00    +0.000 C 
ATOM     12  C   UNL     1      43.674   3.008  12.329  0.00  0.00    +0.000 C 
ATOM     13  C   UNL     1      44.274   2.954  10.918  0.00  0.00    +0.000 C 
ATOM     14  N   UNL     1      43.782   4.039  10.059  0.00  0.00    +0.000 NA
ATOM     15  C   UNL     1      44.512   4.038   8.788  0.00  0.00    +0.000 C 
ATOM     16  C   UNL     1      43.859   5.378  10.669  0.00  0.00    +0.000 C 
ATOM     17  C   UNL     1      43.286   5.432  12.084  0.00  0.00    +0.000 C 
ENDBRANCH  10  11
ENDBRANCH   8  10
ENDBRANCH   5   8
ENDBRANCH   1   2
BRANCH   1  20
ATOM     18  C   UNL     1      52.538   7.608  10.239  0.00  0.00    +0.000 C 
ATOM     19  O   UNL     1      52.594   8.734   9.756  0.00  0.00    +0.000 OA
ATOM     20  N   UNL     1      51.596   7.291  11.187  0.00  0.00    +0.000 N 
ATOM     21  H   UNL     1      51.484   6.335  11.488  0.00  0.00    +0.000 HD
BRANCH  18  29
ATOM     22  C   UNL     1      53.091   5.927   7.270  0.00  0.00    +0.000 A 
ATOM     23  N   UNL     1      53.518   5.126   6.271  0.00  0.00    +0.000 NA
ATOM     24  C   UNL     1      54.503   4.261   6.528  0.00  0.00    +0.000 A 
ATOM     25  N   UNL     1      55.130   4.088   7.687  0.00  0.00    +0.000 NA
ATOM     26  C   UNL     1      54.681   4.909   8.653  0.00  0.00    +0.000 A 
ATOM     27  S   UNL     1      55.374   4.824  10.199  0.00  0.00    +0.000 S 
ATOM     28  C   UNL     1      54.353   6.049  10.776  0.00  0.00    +0.000 A 
ATOM     29  C   UNL     1      53.475   6.553   9.820  0.00  0.00    +0.000 A 
ATOM     30  C   UNL     1      53.672   5.864   8.548  0.00  0.00    +0.000 A 
BRANCH  22  32
ATOM     31  C   UNL     1      52.634   8.037   6.386  0.00  0.00    +0.000 C 
ATOM     32  O   UNL     1      52.106   6.847   6.977  0.00  0.00    +0.000 OA
ENDBRANCH  22  32
ENDBRANCH  18  29
ENDBRANCH   1  20
TORSDOF 7
ENDMDL
MODEL 4
REMARK VINA RESULT:    -6.569      3.695      9.235
REMARK INTER + INTRA:         -10.435
REMARK INTER:                  -9.264
REMARK INTRA:                  -1.171
REMARK UNBOUND:                -1.178
REMARK  Name = 
REMARK  9 active torsions:
REMARK  status: ('A' for Active; 'I' for Inactive)
REMARK    1  A    between atoms: C_1  and  O_2
REMARK    2  A    between atoms: O_2  and  C_3
REMARK    3  A    between atoms: C_10  and  C_11
REMARK    4  A    between atoms: N_13  and  C_14
REMARK    5  A    between atoms: C_14  and  C_15
REMARK    6  A    between atoms: C_18  and  N_19
REMARK    7  A    between atoms: N_19  and  C_20
REMARK    8  A    between atoms: C_20  and  C_21
REMARK    9  A    between atoms: N_24  and  C_25
REMARK                            x       y       z     vdW  Elec       q    Type
REMARK                         _______ _______ _______ _____ _____    ______ ____
ROOT
ATOM      1  C   UNL     1      47.219   3.276  16.786  0.00  0.00    +0.000 C 
ENDROOT
BRANCH   1   2
ATOM      2  C   UNL     1      48.703   3.343  17.041  0.00  0.00    +0.000 A 
ATOM      3  C   UNL     1      49.490   2.187  16.967  0.00  0.00    +0.000 A 
ATOM      4  C   UNL     1      50.848   2.227  17.301  0.00  0.00    +0.000 A 
ATOM      5  C   UNL     1      51.460   3.422  17.687  0.00  0.00    +0.000 A 
ATOM      6  C   UNL     1      50.665   4.574  17.760  0.00  0.00    +0.000 A 
ATOM      7  C   UNL     1      49.306   4.541  17.433  0.00  0.00    +0.000 A 
BRANCH   5   8
ATOM      8  N   UNL     1      52.817   3.382  18.075  0.00  0.00    +0.000 N 
ATOM      9  H   UNL     1      52.968   2.556  18.655  0.00  0.00    +0.000 HD
BRANCH   8  10
ATOM     10  C   UNL     1      53.321   4.589  18.722  0.00  0.00    +0.000 C 
BRANCH  10  11
ATOM     11  C   UNL     1      54.625   5.110  18.089  0.00  0.00    +0.000 C 
ATOM     12  C   UNL     1      55.005   6.452  18.737  0.00  0.00    +0.000 C 
ATOM     13  C   UNL     1      53.968   7.540  18.426  0.00  0.00    +0.000 C 
ATOM     14  N   UNL     1      53.752   7.711  16.984  0.00  0.00    +0.000 NA
ATOM     15  C   UNL     1      52.638   8.635  16.753  0.00  0.00    +0.000 C 
ATOM     16  C   UNL     1      53.506   6.454  16.254  0.00  0.00    +0.000 C 
ATOM     17  C   UNL     1      54.521   5.358  16.580  0.00  0.00    +0.000 C 
ENDBRANCH  10  11
ENDBRANCH   8  10
ENDBRANCH   5   8
ENDBRANCH   1   2
BRANCH   1  20
ATOM     18  C   UNL     1      46.889   4.203  14.529  0.00  0.00    +0.000 C 
ATOM     19  O   UNL     1      47.289   3.161  14.021  0.00  0.00    +0.000 OA
ATOM     20  N   UNL     1      46.815   4.342  15.893  0.00  0.00    +0.000 N 
ATOM     21  H   UNL     1      46.598   5.239  16.299  0.00  0.00    +0.000 HD
BRANCH  18  29
ATOM     22  C   UNL     1      44.095   4.897  12.617  0.00  0.00    +0.000 A 
ATOM     23  N   UNL     1      43.151   5.426  11.810  0.00  0.00    +0.000 NA
ATOM     24  C   UNL     1      43.373   6.628  11.274  0.00  0.00    +0.000 A 
ATOM     25  N   UNL     1      44.450   7.390  11.444  0.00  0.00    +0.000 NA
ATOM     26  C   UNL     1      45.362   6.832  12.260  0.00  0.00    +0.000 A 
ATOM     27  S   UNL     1      46.800   7.671  12.588  0.00  0.00    +0.000 S 
ATOM     28  C   UNL     1      47.359   6.417  13.585  0.00  0.00    +0.000 A 
ATOM     29  C   UNL     1      46.477   5.345  13.698  0.00  0.00    +0.000 A 
ATOM     30  C   UNL     1      45.281   5.596  12.898  0.00  0.00    +0.000 A 
BRANCH  22  32
ATOM     31  C   UNL     1      43.457   2.685  12.239  0.00  0.00    +0.000 C 
ATOM     32  O   UNL     1      43.830   3.676  13.200  0.00  0.00    +0.000 OA
ENDBRANCH  22  32
ENDBRANCH  18  29
ENDBRANCH   1  20
TORSDOF 7
ENDMDL
MODEL 5
REMARK VINA RESULT:    -6.488      2.843      3.838
REMARK INTER + INTRA:         -10.321
REMARK INTER:                  -9.250
REMARK INTRA:                  -1.071
REMARK UNBOUND:                -1.178
REMARK  Name = 
REMARK  9 active torsions:
REMARK  status: ('A' for Active; 'I' for Inactive)
REMARK    1  A    between atoms: C_1  and  O_2
REMARK    2  A    between atoms: O_2  and  C_3
REMARK    3  A    between atoms: C_10  and  C_11
REMARK    4  A    between atoms: N_13  and  C_14
REMARK    5  A    between atoms: C_14  and  C_15
REMARK    6  A    between atoms: C_18  and  N_19
REMARK    7  A    between atoms: N_19  and  C_20
REMARK    8  A    between atoms: C_20  and  C_21
REMARK    9  A    between atoms: N_24  and  C_25
REMARK                            x       y       z     vdW  Elec       q    Type
REMARK                         _______ _______ _______ _____ _____    ______ ____
ROOT
ATOM      1  C   UNL     1      50.756   7.496  16.270  0.00  0.00    +0.000 C 
ENDROOT
BRANCH   1   2
ATOM      2  C   UNL     1      49.663   7.092  15.313  0.00  0.00    +0.000 A 
ATOM      3  C   UNL     1      48.634   6.239  15.729  0.00  0.00    +0.000 A 
ATOM      4  C   UNL     1      47.676   5.781  14.818  0.00  0.00    +0.000 A 
ATOM      5  C   UNL     1      47.702   6.185  13.481  0.00  0.00    +0.000 A 
ATOM      6  C   UNL     1      48.737   7.038  13.072  0.00  0.00    +0.000 A 
ATOM      7  C   UNL     1      49.701   7.495  13.976  0.00  0.00    +0.000 A 
BRANCH   5   8
ATOM      8  N   UNL     1      46.747   5.635  12.599  0.00  0.00    +0.000 N 
ATOM      9  H   UNL     1      46.354   6.385  12.030  0.00  0.00    +0.000 HD
BRANCH   8  10
ATOM     10  C   UNL     1      45.700   4.835  13.227  0.00  0.00    +0.000 C 
BRANCH  10  11
ATOM     11  C   UNL     1      44.283   5.263  12.806  0.00  0.00    +0.000 C 
ATOM     12  C   UNL     1      43.337   4.054  12.898  0.00  0.00    +0.000 C 
ATOM     13  C   UNL     1      43.720   2.962  11.891  0.00  0.00    +0.000 C 
ATOM     14  N   UNL     1      43.775   3.465  10.513  0.00  0.00    +0.000 NA
ATOM     15  C   UNL     1      44.308   2.428   9.624  0.00  0.00    +0.000 C 
ATOM     16  C   UNL     1      44.559   4.702  10.350  0.00  0.00    +0.000 C 
ATOM     17  C   UNL     1      44.198   5.785  11.366  0.00  0.00    +0.000 C 
ENDBRANCH  10  11
ENDBRANCH   8  10
ENDBRANCH   5   8
ENDBRANCH   1   2
BRANCH   1  20
ATOM     18  C   UNL     1      51.430   5.814  17.937  0.00  0.00    +0.000 C 
ATOM     19  O   UNL     1      50.676   6.308  18.769  0.00  0.00    +0.000 OA
ATOM     20  N   UNL     1      51.526   6.336  16.671  0.00  0.00    +0.000 N 
ATOM     21  H   UNL     1      52.232   5.998  16.036  0.00  0.00    +0.000 HD
BRANCH  18  29
ATOM     22  C   UNL     1      51.138   2.418  17.367  0.00  0.00    +0.000 A 
ATOM     23  N   UNL     1      51.285   1.078  17.295  0.00  0.00    +0.000 NA
ATOM     24  C   UNL     1      52.365   0.527  17.855  0.00  0.00    +0.000 A 
ATOM     25  N   UNL     1      53.340   1.161  18.498  0.00  0.00    +0.000 NA
ATOM     26  C   UNL     1      53.160   2.492  18.542  0.00  0.00    +0.000 A 
ATOM     27  S   UNL     1      54.314   3.458  19.326  0.00  0.00    +0.000 S 
ATOM     28  C   UNL     1      53.438   4.869  18.980  0.00  0.00    +0.000 A 
ATOM     29  C   UNL     1      52.264   4.647  18.265  0.00  0.00    +0.000 A 
ATOM     30  C   UNL     1      52.099   3.219  18.007  0.00  0.00    +0.000 A 
BRANCH  22  32
ATOM     31  C   UNL     1      48.899   3.035  17.599  0.00  0.00    +0.000 C 
ATOM     32  O   UNL     1      50.042   2.977  16.742  0.00  0.00    +0.000 OA
ENDBRANCH  22  32
ENDBRANCH  18  29
ENDBRANCH   1  20
TORSDOF 7
ENDMDL
MODEL 6
REMARK VINA RESULT:    -6.460      3.430      8.455
REMARK INTER + INTRA:         -10.282
REMARK INTER:                  -8.754
REMARK INTRA:                  -1.528
REMARK UNBOUND:                -1.178
REMARK  Name = 
REMARK  9 active torsions:
REMARK  status: ('A' for Active; 'I' for Inactive)
REMARK    1  A    between atoms: C_1  and  O_2
REMARK    2  A    between atoms: O_2  and  C_3
REMARK    3  A    between atoms: C_10  and  C_11
REMARK    4  A    between atoms: N_13  and  C_14
REMARK    5  A    between atoms: C_14  and  C_15
REMARK    6  A    between atoms: C_18  and  N_19
REMARK    7  A    between atoms: N_19  and  C_20
REMARK    8  A    between atoms: C_20  and  C_21
REMARK    9  A    between atoms: N_24  and  C_25
REMARK                            x       y       z     vdW  Elec       q    Type
REMARK                         _______ _______ _______ _____ _____    ______ ____
ROOT
ATOM      1  C   UNL     1      48.328   8.057  11.811  0.00  0.00    +0.000 C 
ENDROOT
BRANCH   1   2
ATOM      2  C   UNL     1      48.447   7.959  13.311  0.00  0.00    +0.000 A 
ATOM      3  C   UNL     1      47.796   8.884  14.137  0.00  0.00    +0.000 A 
ATOM      4  C   UNL     1      47.985   8.858  15.523  0.00  0.00    +0.000 A 
ATOM      5  C   UNL     1      48.801   7.894  16.121  0.00  0.00    +0.000 A 
ATOM      6  C   UNL     1      49.450   6.973  15.287  0.00  0.00    +0.000 A 
ATOM      7  C   UNL     1      49.271   6.997  13.900  0.00  0.00    +0.000 A 
BRANCH   5   8
ATOM      8  N   UNL     1      49.004   7.964  17.516  0.00  0.00    +0.000 N 
ATOM      9  H   UNL     1      49.452   8.853  17.739  0.00  0.00    +0.000 HD
BRANCH   8  10
ATOM     10  C   UNL     1      49.724   6.839  18.103  0.00  0.00    +0.000 C 
BRANCH  10  11
ATOM     11  C   UNL     1      48.933   6.137  19.222  0.00  0.00    +0.000 C 
ATOM     12  C   UNL     1      49.626   4.811  19.580  0.00  0.00    +0.000 C 
ATOM     13  C   UNL     1      49.587   3.821  18.408  0.00  0.00    +0.000 C 
ATOM     14  N   UNL     1      48.221   3.574  17.930  0.00  0.00    +0.000 NA
ATOM     15  C   UNL     1      48.260   2.762  16.710  0.00  0.00    +0.000 C 
ATOM     16  C   UNL     1      47.434   4.795  17.681  0.00  0.00    +0.000 C 
ATOM     17  C   UNL     1      47.490   5.795  18.836  0.00  0.00    +0.000 C 
ENDBRANCH  10  11
ENDBRANCH   8  10
ENDBRANCH   5   8
ENDBRANCH   1   2
BRANCH   1  20
ATOM     18  C   UNL     1      46.233   6.911  11.213  0.00  0.00    +0.000 C 
ATOM     19  O   UNL     1      45.576   7.883  11.570  0.00  0.00    +0.000 OA
ATOM     20  N   UNL     1      47.604   6.916  11.291  0.00  0.00    +0.000 N 
ATOM     21  H   UNL     1      48.124   6.072  11.107  0.00  0.00    +0.000 HD
BRANCH  18  29
ATOM     22  C   UNL     1      44.481   4.309  12.664  0.00  0.00    +0.000 A 
ATOM     23  N   UNL     1      43.779   3.191  12.947  0.00  0.00    +0.000 NA
ATOM     24  C   UNL     1      43.447   2.378  11.941  0.00  0.00    +0.000 A 
ATOM     25  N   UNL     1      43.738   2.542  10.655  0.00  0.00    +0.000 NA
ATOM     26  C   UNL     1      44.430   3.669  10.414  0.00  0.00    +0.000 A 
ATOM     27  S   UNL     1      44.885   4.036   8.821  0.00  0.00    +0.000 S 
ATOM     28  C   UNL     1      45.651   5.466   9.319  0.00  0.00    +0.000 A 
ATOM     29  C   UNL     1      45.578   5.701  10.690  0.00  0.00    +0.000 A 
ATOM     30  C   UNL     1      44.848   4.619  11.344  0.00  0.00    +0.000 A 
BRANCH  22  32
ATOM     31  C   UNL     1      46.108   4.989  14.192  0.00  0.00    +0.000 C 
ATOM     32  O   UNL     1      44.775   5.163  13.707  0.00  0.00    +0.000 OA
ENDBRANCH  22  32
ENDBRANCH  18  29
ENDBRANCH   1  20
TORSDOF 7
ENDMDL
MODEL 7
REMARK VINA RESULT:    -6.097      5.347      7.985
REMARK INTER + INTRA:          -9.771
REMARK INTER:                  -8.687
REMARK INTRA:                  -1.084
REMARK UNBOUND:                -1.178
REMARK  Name = 
REMARK  9 active torsions:
REMARK  status: ('A' for Active; 'I' for Inactive)
REMARK    1  A    between atoms: C_1  and  O_2
REMARK    2  A    between atoms: O_2  and  C_3
REMARK    3  A    between atoms: C_10  and  C_11
REMARK    4  A    between atoms: N_13  and  C_14
REMARK    5  A    between atoms: C_14  and  C_15
REMARK    6  A    between atoms: C_18  and  N_19
REMARK    7  A    between atoms: N_19  and  C_20
REMARK    8  A    between atoms: C_20  and  C_21
REMARK    9  A    between atoms: N_24  and  C_25
REMARK                            x       y       z     vdW  Elec       q    Type
REMARK                         _______ _______ _______ _____ _____    ______ ____
ROOT
ATOM      1  C   UNL     1      51.282   8.496  12.082  0.00  0.00    +0.000 C 
ENDROOT
BRANCH   1   2
ATOM      2  C   UNL     1      49.968   7.875  12.482  0.00  0.00    +0.000 A 
ATOM      3  C   UNL     1      48.925   7.763  11.556  0.00  0.00    +0.000 A 
ATOM      4  C   UNL     1      47.672   7.280  11.949  0.00  0.00    +0.000 A 
ATOM      5  C   UNL     1      47.438   6.869  13.264  0.00  0.00    +0.000 A 
ATOM      6  C   UNL     1      48.488   6.986  14.185  0.00  0.00    +0.000 A 
ATOM      7  C   UNL     1      49.741   7.474  13.801  0.00  0.00    +0.000 A 
BRANCH   5   8
ATOM      8  N   UNL     1      46.134   6.455  13.612  0.00  0.00    +0.000 N 
ATOM      9  H   UNL     1      46.093   6.312  14.622  0.00  0.00    +0.000 HD
BRANCH   8  10
ATOM     10  C   UNL     1      45.630   5.294  12.886  0.00  0.00    +0.000 C 
BRANCH  10  11
ATOM     11  C   UNL     1      44.107   5.339  12.663  0.00  0.00    +0.000 C 
ATOM     12  C   UNL     1      43.521   3.931  12.860  0.00  0.00    +0.000 C 
ATOM     13  C   UNL     1      44.034   2.954  11.793  0.00  0.00    +0.000 C 
ATOM     14  N   UNL     1      43.776   3.430  10.428  0.00  0.00    +0.000 NA
ATOM     15  C   UNL     1      44.433   2.548   9.460  0.00  0.00    +0.000 C 
ATOM     16  C   UNL     1      44.190   4.823  10.183  0.00  0.00    +0.000 C 
ATOM     17  C   UNL     1      43.703   5.796  11.256  0.00  0.00    +0.000 C 
ENDBRANCH  10  11
ENDBRANCH   8  10
ENDBRANCH   5   8
ENDBRANCH   1   2
BRANCH   1  20
ATOM     18  C   UNL     1      52.646   8.741  10.047  0.00  0.00    +0.000 C 
ATOM     19  O   UNL     1      53.334   9.601  10.588  0.00  0.00    +0.000 OA
ATOM     20  N   UNL     1      51.613   8.136  10.719  0.00  0.00    +0.000 N 
ATOM     21  H   UNL     1      50.984   7.519  10.229  0.00  0.00    +0.000 HD
BRANCH  18  29
ATOM     22  C   UNL     1      53.553   5.757   8.557  0.00  0.00    +0.000 A 
ATOM     23  N   UNL     1      53.898   4.755   7.721  0.00  0.00    +0.000 NA
ATOM     24  C   UNL     1      53.992   5.021   6.416  0.00  0.00    +0.000 A 
ATOM     25  N   UNL     1      53.783   6.193   5.824  0.00  0.00    +0.000 NA
ATOM     26  C   UNL     1      53.434   7.161   6.689  0.00  0.00    +0.000 A 
ATOM     27  S   UNL     1      53.128   8.723   6.102  0.00  0.00    +0.000 S 
ATOM     28  C   UNL     1      52.794   9.296   7.663  0.00  0.00    +0.000 A 
ATOM     29  C   UNL     1      52.900   8.327   8.658  0.00  0.00    +0.000 A 
ATOM     30  C   UNL     1      53.288   7.048   8.070  0.00  0.00    +0.000 A 
BRANCH  22  32
ATOM     31  C   UNL     1      54.643   5.588  10.613  0.00  0.00    +0.000 C 
ATOM     32  O   UNL     1      53.413   5.456   9.896  0.00  0.00    +0.000 OA
ENDBRANCH  22  32
ENDBRANCH  18  29
ENDBRANCH   1  20
TORSDOF 7
ENDMDL
MODEL 8
REMARK VINA RESULT:    -6.003      3.819      9.764
REMARK INTER + INTRA:          -9.639
REMARK INTER:                  -8.618
REMARK INTRA:                  -1.021
REMARK UNBOUND:                -1.178
REMARK  Name = 
REMARK  9 active torsions:
REMARK  status: ('A' for Active; 'I' for Inactive)
REMARK    1  A    between atoms: C_1  and  O_2
REMARK    2  A    between atoms: O_2  and  C_3
REMARK    3  A    between atoms: C_10  and  C_11
REMARK    4  A    between atoms: N_13  and  C_14
REMARK    5  A    between atoms: C_14  and  C_15
REMARK    6  A    between atoms: C_18  and  N_19
REMARK    7  A    between atoms: N_19  and  C_20
REMARK    8  A    between atoms: C_20  and  C_21
REMARK    9  A    between atoms: N_24  and  C_25
REMARK                            x       y       z     vdW  Elec       q    Type
REMARK                         _______ _______ _______ _____ _____    ______ ____
ROOT
ATOM      1  C   UNL     1      47.622   3.467  16.734  0.00  0.00    +0.000 C 
ENDROOT
BRANCH   1   2
ATOM      2  C   UNL     1      48.642   4.040  17.686  0.00  0.00    +0.000 A 
ATOM      3  C   UNL     1      49.957   4.269  17.264  0.00  0.00    +0.000 A 
ATOM      4  C   UNL     1      50.929   4.704  18.170  0.00  0.00    +0.000 A 
ATOM      5  C   UNL     1      50.610   4.950  19.508  0.00  0.00    +0.000 A 
ATOM      6  C   UNL     1      49.291   4.716  19.922  0.00  0.00    +0.000 A 
ATOM      7  C   UNL     1      48.315   4.275  19.023  0.00  0.00    +0.000 A 
BRANCH   5   8
ATOM      8  N   UNL     1      51.652   5.323  20.385  0.00  0.00    +0.000 N 
ATOM      9  H   UNL     1      51.362   6.151  20.906  0.00  0.00    +0.000 HD
BRANCH   8  10
ATOM     10  C   UNL     1      52.958   5.512  19.762  0.00  0.00    +0.000 C 
BRANCH  10  11
ATOM     11  C   UNL     1      54.103   4.855  20.556  0.00  0.00    +0.000 C 
ATOM     12  C   UNL     1      55.437   5.115  19.836  0.00  0.00    +0.000 C 
ATOM     13  C   UNL     1      55.480   4.427  18.465  0.00  0.00    +0.000 C 
ATOM     14  N   UNL     1      55.218   2.985  18.555  0.00  0.00    +0.000 NA
ATOM     15  C   UNL     1      55.103   2.415  17.209  0.00  0.00    +0.000 C 
ATOM     16  C   UNL     1      54.023   2.633  19.341  0.00  0.00    +0.000 C 
ATOM     17  C   UNL     1      53.962   3.335  20.697  0.00  0.00    +0.000 C 
ENDBRANCH  10  11
ENDBRANCH   8  10
ENDBRANCH   5   8
ENDBRANCH   1   2
BRANCH   1  20
ATOM     18  C   UNL     1      46.996   4.299  14.503  0.00  0.00    +0.000 C 
ATOM     19  O   UNL     1      47.294   3.223  13.996  0.00  0.00    +0.000 OA
ATOM     20  N   UNL     1      47.120   4.503  15.855  0.00  0.00    +0.000 N 
ATOM     21  H   UNL     1      46.985   5.424  16.242  0.00  0.00    +0.000 HD
BRANCH  18  29
ATOM     22  C   UNL     1      44.139   4.806  12.625  0.00  0.00    +0.000 A 
ATOM     23  N   UNL     1      43.151   5.272  11.832  0.00  0.00    +0.000 NA
ATOM     24  C   UNL     1      43.284   6.489  11.300  0.00  0.00    +0.000 A 
ATOM     25  N   UNL     1      44.307   7.322  11.461  0.00  0.00    +0.000 NA
ATOM     26  C   UNL     1      45.265   6.826  12.263  0.00  0.00    +0.000 A 
ATOM     27  S   UNL     1      46.645   7.760  12.580  0.00  0.00    +0.000 S 
ATOM     28  C   UNL     1      47.301   6.544  13.564  0.00  0.00    +0.000 A 
ATOM     29  C   UNL     1      46.496   5.413  13.681  0.00  0.00    +0.000 A 
ATOM     30  C   UNL     1      45.277   5.584  12.896  0.00  0.00    +0.000 A 
BRANCH  22  32
ATOM     31  C   UNL     1      43.480   2.596  12.276  0.00  0.00    +0.000 C 
ATOM     32  O   UNL     1      43.965   3.567  13.206  0.00  0.00    +0.000 OA
ENDBRANCH  22  32
ENDBRANCH  18  29
ENDBRANCH   1  20
TORSDOF 7
ENDMDL
MODEL 9
REMARK VINA RESULT:    -5.963      5.441      8.312
REMARK INTER + INTRA:          -9.581
REMARK INTER:                  -8.358
REMARK INTRA:                  -1.223
REMARK UNBOUND:                -1.178
REMARK  Name = 
REMARK  9 active torsions:
REMARK  status: ('A' for Active; 'I' for Inactive)
REMARK    1  A    between atoms: C_1  and  O_2
REMARK    2  A    between atoms: O_2  and  C_3
REMARK    3  A    between atoms: C_10  and  C_11
REMARK    4  A    between atoms: N_13  and  C_14
REMARK    5  A    between atoms: C_14  and  C_15
REMARK    6  A    between atoms: C_18  and  N_19
REMARK    7  A    between atoms: N_19  and  C_20
REMARK    8  A    between atoms: C_20  and  C_21
REMARK    9  A    between atoms: N_24  and  C_25
REMARK                            x       y       z     vdW  Elec       q    Type
REMARK                         _______ _______ _______ _____ _____    ______ ____
ROOT
ATOM      1  C   UNL     1      51.029   8.940  11.933  0.00  0.00    +0.000 C 
ENDROOT
BRANCH   1   2
ATOM      2  C   UNL     1      49.840   8.195  12.484  0.00  0.00    +0.000 A 
ATOM      3  C   UNL     1      49.792   7.833  13.836  0.00  0.00    +0.000 A 
ATOM      4  C   UNL     1      48.739   7.055  14.328  0.00  0.00    +0.000 A 
ATOM      5  C   UNL     1      47.694   6.646  13.495  0.00  0.00    +0.000 A 
ATOM      6  C   UNL     1      47.750   7.012  12.143  0.00  0.00    +0.000 A 
ATOM      7  C   UNL     1      48.804   7.784  11.642  0.00  0.00    +0.000 A 
BRANCH   5   8
ATOM      8  N   UNL     1      46.697   5.807  14.038  0.00  0.00    +0.000 N 
ATOM      9  H   UNL     1      47.099   5.278  14.813  0.00  0.00    +0.000 HD
BRANCH   8  10
ATOM     10  C   UNL     1      46.025   4.932  13.083  0.00  0.00    +0.000 C 
BRANCH  10  11
ATOM     11  C   UNL     1      44.576   5.362  12.790  0.00  0.00    +0.000 C 
ATOM     12  C   UNL     1      43.646   4.144  12.920  0.00  0.00    +0.000 C 
ATOM     13  C   UNL     1      43.953   3.085  11.853  0.00  0.00    +0.000 C 
ATOM     14  N   UNL     1      43.895   3.630  10.491  0.00  0.00    +0.000 NA
ATOM     15  C   UNL     1      44.360   2.624   9.531  0.00  0.00    +0.000 C 
ATOM     16  C   UNL     1      44.657   4.877  10.303  0.00  0.00    +0.000 C 
ATOM     17  C   UNL     1      44.374   5.926  11.378  0.00  0.00    +0.000 C 
ENDBRANCH  10  11
ENDBRANCH   8  10
ENDBRANCH   5   8
ENDBRANCH   1   2
BRANCH   1  20
ATOM     18  C   UNL     1      52.729   7.738  10.618  0.00  0.00    +0.000 C 
ATOM     19  O   UNL     1      53.488   7.717  11.581  0.00  0.00    +0.000 OA
ATOM     20  N   UNL     1      51.487   8.317  10.708  0.00  0.00    +0.000 N 
ATOM     21  H   UNL     1      50.921   8.432   9.882  0.00  0.00    +0.000 HD
BRANCH  18  29
ATOM     22  C   UNL     1      52.969   8.953   7.391  0.00  0.00    +0.000 A 
ATOM     23  N   UNL     1      53.147   9.144   6.067  0.00  0.00    +0.000 NA
ATOM     24  C   UNL     1      53.544   8.108   5.324  0.00  0.00    +0.000 A 
ATOM     25  N   UNL     1      53.788   6.872   5.745  0.00  0.00    +0.000 NA
ATOM     26  C   UNL     1      53.607   6.724   7.069  0.00  0.00    +0.000 A 
ATOM     27  S   UNL     1      53.877   5.206   7.777  0.00  0.00    +0.000 S 
ATOM     28  C   UNL     1      53.464   5.796   9.313  0.00  0.00    +0.000 A 
ATOM     29  C   UNL     1      53.120   7.146   9.329  0.00  0.00    +0.000 A 
ATOM     30  C   UNL     1      53.203   7.698   7.980  0.00  0.00    +0.000 A 
BRANCH  22  32
ATOM     31  C   UNL     1      53.738  10.788   8.609  0.00  0.00    +0.000 C 
ATOM     32  O   UNL     1      52.606  10.044   8.154  0.00  0.00    +0.000 OA
ENDBRANCH  22  32
ENDBRANCH  18  29
ENDBRANCH   1  20
TORSDOF 7
ENDMDL
