MODEL 1
REMARK VINA RESULT:    -8.809      0.000      0.000
REMARK INTER + INTRA:         -12.813
REMARK INTER:                 -11.898
REMARK INTRA:                  -0.915
REMARK UNBOUND:                -0.915
REMARK  Name = 
REMARK  6 active torsions:
REMARK  status: ('A' for Active; 'I' for Inactive)
REMARK    1  A    between atoms: C_2  and  C_4
REMARK    2  A    between atoms: C_7  and  N_8
REMARK    3  A    between atoms: N_8  and  C_9
REMARK    4  A    between atoms: C_9  and  C_10
REMARK    5  A    between atoms: C_14  and  C_15
REMARK    6  A    between atoms: C_19  and  C_20
REMARK                            x       y       z     vdW  Elec       q    Type
REMARK                         _______ _______ _______ _____ _____    ______ ____
ROOT
ATOM      1  C   UNL     1      44.889   5.514  11.985  0.00  0.00    +0.000 A 
ATOM      2  C   UNL     1      44.988   6.805  11.464  0.00  0.00    +0.000 A 
ATOM      3  C   UNL     1      45.889   7.681  12.044  0.00  0.00    +0.000 A 
ATOM      4  N   UNL     1      46.687   7.364  13.087  0.00  0.00    +0.000 NA
ATOM      5  C   UNL     1      46.583   6.116  13.610  0.00  0.00    +0.000 A 
ATOM      6  C   UNL     1      45.689   5.179  13.086  0.00  0.00    +0.000 A 
ENDROOT
BRANCH   5   7
ATOM      7  C   UNL     1      47.516   5.797  14.714  0.00  0.00    +0.000 A 
ATOM      8  C   UNL     1      48.545   6.675  15.099  0.00  0.00    +0.000 A 
ATOM      9  C   UNL     1      49.377   6.390  16.186  0.00  0.00    +0.000 A 
ATOM     10  C   UNL     1      49.199   5.217  16.915  0.00  0.00    +0.000 A 
ATOM     11  C   UNL     1      48.199   4.307  16.555  0.00  0.00    +0.000 A 
ATOM     12  C   UNL     1      47.380   4.601  15.448  0.00  0.00    +0.000 A 
BRANCH  11  13
ATOM     13  C   UNL     1      47.973   3.041  17.344  0.00  0.00    +0.000 C 
ATOM     14  F   UNL     1      48.497   3.085  18.602  0.00  0.00    +0.000 F 
ATOM     15  F   UNL     1      46.650   2.756  17.506  0.00  0.00    +0.000 F 
ATOM     16  F   UNL     1      48.523   1.945  16.752  0.00  0.00    +0.000 F 
ENDBRANCH  11  13
ENDBRANCH   5   7
BRANCH   1  17
ATOM     17  C   UNL     1      43.944   4.500  11.383  0.00  0.00    +0.000 C 
BRANCH  17  18
ATOM     18  N   UNL     1      43.833   4.742   9.950  0.00  0.00    +0.000 N 
ATOM     19  H   UNL     1      43.956   5.723   9.722  0.00  0.00    +0.000 HD
BRANCH  18  23
ATOM     20  C   UNL     1      46.357   2.317   7.782  0.00  0.00    +0.000 A 
ATOM     21  C   UNL     1      46.316   3.681   7.548  0.00  0.00    +0.000 A 
ATOM     22  N   UNL     1      45.487   4.518   8.231  0.00  0.00    +0.000 NA
ATOM     23  C   UNL     1      44.688   3.953   9.163  0.00  0.00    +0.000 A 
ATOM     24  C   UNL     1      44.752   2.568   9.388  0.00  0.00    +0.000 A 
ATOM     25  N   UNL     1      45.564   1.715   8.712  0.00  0.00    +0.000 NA
BRANCH  20  27
ATOM     26  N   UNL     1      48.415   2.082   6.529  0.00  0.00    +0.000 N 
ATOM     27  C   UNL     1      47.297   1.457   7.012  0.00  0.00    +0.000 C 
ATOM     28  O   UNL     1      47.088   0.265   6.822  0.00  0.00    +0.000 OA
ATOM     29  H   UNL     1      49.084   1.558   5.985  0.00  0.00    +0.000 HD
ATOM     30  H   UNL     1      48.556   3.072   6.699  0.00  0.00    +0.000 HD
ENDBRANCH  20  27
ENDBRANCH  18  23
ENDBRANCH  17  18
ENDBRANCH   1  17
TORSDOF 6
ENDMDL
MODEL 2
REMARK VINA RESULT:    -8.714      3.656      4.638
REMARK INTER + INTRA:         -12.685
REMARK INTER:                 -11.859
REMARK INTRA:                  -0.826
REMARK UNBOUND:                -0.915
REMARK  Name = 
REMARK  6 active torsions:
REMARK  status: ('A' for Active; 'I' for Inactive)
REMARK    1  A    between atoms: C_2  and  C_4
REMARK    2  A    between atoms: C_7  and  N_8
REMARK    3  A    between atoms: N_8  and  C_9
REMARK    4  A    between atoms: C_9  and  C_10
REMARK    5  A    between atoms: C_14  and  C_15
REMARK    6  A    between atoms: C_19  and  C_20
REMARK                            x       y       z     vdW  Elec       q    Type
REMARK                         _______ _______ _______ _____ _____    ______ ____
ROOT
ATOM      1  C   UNL     1      44.898   5.001  11.914  0.00  0.00    +0.000 A 
ATOM      2  C   UNL     1      45.298   4.211  12.993  0.00  0.00    +0.000 A 
ATOM      3  C   UNL     1      46.449   4.565  13.676  0.00  0.00    +0.000 A 
ATOM      4  N   UNL     1      47.213   5.635  13.365  0.00  0.00    +0.000 NA
ATOM      5  C   UNL     1      46.840   6.396  12.306  0.00  0.00    +0.000 A 
ATOM      6  C   UNL     1      45.697   6.096  11.560  0.00  0.00    +0.000 A 
ENDROOT
BRANCH   5   7
ATOM      7  C   UNL     1      47.677   7.588  12.037  0.00  0.00    +0.000 A 
ATOM      8  C   UNL     1      47.176   8.895  12.169  0.00  0.00    +0.000 A 
ATOM      9  C   UNL     1      47.995  10.012  11.976  0.00  0.00    +0.000 A 
ATOM     10  C   UNL     1      49.337   9.846  11.647  0.00  0.00    +0.000 A 
ATOM     11  C   UNL     1      49.873   8.563  11.490  0.00  0.00    +0.000 A 
ATOM     12  C   UNL     1      49.031   7.449  11.672  0.00  0.00    +0.000 A 
BRANCH  11  13
ATOM     13  C   UNL     1      51.330   8.360  11.157  0.00  0.00    +0.000 C 
ATOM     14  F   UNL     1      52.133   8.280  12.257  0.00  0.00    +0.000 F 
ATOM     15  F   UNL     1      51.549   7.211  10.457  0.00  0.00    +0.000 F 
ATOM     16  F   UNL     1      51.844   9.366  10.396  0.00  0.00    +0.000 F 
ENDBRANCH  11  13
ENDBRANCH   5   7
BRANCH   1  17
ATOM     17  C   UNL     1      43.638   4.685  11.142  0.00  0.00    +0.000 C 
BRANCH  17  18
ATOM     18  N   UNL     1      43.864   4.957   9.728  0.00  0.00    +0.000 N 
ATOM     19  H   UNL     1      44.235   5.889   9.577  0.00  0.00    +0.000 HD
BRANCH  18  23
ATOM     20  C   UNL     1      46.212   2.069   7.969  0.00  0.00    +0.000 A 
ATOM     21  C   UNL     1      46.373   3.405   7.641  0.00  0.00    +0.000 A 
ATOM     22  N   UNL     1      45.609   4.390   8.188  0.00  0.00    +0.000 NA
ATOM     23  C   UNL     1      44.668   4.006   9.077  0.00  0.00    +0.000 A 
ATOM     24  C   UNL     1      44.528   2.647   9.399  0.00  0.00    +0.000 A 
ATOM     25  N   UNL     1      45.272   1.647   8.859  0.00  0.00    +0.000 NA
BRANCH  20  27
ATOM     26  N   UNL     1      46.803  -0.260   7.675  0.00  0.00    +0.000 N 
ATOM     27  C   UNL     1      47.089   1.039   7.348  0.00  0.00    +0.000 C 
ATOM     28  O   UNL     1      48.007   1.329   6.592  0.00  0.00    +0.000 OA
ATOM     29  H   UNL     1      47.372  -1.006   7.299  0.00  0.00    +0.000 HD
ATOM     30  H   UNL     1      46.040  -0.468   8.309  0.00  0.00    +0.000 HD
ENDBRANCH  20  27
ENDBRANCH  18  23
ENDBRANCH  17  18
ENDBRANCH   1  17
TORSDOF 6
ENDMDL
MODEL 3
REMARK VINA RESULT:    -7.920      1.409      1.835
REMARK INTER + INTRA:         -11.614
REMARK INTER:                 -10.751
REMARK INTRA:                  -0.863
REMARK UNBOUND:                -0.915
REMARK  Name = 
REMARK  6 active torsions:
REMARK  status: ('A' for Active; 'I' for Inactive)
REMARK    1  A    between atoms: C_2  and  C_4
REMARK    2  A    between atoms: C_7  and  N_8
REMARK    3  A    between atoms: N_8  and  C_9
REMARK    4  A    between atoms: C_9  and  C_10
REMARK    5  A    between atoms: C_14  and  C_15
REMARK    6  A    between atoms: C_19  and  C_20
REMARK                            x       y       z     vdW  Elec       q    Type
REMARK                         _______ _______ _______ _____ _____    ______ ____
ROOT
ATOM      1  C   UNL     1      45.043   6.064  11.846  0.00  0.00    +0.000 A 
ATOM      2  C   UNL     1      44.537   7.318  11.502  0.00  0.00    +0.000 A 
ATOM      3  C   UNL     1      45.223   8.443  11.927  0.00  0.00    +0.000 A 
ATOM      4  N   UNL     1      46.360   8.405  12.656  0.00  0.00    +0.000 NA
ATOM      5  C   UNL     1      46.847   7.189  13.009  0.00  0.00    +0.000 A 
ATOM      6  C   UNL     1      46.205   6.008  12.627  0.00  0.00    +0.000 A 
ENDROOT
BRANCH   5   7
ATOM      7  C   UNL     1      48.123   7.195  13.759  0.00  0.00    +0.000 A 
ATOM      8  C   UNL     1      49.237   7.938  13.330  0.00  0.00    +0.000 A 
ATOM      9  C   UNL     1      50.414   7.987  14.083  0.00  0.00    +0.000 A 
ATOM     10  C   UNL     1      50.505   7.292  15.285  0.00  0.00    +0.000 A 
ATOM     11  C   UNL     1      49.426   6.527  15.742  0.00  0.00    +0.000 A 
ATOM     12  C   UNL     1      48.254   6.475  14.964  0.00  0.00    +0.000 A 
BRANCH  11  13
ATOM     13  C   UNL     1      49.494   5.785  17.054  0.00  0.00    +0.000 C 
ATOM     14  F   UNL     1      50.745   5.757  17.598  0.00  0.00    +0.000 F 
ATOM     15  F   UNL     1      48.691   6.336  18.007  0.00  0.00    +0.000 F 
ATOM     16  F   UNL     1      49.109   4.484  16.945  0.00  0.00    +0.000 F 
ENDBRANCH  11  13
ENDBRANCH   5   7
BRANCH   1  17
ATOM     17  C   UNL     1      44.358   4.795  11.393  0.00  0.00    +0.000 C 
BRANCH  17  18
ATOM     18  N   UNL     1      44.057   4.897   9.970  0.00  0.00    +0.000 N 
ATOM     19  H   UNL     1      44.051   5.861   9.653  0.00  0.00    +0.000 HD
BRANCH  18  23
ATOM     20  C   UNL     1      46.520   2.514   7.690  0.00  0.00    +0.000 A 
ATOM     21  C   UNL     1      46.493   3.885   7.500  0.00  0.00    +0.000 A 
ATOM     22  N   UNL     1      45.684   4.709   8.222  0.00  0.00    +0.000 NA
ATOM     23  C   UNL     1      44.891   4.124   9.146  0.00  0.00    +0.000 A 
ATOM     24  C   UNL     1      44.941   2.732   9.325  0.00  0.00    +0.000 A 
ATOM     25  N   UNL     1      45.733   1.892   8.610  0.00  0.00    +0.000 NA
BRANCH  20  27
ATOM     26  N   UNL     1      48.544   2.302   6.378  0.00  0.00    +0.000 N 
ATOM     27  C   UNL     1      47.438   1.668   6.879  0.00  0.00    +0.000 C 
ATOM     28  O   UNL     1      47.224   0.480   6.671  0.00  0.00    +0.000 OA
ATOM     29  H   UNL     1      49.198   1.787   5.807  0.00  0.00    +0.000 HD
ATOM     30  H   UNL     1      48.690   3.288   6.563  0.00  0.00    +0.000 HD
ENDBRANCH  20  27
ENDBRANCH  18  23
ENDBRANCH  17  18
ENDBRANCH   1  17
TORSDOF 6
ENDMDL
MODEL 4
REMARK VINA RESULT:    -7.911      2.859      3.629
REMARK INTER + INTRA:         -11.601
REMARK INTER:                 -10.666
REMARK INTRA:                  -0.935
REMARK UNBOUND:                -0.915
REMARK  Name = 
REMARK  6 active torsions:
REMARK  status: ('A' for Active; 'I' for Inactive)
REMARK    1  A    between atoms: C_2  and  C_4
REMARK    2  A    between atoms: C_7  and  N_8
REMARK    3  A    between atoms: N_8  and  C_9
REMARK    4  A    between atoms: C_9  and  C_10
REMARK    5  A    between atoms: C_14  and  C_15
REMARK    6  A    between atoms: C_19  and  C_20
REMARK                            x       y       z     vdW  Elec       q    Type
REMARK                         _______ _______ _______ _____ _____    ______ ____
ROOT
ATOM      1  C   UNL     1      45.232   5.089  11.909  0.00  0.00    +0.000 A 
ATOM      2  C   UNL     1      45.331   4.083  12.870  0.00  0.00    +0.000 A 
ATOM      3  C   UNL     1      46.436   4.075  13.703  0.00  0.00    +0.000 A 
ATOM      4  N   UNL     1      47.432   4.987  13.646  0.00  0.00    +0.000 NA
ATOM      5  C   UNL     1      47.351   5.957  12.701  0.00  0.00    +0.000 A 
ATOM      6  C   UNL     1      46.271   6.025  11.817  0.00  0.00    +0.000 A 
ENDROOT
BRANCH   5   7
ATOM      7  C   UNL     1      48.436   6.965  12.713  0.00  0.00    +0.000 A 
ATOM      8  C   UNL     1      48.621   7.874  11.656  0.00  0.00    +0.000 A 
ATOM      9  C   UNL     1      49.607   8.863  11.711  0.00  0.00    +0.000 A 
ATOM     10  C   UNL     1      50.434   8.967  12.826  0.00  0.00    +0.000 A 
ATOM     11  C   UNL     1      50.295   8.072  13.893  0.00  0.00    +0.000 A 
ATOM     12  C   UNL     1      49.307   7.071  13.816  0.00  0.00    +0.000 A 
BRANCH  11  13
ATOM     13  C   UNL     1      51.164   8.180  15.121  0.00  0.00    +0.000 C 
ATOM     14  F   UNL     1      52.321   8.869  14.909  0.00  0.00    +0.000 F 
ATOM     15  F   UNL     1      50.538   8.820  16.149  0.00  0.00    +0.000 F 
ATOM     16  F   UNL     1      51.541   6.966  15.611  0.00  0.00    +0.000 F 
ENDBRANCH  11  13
ENDBRANCH   5   7
BRANCH   1  17
ATOM     17  C   UNL     1      44.039   5.171  10.985  0.00  0.00    +0.000 C 
BRANCH  17  18
ATOM     18  N   UNL     1      43.798   3.858  10.399  0.00  0.00    +0.000 N 
ATOM     19  H   UNL     1      42.842   3.760  10.071  0.00  0.00    +0.000 HD
BRANCH  18  23
ATOM     20  C   UNL     1      46.494   2.696   7.513  0.00  0.00    +0.000 A 
ATOM     21  C   UNL     1      46.101   4.020   7.619  0.00  0.00    +0.000 A 
ATOM     22  N   UNL     1      45.202   4.445   8.549  0.00  0.00    +0.000 NA
ATOM     23  C   UNL     1      44.696   3.506   9.378  0.00  0.00    +0.000 A 
ATOM     24  C   UNL     1      45.115   2.172   9.257  0.00  0.00    +0.000 A 
ATOM     25  N   UNL     1      46.003   1.725   8.331  0.00  0.00    +0.000 NA
BRANCH  20  27
ATOM     26  N   UNL     1      47.428   2.974   5.297  0.00  0.00    +0.000 N 
ATOM     27  C   UNL     1      47.493   2.296   6.485  0.00  0.00    +0.000 C 
ATOM     28  O   UNL     1      48.322   1.417   6.684  0.00  0.00    +0.000 OA
ATOM     29  H   UNL     1      48.069   2.739   4.553  0.00  0.00    +0.000 HD
ATOM     30  H   UNL     1      46.726   3.692   5.161  0.00  0.00    +0.000 HD
ENDBRANCH  20  27
ENDBRANCH  18  23
ENDBRANCH  17  18
ENDBRANCH   1  17
TORSDOF 6
ENDMDL
MODEL 5
REMARK VINA RESULT:    -7.560      4.810      8.139
REMARK INTER + INTRA:         -11.126
REMARK INTER:                 -10.767
REMARK INTRA:                  -0.359
REMARK UNBOUND:                -0.915
REMARK  Name = 
REMARK  6 active torsions:
REMARK  status: ('A' for Active; 'I' for Inactive)
REMARK    1  A    between atoms: C_2  and  C_4
REMARK    2  A    between atoms: C_7  and  N_8
REMARK    3  A    between atoms: N_8  and  C_9
REMARK    4  A    between atoms: C_9  and  C_10
REMARK    5  A    between atoms: C_14  and  C_15
REMARK    6  A    between atoms: C_19  and  C_20
REMARK                            x       y       z     vdW  Elec       q    Type
REMARK                         _______ _______ _______ _____ _____    ______ ____
ROOT
ATOM      1  C   UNL     1      45.384   6.706  11.749  0.00  0.00    +0.000 A 
ATOM      2  C   UNL     1      44.018   6.939  11.914  0.00  0.00    +0.000 A 
ATOM      3  C   UNL     1      43.126   6.123  11.241  0.00  0.00    +0.000 A 
ATOM      4  N   UNL     1      43.494   5.107  10.430  0.00  0.00    +0.000 NA
ATOM      5  C   UNL     1      44.820   4.886  10.251  0.00  0.00    +0.000 A 
ATOM      6  C   UNL     1      45.782   5.674  10.889  0.00  0.00    +0.000 A 
ENDROOT
BRANCH   5   7
ATOM      7  C   UNL     1      45.175   3.728   9.400  0.00  0.00    +0.000 A 
ATOM      8  C   UNL     1      44.756   2.421   9.706  0.00  0.00    +0.000 A 
ATOM      9  C   UNL     1      45.043   1.346   8.859  0.00  0.00    +0.000 A 
ATOM     10  C   UNL     1      45.757   1.554   7.683  0.00  0.00    +0.000 A 
ATOM     11  C   UNL     1      46.208   2.836   7.347  0.00  0.00    +0.000 A 
ATOM     12  C   UNL     1      45.925   3.905   8.220  0.00  0.00    +0.000 A 
BRANCH  11  13
ATOM     13  C   UNL     1      46.963   3.089   6.067  0.00  0.00    +0.000 C 
ATOM     14  F   UNL     1      48.257   2.657   6.105  0.00  0.00    +0.000 F 
ATOM     15  F   UNL     1      46.398   2.463   4.996  0.00  0.00    +0.000 F 
ATOM     16  F   UNL     1      47.025   4.409   5.740  0.00  0.00    +0.000 F 
ENDBRANCH  11  13
ENDBRANCH   5   7
BRANCH   1  17
ATOM     17  C   UNL     1      46.412   7.543  12.475  0.00  0.00    +0.000 C 
BRANCH  17  18
ATOM     18  N   UNL     1      47.639   6.770  12.622  0.00  0.00    +0.000 N 
ATOM     19  H   UNL     1      48.463   7.362  12.597  0.00  0.00    +0.000 HD
BRANCH  18  23
ATOM     20  C   UNL     1      47.574   4.287  15.904  0.00  0.00    +0.000 A 
ATOM     21  C   UNL     1      48.212   5.515  15.961  0.00  0.00    +0.000 A 
ATOM     22  N   UNL     1      48.270   6.361  14.896  0.00  0.00    +0.000 NA
ATOM     23  C   UNL     1      47.672   5.946  13.758  0.00  0.00    +0.000 A 
ATOM     24  C   UNL     1      47.025   4.700  13.726  0.00  0.00    +0.000 A 
ATOM     25  N   UNL     1      46.963   3.837  14.773  0.00  0.00    +0.000 NA
BRANCH  20  27
ATOM     26  N   UNL     1      48.732   3.208  17.737  0.00  0.00    +0.000 N 
ATOM     27  C   UNL     1      47.532   3.413  17.108  0.00  0.00    +0.000 C 
ATOM     28  O   UNL     1      46.494   2.907  17.515  0.00  0.00    +0.000 OA
ATOM     29  H   UNL     1      48.773   2.612  18.550  0.00  0.00    +0.000 HD
ATOM     30  H   UNL     1      49.575   3.635  17.371  0.00  0.00    +0.000 HD
ENDBRANCH  20  27
ENDBRANCH  18  23
ENDBRANCH  17  18
ENDBRANCH   1  17
TORSDOF 6
ENDMDL
MODEL 6
REMARK VINA RESULT:    -7.517      1.644      2.100
REMARK INTER + INTRA:         -11.068
REMARK INTER:                 -10.235
REMARK INTRA:                  -0.834
REMARK UNBOUND:                -0.915
REMARK  Name = 
REMARK  6 active torsions:
REMARK  status: ('A' for Active; 'I' for Inactive)
REMARK    1  A    between atoms: C_2  and  C_4
REMARK    2  A    between atoms: C_7  and  N_8
REMARK    3  A    between atoms: N_8  and  C_9
REMARK    4  A    between atoms: C_9  and  C_10
REMARK    5  A    between atoms: C_14  and  C_15
REMARK    6  A    between atoms: C_19  and  C_20
REMARK                            x       y       z     vdW  Elec       q    Type
REMARK                         _______ _______ _______ _____ _____    ______ ____
ROOT
ATOM      1  C   UNL     1      45.819   5.840  12.012  0.00  0.00    +0.000 A 
ATOM      2  C   UNL     1      46.864   6.653  11.570  0.00  0.00    +0.000 A 
ATOM      3  C   UNL     1      48.000   6.747  12.355  0.00  0.00    +0.000 A 
ATOM      4  N   UNL     1      48.166   6.096  13.527  0.00  0.00    +0.000 NA
ATOM      5  C   UNL     1      47.147   5.319  13.971  0.00  0.00    +0.000 A 
ATOM      6  C   UNL     1      45.964   5.181  13.240  0.00  0.00    +0.000 A 
ENDROOT
BRANCH   5   7
ATOM      7  C   UNL     1      47.395   4.582  15.231  0.00  0.00    +0.000 A 
ATOM      8  C   UNL     1      47.639   3.197  15.249  0.00  0.00    +0.000 A 
ATOM      9  C   UNL     1      47.937   2.526  16.439  0.00  0.00    +0.000 A 
ATOM     10  C   UNL     1      47.999   3.225  17.641  0.00  0.00    +0.000 A 
ATOM     11  C   UNL     1      47.748   4.602  17.670  0.00  0.00    +0.000 A 
ATOM     12  C   UNL     1      47.433   5.260  16.466  0.00  0.00    +0.000 A 
BRANCH  11  13
ATOM     13  C   UNL     1      47.833   5.384  18.957  0.00  0.00    +0.000 C 
ATOM     14  F   UNL     1      48.625   6.490  18.869  0.00  0.00    +0.000 F 
ATOM     15  F   UNL     1      46.616   5.835  19.374  0.00  0.00    +0.000 F 
ATOM     16  F   UNL     1      48.335   4.651  19.989  0.00  0.00    +0.000 F 
ENDBRANCH  11  13
ENDBRANCH   5   7
BRANCH   1  17
ATOM     17  C   UNL     1      44.561   5.672  11.192  0.00  0.00    +0.000 C 
BRANCH  17  18
ATOM     18  N   UNL     1      44.377   4.260  10.882  0.00  0.00    +0.000 N 
ATOM     19  H   UNL     1      43.395   4.013  10.815  0.00  0.00    +0.000 HD
BRANCH  18  23
ATOM     20  C   UNL     1      46.448   2.844   7.618  0.00  0.00    +0.000 A 
ATOM     21  C   UNL     1      46.255   4.204   7.795  0.00  0.00    +0.000 A 
ATOM     22  N   UNL     1      45.564   4.714   8.851  0.00  0.00    +0.000 NA
ATOM     23  C   UNL     1      45.063   3.825   9.736  0.00  0.00    +0.000 A 
ATOM     24  C   UNL     1      45.278   2.451   9.540  0.00  0.00    +0.000 A 
ATOM     25  N   UNL     1      45.955   1.920   8.489  0.00  0.00    +0.000 NA
BRANCH  20  27
ATOM     26  N   UNL     1      47.109   3.085   5.302  0.00  0.00    +0.000 N 
ATOM     27  C   UNL     1      47.226   2.348   6.450  0.00  0.00    +0.000 C 
ATOM     28  O   UNL     1      47.927   1.345   6.507  0.00  0.00    +0.000 OA
ATOM     29  H   UNL     1      47.599   2.792   4.469  0.00  0.00    +0.000 HD
ATOM     30  H   UNL     1      46.516   3.907   5.285  0.00  0.00    +0.000 HD
ENDBRANCH  20  27
ENDBRANCH  18  23
ENDBRANCH  17  18
ENDBRANCH   1  17
TORSDOF 6
ENDMDL
MODEL 7
REMARK VINA RESULT:    -7.385      4.938      8.097
REMARK INTER + INTRA:         -10.890
REMARK INTER:                 -10.028
REMARK INTRA:                  -0.862
REMARK UNBOUND:                -0.915
REMARK  Name = 
REMARK  6 active torsions:
REMARK  status: ('A' for Active; 'I' for Inactive)
REMARK    1  A    between atoms: C_2  and  C_4
REMARK    2  A    between atoms: C_7  and  N_8
REMARK    3  A    between atoms: N_8  and  C_9
REMARK    4  A    between atoms: C_9  and  C_10
REMARK    5  A    between atoms: C_14  and  C_15
REMARK    6  A    between atoms: C_19  and  C_20
REMARK                            x       y       z     vdW  Elec       q    Type
REMARK                         _______ _______ _______ _____ _____    ______ ____
ROOT
ATOM      1  C   UNL     1      48.119   6.501  14.440  0.00  0.00    +0.000 A 
ATOM      2  C   UNL     1      48.533   7.446  13.500  0.00  0.00    +0.000 A 
ATOM      3  C   UNL     1      47.973   7.405  12.236  0.00  0.00    +0.000 A 
ATOM      4  N   UNL     1      47.042   6.505  11.850  0.00  0.00    +0.000 NA
ATOM      5  C   UNL     1      46.649   5.572  12.753  0.00  0.00    +0.000 A 
ATOM      6  C   UNL     1      47.176   5.542  14.046  0.00  0.00    +0.000 A 
ENDROOT
BRANCH   5   7
ATOM      7  C   UNL     1      45.587   4.643  12.303  0.00  0.00    +0.000 A 
ATOM      8  C   UNL     1      44.432   4.404  13.068  0.00  0.00    +0.000 A 
ATOM      9  C   UNL     1      43.408   3.575  12.601  0.00  0.00    +0.000 A 
ATOM     10  C   UNL     1      43.515   2.963  11.355  0.00  0.00    +0.000 A 
ATOM     11  C   UNL     1      44.656   3.160  10.568  0.00  0.00    +0.000 A 
ATOM     12  C   UNL     1      45.686   3.985  11.060  0.00  0.00    +0.000 A 
BRANCH  11  13
ATOM     13  C   UNL     1      44.784   2.526   9.206  0.00  0.00    +0.000 C 
ATOM     14  F   UNL     1      44.196   3.252   8.212  0.00  0.00    +0.000 F 
ATOM     15  F   UNL     1      46.083   2.366   8.825  0.00  0.00    +0.000 F 
ATOM     16  F   UNL     1      44.220   1.288   9.143  0.00  0.00    +0.000 F 
ENDBRANCH  11  13
ENDBRANCH   5   7
BRANCH   1  17
ATOM     17  C   UNL     1      48.671   6.506  15.847  0.00  0.00    +0.000 C 
BRANCH  17  18
ATOM     18  N   UNL     1      48.114   5.378  16.582  0.00  0.00    +0.000 N 
ATOM     19  H   UNL     1      47.300   4.988  16.117  0.00  0.00    +0.000 HD
BRANCH  18  23
ATOM     20  C   UNL     1      50.956   2.510  17.384  0.00  0.00    +0.000 A 
ATOM     21  C   UNL     1      49.720   2.154  16.869  0.00  0.00    +0.000 A 
ATOM     22  N   UNL     1      48.747   3.067  16.603  0.00  0.00    +0.000 NA
ATOM     23  C   UNL     1      49.038   4.360  16.869  0.00  0.00    +0.000 A 
ATOM     24  C   UNL     1      50.300   4.697  17.383  0.00  0.00    +0.000 A 
ATOM     25  N   UNL     1      51.281   3.801  17.665  0.00  0.00    +0.000 NA
BRANCH  20  27
ATOM     26  N   UNL     1      51.510   0.256  18.075  0.00  0.00    +0.000 N 
ATOM     27  C   UNL     1      51.985   1.465  17.640  0.00  0.00    +0.000 C 
ATOM     28  O   UNL     1      53.181   1.668  17.473  0.00  0.00    +0.000 OA
ATOM     29  H   UNL     1      52.159  -0.490  18.281  0.00  0.00    +0.000 HD
ATOM     30  H   UNL     1      50.515   0.121  18.209  0.00  0.00    +0.000 HD
ENDBRANCH  20  27
ENDBRANCH  18  23
ENDBRANCH  17  18
ENDBRANCH   1  17
TORSDOF 6
ENDMDL
MODEL 8
REMARK VINA RESULT:    -7.291      5.021      8.431
REMARK INTER + INTRA:         -10.763
REMARK INTER:                  -9.902
REMARK INTRA:                  -0.861
REMARK UNBOUND:                -0.915
REMARK  Name = 
REMARK  6 active torsions:
REMARK  status: ('A' for Active; 'I' for Inactive)
REMARK    1  A    between atoms: C_2  and  C_4
REMARK    2  A    between atoms: C_7  and  N_8
REMARK    3  A    between atoms: N_8  and  C_9
REMARK    4  A    between atoms: C_9  and  C_10
REMARK    5  A    between atoms: C_14  and  C_15
REMARK    6  A    between atoms: C_19  and  C_20
REMARK                            x       y       z     vdW  Elec       q    Type
REMARK                         _______ _______ _______ _____ _____    ______ ____
ROOT
ATOM      1  C   UNL     1      46.824   8.076  13.087  0.00  0.00    +0.000 A 
ATOM      2  C   UNL     1      45.974   9.151  12.818  0.00  0.00    +0.000 A 
ATOM      3  C   UNL     1      44.909   8.948  11.959  0.00  0.00    +0.000 A 
ATOM      4  N   UNL     1      44.634   7.768  11.360  0.00  0.00    +0.000 NA
ATOM      5  C   UNL     1      45.467   6.725  11.602  0.00  0.00    +0.000 A 
ATOM      6  C   UNL     1      46.570   6.854  12.450  0.00  0.00    +0.000 A 
ENDROOT
BRANCH   5   7
ATOM      7  C   UNL     1      45.095   5.439  10.969  0.00  0.00    +0.000 A 
ATOM      8  C   UNL     1      44.093   4.608  11.501  0.00  0.00    +0.000 A 
ATOM      9  C   UNL     1      43.706   3.429  10.857  0.00  0.00    +0.000 A 
ATOM     10  C   UNL     1      44.315   3.052   9.663  0.00  0.00    +0.000 A 
ATOM     11  C   UNL     1      45.328   3.841   9.107  0.00  0.00    +0.000 A 
ATOM     12  C   UNL     1      45.718   5.017   9.777  0.00  0.00    +0.000 A 
BRANCH  11  13
ATOM     13  C   UNL     1      45.985   3.464   7.802  0.00  0.00    +0.000 C 
ATOM     14  F   UNL     1      45.108   3.355   6.764  0.00  0.00    +0.000 F 
ATOM     15  F   UNL     1      46.915   4.378   7.404  0.00  0.00    +0.000 F 
ATOM     16  F   UNL     1      46.636   2.269   7.864  0.00  0.00    +0.000 F 
ENDBRANCH  11  13
ENDBRANCH   5   7
BRANCH   1  17
ATOM     17  C   UNL     1      47.991   8.222  14.036  0.00  0.00    +0.000 C 
BRANCH  17  18
ATOM     18  N   UNL     1      48.687   6.946  14.137  0.00  0.00    +0.000 N 
ATOM     19  H   UNL     1      49.664   7.026  13.873  0.00  0.00    +0.000 HD
BRANCH  18  23
ATOM     20  C   UNL     1      48.514   5.207  17.864  0.00  0.00    +0.000 A 
ATOM     21  C   UNL     1      48.004   4.551  16.756  0.00  0.00    +0.000 A 
ATOM     22  N   UNL     1      48.027   5.095  15.508  0.00  0.00    +0.000 NA
ATOM     23  C   UNL     1      48.576   6.324  15.392  0.00  0.00    +0.000 A 
ATOM     24  C   UNL     1      49.093   6.966  16.528  0.00  0.00    +0.000 A 
ATOM     25  N   UNL     1      49.072   6.446  17.783  0.00  0.00    +0.000 NA
BRANCH  20  27
ATOM     26  N   UNL     1      48.394   3.185  19.191  0.00  0.00    +0.000 N 
ATOM     27  C   UNL     1      48.473   4.552  19.201  0.00  0.00    +0.000 C 
ATOM     28  O   UNL     1      48.508   5.191  20.245  0.00  0.00    +0.000 OA
ATOM     29  H   UNL     1      48.347   2.682  20.065  0.00  0.00    +0.000 HD
ATOM     30  H   UNL     1      48.361   2.685  18.310  0.00  0.00    +0.000 HD
ENDBRANCH  20  27
ENDBRANCH  18  23
ENDBRANCH  17  18
ENDBRANCH   1  17
TORSDOF 6
ENDMDL
MODEL 9
REMARK VINA RESULT:    -6.762      2.556      3.814
REMARK INTER + INTRA:         -10.048
REMARK INTER:                  -9.141
REMARK INTRA:                  -0.907
REMARK UNBOUND:                -0.915
REMARK  Name = 
REMARK  6 active torsions:
REMARK  status: ('A' for Active; 'I' for Inactive)
REMARK    1  A    between atoms: C_2  and  C_4
REMARK    2  A    between atoms: C_7  and  N_8
REMARK    3  A    between atoms: N_8  and  C_9
REMARK    4  A    between atoms: C_9  and  C_10
REMARK    5  A    between atoms: C_14  and  C_15
REMARK    6  A    between atoms: C_19  and  C_20
REMARK                            x       y       z     vdW  Elec       q    Type
REMARK                         _______ _______ _______ _____ _____    ______ ____
ROOT
ATOM      1  C   UNL     1      47.562   8.279  12.752  0.00  0.00    +0.000 A 
ATOM      2  C   UNL     1      48.761   8.560  12.094  0.00  0.00    +0.000 A 
ATOM      3  C   UNL     1      49.949   8.248  12.731  0.00  0.00    +0.000 A 
ATOM      4  N   UNL     1      50.025   7.683  13.956  0.00  0.00    +0.000 NA
ATOM      5  C   UNL     1      48.864   7.424  14.609  0.00  0.00    +0.000 A 
ATOM      6  C   UNL     1      47.624   7.720  14.035  0.00  0.00    +0.000 A 
ENDROOT
BRANCH   5   7
ATOM      7  C   UNL     1      48.995   6.754  15.922  0.00  0.00    +0.000 A 
ATOM      8  C   UNL     1      49.533   7.409  17.044  0.00  0.00    +0.000 A 
ATOM      9  C   UNL     1      49.590   6.785  18.294  0.00  0.00    +0.000 A 
ATOM     10  C   UNL     1      49.108   5.489  18.452  0.00  0.00    +0.000 A 
ATOM     11  C   UNL     1      48.578   4.794  17.359  0.00  0.00    +0.000 A 
ATOM     12  C   UNL     1      48.544   5.430  16.103  0.00  0.00    +0.000 A 
BRANCH  11  13
ATOM     13  C   UNL     1      48.029   3.398  17.512  0.00  0.00    +0.000 C 
ATOM     14  F   UNL     1      46.683   3.318  17.306  0.00  0.00    +0.000 F 
ATOM     15  F   UNL     1      48.589   2.518  16.634  0.00  0.00    +0.000 F 
ATOM     16  F   UNL     1      48.245   2.878  18.752  0.00  0.00    +0.000 F 
ENDBRANCH  11  13
ENDBRANCH   5   7
BRANCH   1  17
ATOM     17  C   UNL     1      46.229   8.571  12.103  0.00  0.00    +0.000 C 
BRANCH  17  18
ATOM     18  N   UNL     1      45.171   7.934  12.878  0.00  0.00    +0.000 N 
ATOM     19  H   UNL     1      44.331   8.503  12.909  0.00  0.00    +0.000 HD
BRANCH  18  23
ATOM     20  C   UNL     1      44.221   4.175  11.495  0.00  0.00    +0.000 A 
ATOM     21  C   UNL     1      43.914   4.547  12.793  0.00  0.00    +0.000 A 
ATOM     22  N   UNL     1      44.223   5.774  13.295  0.00  0.00    +0.000 NA
ATOM     23  C   UNL     1      44.855   6.630  12.463  0.00  0.00    +0.000 A 
ATOM     24  C   UNL     1      45.149   6.233  11.148  0.00  0.00    +0.000 A 
ATOM     25  N   UNL     1      44.859   5.011  10.630  0.00  0.00    +0.000 NA
BRANCH  20  27
ATOM     26  N   UNL     1      44.597   2.338   9.963  0.00  0.00    +0.000 N 
ATOM     27  C   UNL     1      43.844   2.823  10.999  0.00  0.00    +0.000 C 
ATOM     28  O   UNL     1      42.920   2.182  11.483  0.00  0.00    +0.000 OA
ATOM     29  H   UNL     1      44.382   1.433   9.570  0.00  0.00    +0.000 HD
ATOM     30  H   UNL     1      45.351   2.897   9.580  0.00  0.00    +0.000 HD
ENDBRANCH  20  27
ENDBRANCH  18  23
ENDBRANCH  17  18
ENDBRANCH   1  17
TORSDOF 6
ENDMDL
