MODEL 1
REMARK VINA RESULT:    -8.497      0.000      0.000
REMARK INTER + INTRA:         -12.447
REMARK INTER:                 -11.478
REMARK INTRA:                  -0.969
REMARK UNBOUND:                -0.969
REMARK  Name = 
REMARK  7 active torsions:
REMARK  status: ('A' for Active; 'I' for Inactive)
REMARK    1  A    between atoms: C_1  and  C_2
REMARK    2  A    between atoms: N_7  and  C_8
REMARK    3  A    between atoms: C_12  and  C_13
REMARK    4  A    between atoms: C_13  and  C_14
REMARK    5  A    between atoms: C_14  and  N_15
REMARK    6  A    between atoms: N_15  and  C_16
REMARK    7  A    between atoms: C_19  and  C_20
REMARK                            x       y       z     vdW  Elec       q    Type
REMARK                         _______ _______ _______ _____ _____    ______ ____
ROOT
ATOM      1  C   UNL     1      43.947   4.439  11.758  0.00  0.00    +0.000 C 
ENDROOT
BRANCH   1   2
ATOM      2  N   UNL     1      43.647   3.762  10.497  0.00  0.00    +0.000 N 
ATOM      3  H   UNL     1      42.926   3.047  10.554  0.00  0.00    +0.000 HD
BRANCH   2   4
ATOM      4  C   UNL     1      44.652   3.456   9.580  0.00  0.00    +0.000 A 
ATOM      5  C   UNL     1      45.305   4.409   8.789  0.00  0.00    +0.000 A 
ATOM      6  C   UNL     1      46.239   4.031   7.812  0.00  0.00    +0.000 A 
ATOM      7  C   UNL     1      46.518   2.681   7.579  0.00  0.00    +0.000 A 
ATOM      8  C   UNL     1      45.854   1.727   8.346  0.00  0.00    +0.000 A 
ATOM      9  F   UNL     1      46.062   0.414   8.157  0.00  0.00    +0.000 F 
ATOM     10  C   UNL     1      44.936   2.106   9.330  0.00  0.00    +0.000 A 
BRANCH   7  11
ATOM     11  C   UNL     1      47.494   2.332   6.513  0.00  0.00    +0.000 C 
ATOM     12  N   UNL     1      47.425   3.003   5.326  0.00  0.00    +0.000 N 
ATOM     13  O   UNL     1      48.344   1.467   6.685  0.00  0.00    +0.000 OA
ATOM     14  H   UNL     1      46.749   3.735   5.144  0.00  0.00    +0.000 HD
ATOM     15  H   UNL     1      48.099   2.771   4.609  0.00  0.00    +0.000 HD
ENDBRANCH   7  11
ENDBRANCH   2   4
ENDBRANCH   1   2
BRANCH   1  16
ATOM     16  C   UNL     1      45.187   3.821  12.420  0.00  0.00    +0.000 C 
BRANCH  16  21
ATOM     17  C   UNL     1      47.654   5.705  14.672  0.00  0.00    +0.000 A 
ATOM     18  C   UNL     1      48.026   6.738  13.804  0.00  0.00    +0.000 A 
ATOM     19  C   UNL     1      47.504   6.839  12.509  0.00  0.00    +0.000 A 
ATOM     20  C   UNL     1      46.581   5.902  12.047  0.00  0.00    +0.000 A 
ATOM     21  C   UNL     1      46.155   4.879  12.894  0.00  0.00    +0.000 A 
ATOM     22  C   UNL     1      46.682   4.811  14.195  0.00  0.00    +0.000 A 
BRANCH  17  29
ATOM     23  C   UNL     1      50.518   6.104  16.659  0.00  0.00    +0.000 C 
ATOM     24  C   UNL     1      49.067   6.585  16.562  0.00  0.00    +0.000 C 
ATOM     25  C   UNL     1      48.490   6.899  17.965  0.00  0.00    +0.000 C 
ATOM     26  O   UNL     1      48.324   5.719  18.770  0.00  0.00    +0.000 OA
ATOM     27  C   UNL     1      47.429   4.797  18.125  0.00  0.00    +0.000 C 
ATOM     28  C   UNL     1      47.961   4.366  16.753  0.00  0.00    +0.000 C 
ATOM     29  N   UNL     1      48.223   5.552  15.923  0.00  0.00    +0.000 N 
ENDBRANCH  17  29
ENDBRANCH  16  21
ENDBRANCH   1  16
TORSDOF 6
ENDMDL
MODEL 2
REMARK VINA RESULT:    -8.422      2.572      3.531
REMARK INTER + INTRA:         -12.345
REMARK INTER:                 -11.442
REMARK INTRA:                  -0.903
REMARK UNBOUND:                -0.969
REMARK  Name = 
REMARK  7 active torsions:
REMARK  status: ('A' for Active; 'I' for Inactive)
REMARK    1  A    between atoms: C_1  and  C_2
REMARK    2  A    between atoms: N_7  and  C_8
REMARK    3  A    between atoms: C_12  and  C_13
REMARK    4  A    between atoms: C_13  and  C_14
REMARK    5  A    between atoms: C_14  and  N_15
REMARK    6  A    between atoms: N_15  and  C_16
REMARK    7  A    between atoms: C_19  and  C_20
REMARK                            x       y       z     vdW  Elec       q    Type
REMARK                         _______ _______ _______ _____ _____    ______ ____
ROOT
ATOM      1  C   UNL     1      43.297   4.373  11.299  0.00  0.00    +0.000 C 
ENDROOT
BRANCH   1   2
ATOM      2  N   UNL     1      43.752   4.829   9.986  0.00  0.00    +0.000 N 
ATOM      3  H   UNL     1      43.024   5.223   9.393  0.00  0.00    +0.000 HD
BRANCH   2   4
ATOM      4  C   UNL     1      44.724   4.131   9.271  0.00  0.00    +0.000 A 
ATOM      5  C   UNL     1      45.651   4.738   8.416  0.00  0.00    +0.000 A 
ATOM      6  C   UNL     1      46.543   3.976   7.645  0.00  0.00    +0.000 A 
ATOM      7  C   UNL     1      46.504   2.579   7.686  0.00  0.00    +0.000 A 
ATOM      8  C   UNL     1      45.568   1.968   8.517  0.00  0.00    +0.000 A 
ATOM      9  F   UNL     1      45.466   0.631   8.587  0.00  0.00    +0.000 F 
ATOM     10  C   UNL     1      44.691   2.730   9.296  0.00  0.00    +0.000 A 
BRANCH   7  11
ATOM     11  C   UNL     1      47.450   1.818   6.829  0.00  0.00    +0.000 C 
ATOM     12  N   UNL     1      48.591   2.440   6.410  0.00  0.00    +0.000 N 
ATOM     13  O   UNL     1      47.222   0.660   6.501  0.00  0.00    +0.000 OA
ATOM     14  H   UNL     1      48.828   3.390   6.669  0.00  0.00    +0.000 HD
ATOM     15  H   UNL     1      49.237   1.914   5.838  0.00  0.00    +0.000 HD
ENDBRANCH   7  11
ENDBRANCH   2   4
ENDBRANCH   1   2
BRANCH   1  16
ATOM     16  C   UNL     1      43.530   5.460  12.357  0.00  0.00    +0.000 C 
BRANCH  16  21
ATOM     17  C   UNL     1      47.070   6.886  12.743  0.00  0.00    +0.000 A 
ATOM     18  C   UNL     1      47.651   5.871  13.512  0.00  0.00    +0.000 A 
ATOM     19  C   UNL     1      46.929   4.740  13.912  0.00  0.00    +0.000 A 
ATOM     20  C   UNL     1      45.592   4.593  13.543  0.00  0.00    +0.000 A 
ATOM     21  C   UNL     1      44.986   5.563  12.745  0.00  0.00    +0.000 A 
ATOM     22  C   UNL     1      45.740   6.679  12.343  0.00  0.00    +0.000 A 
BRANCH  17  29
ATOM     23  C   UNL     1      46.840  10.274  11.860  0.00  0.00    +0.000 C 
ATOM     24  C   UNL     1      47.409   9.371  12.960  0.00  0.00    +0.000 C 
ATOM     25  C   UNL     1      48.684   9.993  13.584  0.00  0.00    +0.000 C 
ATOM     26  O   UNL     1      49.791  10.022  12.667  0.00  0.00    +0.000 OA
ATOM     27  C   UNL     1      50.118   8.689  12.239  0.00  0.00    +0.000 C 
ATOM     28  C   UNL     1      48.933   8.019  11.533  0.00  0.00    +0.000 C 
ATOM     29  N   UNL     1      47.751   8.041  12.410  0.00  0.00    +0.000 N 
ENDBRANCH  17  29
ENDBRANCH  16  21
ENDBRANCH   1  16
TORSDOF 6
ENDMDL
MODEL 3
REMARK VINA RESULT:    -8.280      1.717      2.482
REMARK INTER + INTRA:         -12.153
REMARK INTER:                 -11.304
REMARK INTRA:                  -0.849
REMARK UNBOUND:                -0.969
REMARK  Name = 
REMARK  7 active torsions:
REMARK  status: ('A' for Active; 'I' for Inactive)
REMARK    1  A    between atoms: C_1  and  C_2
REMARK    2  A    between atoms: N_7  and  C_8
REMARK    3  A    between atoms: C_12  and  C_13
REMARK    4  A    between atoms: C_13  and  C_14
REMARK    5  A    between atoms: C_14  and  N_15
REMARK    6  A    between atoms: N_15  and  C_16
REMARK    7  A    between atoms: C_19  and  C_20
REMARK                            x       y       z     vdW  Elec       q    Type
REMARK                         _______ _______ _______ _____ _____    ______ ____
ROOT
ATOM      1  C   UNL     1      43.779   3.154  11.893  0.00  0.00    +0.000 C 
ENDROOT
BRANCH   1   2
ATOM      2  N   UNL     1      43.639   3.574  10.500  0.00  0.00    +0.000 N 
ATOM      3  H   UNL     1      42.700   3.488  10.117  0.00  0.00    +0.000 HD
BRANCH   2   4
ATOM      4  C   UNL     1      44.640   3.323   9.561  0.00  0.00    +0.000 A 
ATOM      5  C   UNL     1      45.197   4.304   8.732  0.00  0.00    +0.000 A 
ATOM      6  C   UNL     1      46.130   3.974   7.736  0.00  0.00    +0.000 A 
ATOM      7  C   UNL     1      46.503   2.643   7.524  0.00  0.00    +0.000 A 
ATOM      8  C   UNL     1      45.935   1.661   8.329  0.00  0.00    +0.000 A 
ATOM      9  F   UNL     1      46.236   0.363   8.162  0.00  0.00    +0.000 F 
ATOM     10  C   UNL     1      45.017   1.993   9.331  0.00  0.00    +0.000 A 
BRANCH   7  11
ATOM     11  C   UNL     1      47.473   2.345   6.437  0.00  0.00    +0.000 C 
ATOM     12  N   UNL     1      47.391   3.062   5.279  0.00  0.00    +0.000 N 
ATOM     13  O   UNL     1      48.330   1.479   6.569  0.00  0.00    +0.000 OA
ATOM     14  H   UNL     1      46.710   3.797   5.131  0.00  0.00    +0.000 HD
ATOM     15  H   UNL     1      48.061   2.864   4.548  0.00  0.00    +0.000 HD
ENDBRANCH   7  11
ENDBRANCH   2   4
ENDBRANCH   1   2
BRANCH   1  16
ATOM     16  C   UNL     1      43.414   4.304  12.842  0.00  0.00    +0.000 C 
BRANCH  16  21
ATOM     17  C   UNL     1      46.289   6.841  12.759  0.00  0.00    +0.000 A 
ATOM     18  C   UNL     1      45.732   7.803  11.909  0.00  0.00    +0.000 A 
ATOM     19  C   UNL     1      44.452   7.652  11.360  0.00  0.00    +0.000 A 
ATOM     20  C   UNL     1      43.689   6.523  11.655  0.00  0.00    +0.000 A 
ATOM     21  C   UNL     1      44.193   5.559  12.528  0.00  0.00    +0.000 A 
ATOM     22  C   UNL     1      45.472   5.744  13.078  0.00  0.00    +0.000 A 
BRANCH  17  29
ATOM     23  C   UNL     1      49.663   7.444  12.005  0.00  0.00    +0.000 C 
ATOM     24  C   UNL     1      48.513   8.018  12.840  0.00  0.00    +0.000 C 
ATOM     25  C   UNL     1      49.049   8.714  14.117  0.00  0.00    +0.000 C 
ATOM     26  O   UNL     1      49.618   7.784  15.055  0.00  0.00    +0.000 OA
ATOM     27  C   UNL     1      48.632   6.820  15.462  0.00  0.00    +0.000 C 
ATOM     28  C   UNL     1      48.100   6.022  14.265  0.00  0.00    +0.000 C 
ATOM     29  N   UNL     1      47.580   6.943  13.242  0.00  0.00    +0.000 N 
ENDBRANCH  17  29
ENDBRANCH  16  21
ENDBRANCH   1  16
TORSDOF 6
ENDMDL
MODEL 4
REMARK VINA RESULT:    -7.666      2.212      2.854
REMARK INTER + INTRA:         -11.325
REMARK INTER:                 -10.510
REMARK INTRA:                  -0.815
REMARK UNBOUND:                -0.969
REMARK  Name = 
REMARK  7 active torsions:
REMARK  status: ('A' for Active; 'I' for Inactive)
REMARK    1  A    between atoms: C_1  and  C_2
REMARK    2  A    between atoms: N_7  and  C_8
REMARK    3  A    between atoms: C_12  and  C_13
REMARK    4  A    between atoms: C_13  and  C_14
REMARK    5  A    between atoms: C_14  and  N_15
REMARK    6  A    between atoms: N_15  and  C_16
REMARK    7  A    between atoms: C_19  and  C_20
REMARK                            x       y       z     vdW  Elec       q    Type
REMARK                         _______ _______ _______ _____ _____    ______ ____
ROOT
ATOM      1  C   UNL     1      43.896   4.178  11.668  0.00  0.00    +0.000 C 
ENDROOT
BRANCH   1   2
ATOM      2  N   UNL     1      43.758   3.222  10.571  0.00  0.00    +0.000 N 
ATOM      3  H   UNL     1      43.383   2.313  10.836  0.00  0.00    +0.000 HD
BRANCH   2   4
ATOM      4  C   UNL     1      44.704   3.147   9.548  0.00  0.00    +0.000 A 
ATOM      5  C   UNL     1      45.046   4.223   8.721  0.00  0.00    +0.000 A 
ATOM      6  C   UNL     1      45.933   4.063   7.644  0.00  0.00    +0.000 A 
ATOM      7  C   UNL     1      46.473   2.808   7.349  0.00  0.00    +0.000 A 
ATOM      8  C   UNL     1      46.118   1.729   8.153  0.00  0.00    +0.000 A 
ATOM      9  F   UNL     1      46.587   0.495   7.910  0.00  0.00    +0.000 F 
ATOM     10  C   UNL     1      45.247   1.893   9.235  0.00  0.00    +0.000 A 
BRANCH   7  11
ATOM     11  C   UNL     1      47.384   2.687   6.180  0.00  0.00    +0.000 C 
ATOM     12  N   UNL     1      48.710   2.455   6.412  0.00  0.00    +0.000 N 
ATOM     13  O   UNL     1      46.966   2.790   5.033  0.00  0.00    +0.000 OA
ATOM     14  H   UNL     1      49.097   2.348   7.341  0.00  0.00    +0.000 HD
ATOM     15  H   UNL     1      49.323   2.361   5.613  0.00  0.00    +0.000 HD
ENDBRANCH   7  11
ENDBRANCH   2   4
ENDBRANCH   1   2
BRANCH   1  16
ATOM     16  C   UNL     1      45.375   4.508  11.912  0.00  0.00    +0.000 C 
BRANCH  16  21
ATOM     17  C   UNL     1      47.042   7.814  12.915  0.00  0.00    +0.000 A 
ATOM     18  C   UNL     1      46.122   8.718  12.370  0.00  0.00    +0.000 A 
ATOM     19  C   UNL     1      44.979   8.287  11.685  0.00  0.00    +0.000 A 
ATOM     20  C   UNL     1      44.724   6.925  11.530  0.00  0.00    +0.000 A 
ATOM     21  C   UNL     1      45.596   5.992  12.091  0.00  0.00    +0.000 A 
ATOM     22  C   UNL     1      46.725   6.452  12.788  0.00  0.00    +0.000 A 
BRANCH  17  29
ATOM     23  C   UNL     1      48.519   9.253  15.754  0.00  0.00    +0.000 C 
ATOM     24  C   UNL     1      48.529   7.954  14.941  0.00  0.00    +0.000 C 
ATOM     25  C   UNL     1      49.915   7.264  15.015  0.00  0.00    +0.000 C 
ATOM     26  O   UNL     1      50.940   8.010  14.334  0.00  0.00    +0.000 OA
ATOM     27  C   UNL     1      50.601   8.168  12.946  0.00  0.00    +0.000 C 
ATOM     28  C   UNL     1      49.274   8.916  12.773  0.00  0.00    +0.000 C 
ATOM     29  N   UNL     1      48.211   8.229  13.523  0.00  0.00    +0.000 N 
ENDBRANCH  17  29
ENDBRANCH  16  21
ENDBRANCH   1  16
TORSDOF 6
ENDMDL
MODEL 5
REMARK VINA RESULT:    -7.638      1.325      2.157
REMARK INTER + INTRA:         -11.286
REMARK INTER:                 -10.436
REMARK INTRA:                  -0.850
REMARK UNBOUND:                -0.969
REMARK  Name = 
REMARK  7 active torsions:
REMARK  status: ('A' for Active; 'I' for Inactive)
REMARK    1  A    between atoms: C_1  and  C_2
REMARK    2  A    between atoms: N_7  and  C_8
REMARK    3  A    between atoms: C_12  and  C_13
REMARK    4  A    between atoms: C_13  and  C_14
REMARK    5  A    between atoms: C_14  and  N_15
REMARK    6  A    between atoms: N_15  and  C_16
REMARK    7  A    between atoms: C_19  and  C_20
REMARK                            x       y       z     vdW  Elec       q    Type
REMARK                         _______ _______ _______ _____ _____    ______ ____
ROOT
ATOM      1  C   UNL     1      44.337   3.465  12.095  0.00  0.00    +0.000 C 
ENDROOT
BRANCH   1   2
ATOM      2  N   UNL     1      43.790   3.302  10.749  0.00  0.00    +0.000 N 
ATOM      3  H   UNL     1      42.893   2.822  10.704  0.00  0.00    +0.000 HD
BRANCH   2   4
ATOM      4  C   UNL     1      44.614   3.026   9.658  0.00  0.00    +0.000 A 
ATOM      5  C   UNL     1      44.931   1.733   9.226  0.00  0.00    +0.000 A 
ATOM      6  C   UNL     1      45.846   1.514   8.184  0.00  0.00    +0.000 A 
ATOM      7  C   UNL     1      46.493   2.590   7.569  0.00  0.00    +0.000 A 
ATOM      8  C   UNL     1      46.200   3.878   8.010  0.00  0.00    +0.000 A 
ATOM      9  F   UNL     1      46.803   4.951   7.475  0.00  0.00    +0.000 F 
ATOM     10  C   UNL     1      45.277   4.094   9.038  0.00  0.00    +0.000 A 
BRANCH   7  11
ATOM     11  C   UNL     1      47.474   2.303   6.489  0.00  0.00    +0.000 C 
ATOM     12  N   UNL     1      47.345   2.965   5.302  0.00  0.00    +0.000 N 
ATOM     13  O   UNL     1      48.381   1.495   6.651  0.00  0.00    +0.000 OA
ATOM     14  H   UNL     1      46.621   3.651   5.129  0.00  0.00    +0.000 HD
ATOM     15  H   UNL     1      48.022   2.776   4.576  0.00  0.00    +0.000 HD
ENDBRANCH   7  11
ENDBRANCH   2   4
ENDBRANCH   1   2
BRANCH   1  16
ATOM     16  C   UNL     1      44.352   4.947  12.494  0.00  0.00    +0.000 C 
BRANCH  16  21
ATOM     17  C   UNL     1      47.469   5.281  14.705  0.00  0.00    +0.000 A 
ATOM     18  C   UNL     1      48.268   6.071  13.871  0.00  0.00    +0.000 A 
ATOM     19  C   UNL     1      47.827   6.496  12.611  0.00  0.00    +0.000 A 
ATOM     20  C   UNL     1      46.559   6.140  12.153  0.00  0.00    +0.000 A 
ATOM     21  C   UNL     1      45.718   5.386  12.969  0.00  0.00    +0.000 A 
ATOM     22  C   UNL     1      46.178   4.988  14.236  0.00  0.00    +0.000 A 
BRANCH  17  29
ATOM     23  C   UNL     1      46.824   3.200  17.456  0.00  0.00    +0.000 C 
ATOM     24  C   UNL     1      47.821   3.369  16.305  0.00  0.00    +0.000 C 
ATOM     25  C   UNL     1      49.228   2.863  16.711  0.00  0.00    +0.000 C 
ATOM     26  O   UNL     1      49.844   3.687  17.716  0.00  0.00    +0.000 OA
ATOM     27  C   UNL     1      49.984   5.035  17.236  0.00  0.00    +0.000 C 
ATOM     28  C   UNL     1      48.625   5.650  16.884  0.00  0.00    +0.000 C 
ATOM     29  N   UNL     1      47.924   4.792  15.915  0.00  0.00    +0.000 N 
ENDBRANCH  17  29
ENDBRANCH  16  21
ENDBRANCH   1  16
TORSDOF 6
ENDMDL
MODEL 6
REMARK VINA RESULT:    -7.522      1.605      2.441
REMARK INTER + INTRA:         -11.130
REMARK INTER:                 -10.599
REMARK INTRA:                  -0.531
REMARK UNBOUND:                -0.969
REMARK  Name = 
REMARK  7 active torsions:
REMARK  status: ('A' for Active; 'I' for Inactive)
REMARK    1  A    between atoms: C_1  and  C_2
REMARK    2  A    between atoms: N_7  and  C_8
REMARK    3  A    between atoms: C_12  and  C_13
REMARK    4  A    between atoms: C_13  and  C_14
REMARK    5  A    between atoms: C_14  and  N_15
REMARK    6  A    between atoms: N_15  and  C_16
REMARK    7  A    between atoms: C_19  and  C_20
REMARK                            x       y       z     vdW  Elec       q    Type
REMARK                         _______ _______ _______ _____ _____    ______ ____
ROOT
ATOM      1  C   UNL     1      44.100   5.237  11.353  0.00  0.00    +0.000 C 
ENDROOT
BRANCH   1   2
ATOM      2  N   UNL     1      43.809   4.709  10.021  0.00  0.00    +0.000 N 
ATOM      3  H   UNL     1      42.894   4.273   9.922  0.00  0.00    +0.000 HD
BRANCH   2   4
ATOM      4  C   UNL     1      44.795   4.092   9.252  0.00  0.00    +0.000 A 
ATOM      5  C   UNL     1      45.660   4.782   8.393  0.00  0.00    +0.000 A 
ATOM      6  C   UNL     1      46.568   4.098   7.568  0.00  0.00    +0.000 A 
ATOM      7  C   UNL     1      46.607   2.701   7.559  0.00  0.00    +0.000 A 
ATOM      8  C   UNL     1      45.733   2.009   8.393  0.00  0.00    +0.000 A 
ATOM      9  F   UNL     1      45.708   0.667   8.416  0.00  0.00    +0.000 F 
ATOM     10  C   UNL     1      44.841   2.692   9.226  0.00  0.00    +0.000 A 
BRANCH   7  11
ATOM     11  C   UNL     1      47.567   2.025   6.646  0.00  0.00    +0.000 C 
ATOM     12  N   UNL     1      47.944   2.674   5.505  0.00  0.00    +0.000 N 
ATOM     13  O   UNL     1      48.015   0.914   6.902  0.00  0.00    +0.000 OA
ATOM     14  H   UNL     1      47.611   3.599   5.260  0.00  0.00    +0.000 HD
ATOM     15  H   UNL     1      48.606   2.216   4.894  0.00  0.00    +0.000 HD
ENDBRANCH   7  11
ENDBRANCH   2   4
ENDBRANCH   1   2
BRANCH   1  16
ATOM     16  C   UNL     1      45.424   6.013  11.346  0.00  0.00    +0.000 C 
BRANCH  16  21
ATOM     17  C   UNL     1      47.919   6.497  14.220  0.00  0.00    +0.000 A 
ATOM     18  C   UNL     1      47.746   5.281  14.891  0.00  0.00    +0.000 A 
ATOM     19  C   UNL     1      46.843   4.310  14.441  0.00  0.00    +0.000 A 
ATOM     20  C   UNL     1      46.084   4.533  13.292  0.00  0.00    +0.000 A 
ATOM     21  C   UNL     1      46.254   5.716  12.573  0.00  0.00    +0.000 A 
ATOM     22  C   UNL     1      47.181   6.666  13.037  0.00  0.00    +0.000 A 
BRANCH  17  29
ATOM     23  C   UNL     1      48.269   9.228  16.395  0.00  0.00    +0.000 C 
ATOM     24  C   UNL     1      48.857   7.837  16.134  0.00  0.00    +0.000 C 
ATOM     25  C   UNL     1      50.349   7.778  16.548  0.00  0.00    +0.000 C 
ATOM     26  O   UNL     1      51.189   8.583  15.703  0.00  0.00    +0.000 OA
ATOM     27  C   UNL     1      51.095   8.138  14.339  0.00  0.00    +0.000 C 
ATOM     28  C   UNL     1      49.657   8.237  13.814  0.00  0.00    +0.000 C 
ATOM     29  N   UNL     1      48.749   7.492  14.700  0.00  0.00    +0.000 N 
ENDBRANCH  17  29
ENDBRANCH  16  21
ENDBRANCH   1  16
TORSDOF 6
ENDMDL
MODEL 7
REMARK VINA RESULT:    -6.783      3.657      8.005
REMARK INTER + INTRA:         -10.132
REMARK INTER:                  -9.151
REMARK INTRA:                  -0.980
REMARK UNBOUND:                -0.969
REMARK  Name = 
REMARK  7 active torsions:
REMARK  status: ('A' for Active; 'I' for Inactive)
REMARK    1  A    between atoms: C_1  and  C_2
REMARK    2  A    between atoms: N_7  and  C_8
REMARK    3  A    between atoms: C_12  and  C_13
REMARK    4  A    between atoms: C_13  and  C_14
REMARK    5  A    between atoms: C_14  and  N_15
REMARK    6  A    between atoms: N_15  and  C_16
REMARK    7  A    between atoms: C_19  and  C_20
REMARK                            x       y       z     vdW  Elec       q    Type
REMARK                         _______ _______ _______ _____ _____    ______ ____
ROOT
ATOM      1  C   UNL     1      49.851   7.654  13.097  0.00  0.00    +0.000 C 
ENDROOT
BRANCH   1   2
ATOM      2  N   UNL     1      49.232   7.790  14.415  0.00  0.00    +0.000 N 
ATOM      3  H   UNL     1      49.590   8.557  14.980  0.00  0.00    +0.000 HD
BRANCH   2   4
ATOM      4  C   UNL     1      48.875   6.673  15.169  0.00  0.00    +0.000 A 
ATOM      5  C   UNL     1      47.905   5.743  14.775  0.00  0.00    +0.000 A 
ATOM      6  C   UNL     1      47.516   4.692  15.621  0.00  0.00    +0.000 A 
ATOM      7  C   UNL     1      48.066   4.567  16.900  0.00  0.00    +0.000 A 
ATOM      8  C   UNL     1      49.013   5.503  17.306  0.00  0.00    +0.000 A 
ATOM      9  F   UNL     1      49.564   5.450  18.530  0.00  0.00    +0.000 F 
ATOM     10  C   UNL     1      49.412   6.540  16.457  0.00  0.00    +0.000 A 
BRANCH   7  11
ATOM     11  C   UNL     1      47.598   3.454  17.767  0.00  0.00    +0.000 C 
ATOM     12  N   UNL     1      48.345   3.126  18.862  0.00  0.00    +0.000 N 
ATOM     13  O   UNL     1      46.569   2.840  17.515  0.00  0.00    +0.000 OA
ATOM     14  H   UNL     1      49.194   3.616  19.118  0.00  0.00    +0.000 HD
ATOM     15  H   UNL     1      48.016   2.377  19.456  0.00  0.00    +0.000 HD
ENDBRANCH   7  11
ENDBRANCH   2   4
ENDBRANCH   1   2
BRANCH   1  16
ATOM     16  C   UNL     1      49.121   8.527  12.066  0.00  0.00    +0.000 C 
BRANCH  16  21
ATOM     17  C   UNL     1      45.780   6.669  11.748  0.00  0.00    +0.000 A 
ATOM     18  C   UNL     1      44.905   7.688  12.141  0.00  0.00    +0.000 A 
ATOM     19  C   UNL     1      45.366   8.958  12.509  0.00  0.00    +0.000 A 
ATOM     20  C   UNL     1      46.730   9.245  12.488  0.00  0.00    +0.000 A 
ATOM     21  C   UNL     1      47.633   8.269  12.066  0.00  0.00    +0.000 A 
ATOM     22  C   UNL     1      47.142   7.008  11.686  0.00  0.00    +0.000 A 
BRANCH  17  29
ATOM     23  C   UNL     1      45.791   3.286  12.679  0.00  0.00    +0.000 C 
ATOM     24  C   UNL     1      44.824   4.460  12.486  0.00  0.00    +0.000 C 
ATOM     25  C   UNL     1      43.426   3.961  12.043  0.00  0.00    +0.000 C 
ATOM     26  O   UNL     1      43.432   3.403  10.718  0.00  0.00    +0.000 OA
ATOM     27  C   UNL     1      43.868   4.388   9.765  0.00  0.00    +0.000 C 
ATOM     28  C   UNL     1      45.284   4.885  10.079  0.00  0.00    +0.000 C 
ATOM     29  N   UNL     1      45.342   5.391  11.460  0.00  0.00    +0.000 N 
ENDBRANCH  17  29
ENDBRANCH  16  21
ENDBRANCH   1  16
TORSDOF 6
ENDMDL
MODEL 8
REMARK VINA RESULT:    -6.746      3.623      8.157
REMARK INTER + INTRA:         -10.081
REMARK INTER:                  -9.177
REMARK INTRA:                  -0.904
REMARK UNBOUND:                -0.969
REMARK  Name = 
REMARK  7 active torsions:
REMARK  status: ('A' for Active; 'I' for Inactive)
REMARK    1  A    between atoms: C_1  and  C_2
REMARK    2  A    between atoms: N_7  and  C_8
REMARK    3  A    between atoms: C_12  and  C_13
REMARK    4  A    between atoms: C_13  and  C_14
REMARK    5  A    between atoms: C_14  and  N_15
REMARK    6  A    between atoms: N_15  and  C_16
REMARK    7  A    between atoms: C_19  and  C_20
REMARK                            x       y       z     vdW  Elec       q    Type
REMARK                         _______ _______ _______ _____ _____    ______ ____
ROOT
ATOM      1  C   UNL     1      48.794   7.990  15.717  0.00  0.00    +0.000 C 
ENDROOT
BRANCH   1   2
ATOM      2  N   UNL     1      48.285   7.013  16.678  0.00  0.00    +0.000 N 
ATOM      3  H   UNL     1      47.799   7.411  17.479  0.00  0.00    +0.000 HD
BRANCH   2   4
ATOM      4  C   UNL     1      49.003   5.858  16.989  0.00  0.00    +0.000 A 
ATOM      5  C   UNL     1      50.377   5.841  17.252  0.00  0.00    +0.000 A 
ATOM      6  C   UNL     1      51.065   4.635  17.462  0.00  0.00    +0.000 A 
ATOM      7  C   UNL     1      50.395   3.410  17.380  0.00  0.00    +0.000 A 
ATOM      8  C   UNL     1      49.033   3.420  17.096  0.00  0.00    +0.000 A 
ATOM      9  F   UNL     1      48.337   2.277  16.983  0.00  0.00    +0.000 F 
ATOM     10  C   UNL     1      48.346   4.623  16.902  0.00  0.00    +0.000 A 
BRANCH   7  11
ATOM     11  C   UNL     1      51.176   2.161  17.582  0.00  0.00    +0.000 C 
ATOM     12  N   UNL     1      52.209   2.179  18.474  0.00  0.00    +0.000 N 
ATOM     13  O   UNL     1      50.906   1.135  16.969  0.00  0.00    +0.000 OA
ATOM     14  H   UNL     1      52.459   2.999  19.014  0.00  0.00    +0.000 HD
ATOM     15  H   UNL     1      52.728   1.323  18.617  0.00  0.00    +0.000 HD
ENDBRANCH   7  11
ENDBRANCH   2   4
ENDBRANCH   1   2
BRANCH   1  16
ATOM     16  C   UNL     1      48.852   7.382  14.309  0.00  0.00    +0.000 C 
BRANCH  16  21
ATOM     17  C   UNL     1      45.524   6.714  12.523  0.00  0.00    +0.000 A 
ATOM     18  C   UNL     1      45.160   8.026  12.201  0.00  0.00    +0.000 A 
ATOM     19  C   UNL     1      45.961   9.122  12.548  0.00  0.00    +0.000 A 
ATOM     20  C   UNL     1      47.161   8.928  13.230  0.00  0.00    +0.000 A 
ATOM     21  C   UNL     1      47.578   7.632  13.537  0.00  0.00    +0.000 A 
ATOM     22  C   UNL     1      46.764   6.550  13.161  0.00  0.00    +0.000 A 
BRANCH  17  29
ATOM     23  C   UNL     1      42.271   5.610  11.805  0.00  0.00    +0.000 C 
ATOM     24  C   UNL     1      43.675   5.642  11.191  0.00  0.00    +0.000 C 
ATOM     25  C   UNL     1      43.906   4.419  10.269  0.00  0.00    +0.000 C 
ATOM     26  O   UNL     1      43.964   3.181  10.997  0.00  0.00    +0.000 OA
ATOM     27  C   UNL     1      45.036   3.216  11.955  0.00  0.00    +0.000 C 
ATOM     28  C   UNL     1      44.849   4.355  12.965  0.00  0.00    +0.000 C 
ATOM     29  N   UNL     1      44.703   5.635  12.255  0.00  0.00    +0.000 N 
ENDBRANCH  17  29
ENDBRANCH  16  21
ENDBRANCH   1  16
TORSDOF 6
ENDMDL
MODEL 9
REMARK VINA RESULT:    -6.571      3.015      4.365
REMARK INTER + INTRA:          -9.845
REMARK INTER:                  -8.942
REMARK INTRA:                  -0.903
REMARK UNBOUND:                -0.969
REMARK  Name = 
REMARK  7 active torsions:
REMARK  status: ('A' for Active; 'I' for Inactive)
REMARK    1  A    between atoms: C_1  and  C_2
REMARK    2  A    between atoms: N_7  and  C_8
REMARK    3  A    between atoms: C_12  and  C_13
REMARK    4  A    between atoms: C_13  and  C_14
REMARK    5  A    between atoms: C_14  and  N_15
REMARK    6  A    between atoms: N_15  and  C_16
REMARK    7  A    between atoms: C_19  and  C_20
REMARK                            x       y       z     vdW  Elec       q    Type
REMARK                         _______ _______ _______ _____ _____    ______ ____
ROOT
ATOM      1  C   UNL     1      47.097   8.460  12.732  0.00  0.00    +0.000 C 
ENDROOT
BRANCH   1   2
ATOM      2  N   UNL     1      46.024   7.642  13.296  0.00  0.00    +0.000 N 
ATOM      3  H   UNL     1      46.047   7.540  14.309  0.00  0.00    +0.000 HD
BRANCH   2   4
ATOM      4  C   UNL     1      45.558   6.502  12.642  0.00  0.00    +0.000 A 
ATOM      5  C   UNL     1      44.528   6.512  11.694  0.00  0.00    +0.000 A 
ATOM      6  C   UNL     1      44.032   5.320  11.141  0.00  0.00    +0.000 A 
ATOM      7  C   UNL     1      44.537   4.083  11.551  0.00  0.00    +0.000 A 
ATOM      8  C   UNL     1      45.545   4.065  12.511  0.00  0.00    +0.000 A 
ATOM      9  F   UNL     1      46.057   2.909  12.961  0.00  0.00    +0.000 F 
ATOM     10  C   UNL     1      46.048   5.254  13.049  0.00  0.00    +0.000 A 
BRANCH   7  11
ATOM     11  C   UNL     1      43.958   2.849  10.956  0.00  0.00    +0.000 C 
ATOM     12  N   UNL     1      44.581   2.297   9.874  0.00  0.00    +0.000 N 
ATOM     13  O   UNL     1      42.948   2.333  11.417  0.00  0.00    +0.000 OA
ATOM     14  H   UNL     1      45.426   2.681   9.468  0.00  0.00    +0.000 HD
ATOM     15  H   UNL     1      44.191   1.452   9.480  0.00  0.00    +0.000 HD
ENDBRANCH   7  11
ENDBRANCH   2   4
ENDBRANCH   1   2
BRANCH   1  16
ATOM     16  C   UNL     1      48.364   7.618  12.527  0.00  0.00    +0.000 C 
BRANCH  16  21
ATOM     17  C   UNL     1      49.660   6.468  15.949  0.00  0.00    +0.000 A 
ATOM     18  C   UNL     1      50.770   7.310  16.077  0.00  0.00    +0.000 A 
ATOM     19  C   UNL     1      51.113   8.238  15.086  0.00  0.00    +0.000 A 
ATOM     20  C   UNL     1      50.341   8.350  13.930  0.00  0.00    +0.000 A 
ATOM     21  C   UNL     1      49.204   7.555  13.781  0.00  0.00    +0.000 A 
ATOM     22  C   UNL     1      48.873   6.645  14.799  0.00  0.00    +0.000 A 
BRANCH  17  29
ATOM     23  C   UNL     1      47.385   5.327  18.364  0.00  0.00    +0.000 C 
ATOM     24  C   UNL     1      48.013   4.902  17.033  0.00  0.00    +0.000 C 
ATOM     25  C   UNL     1      48.139   3.360  16.947  0.00  0.00    +0.000 C 
ATOM     26  O   UNL     1      49.102   2.831  17.875  0.00  0.00    +0.000 OA
ATOM     27  C   UNL     1      50.401   3.392  17.618  0.00  0.00    +0.000 C 
ATOM     28  C   UNL     1      50.391   4.919  17.761  0.00  0.00    +0.000 C 
ATOM     29  N   UNL     1      49.359   5.496  16.885  0.00  0.00    +0.000 N 
ENDBRANCH  17  29
ENDBRANCH  16  21
ENDBRANCH   1  16
TORSDOF 6
ENDMDL
