MODEL 1
REMARK VINA RESULT:    -8.654      0.000      0.000
REMARK INTER + INTRA:         -12.725
REMARK INTER:                 -11.689
REMARK INTRA:                  -1.036
REMARK UNBOUND:                -1.036
REMARK  Name = 
REMARK  6 active torsions:
REMARK  status: ('A' for Active; 'I' for Inactive)
REMARK    1  A    between atoms: C_2  and  C_3
REMARK    2  A    between atoms: C_6  and  C_7
REMARK    3  A    between atoms: C_11  and  C_12
REMARK    4  A    between atoms: C_12  and  N_13
REMARK    5  A    between atoms: N_13  and  C_14
REMARK    6  A    between atoms: C_17  and  C_18
REMARK                            x       y       z     vdW  Elec       q    Type
REMARK                         _______ _______ _______ _____ _____    ______ ____
ROOT
ATOM      1  C   UNL     1      43.803   5.168  11.234  0.00  0.00    +0.000 C 
ATOM      2  C   UNL     1      43.002   6.444  11.070  0.00  0.00    +0.000 C 
ATOM      3  C   UNL     1      42.490   5.388  11.990  0.00  0.00    +0.000 C 
ENDROOT
BRANCH   1   8
ATOM      4  C   UNL     1      47.123   6.320  12.498  0.00  0.00    +0.000 A 
ATOM      5  C   UNL     1      47.465   5.360  13.448  0.00  0.00    +0.000 A 
ATOM      6  C   UNL     1      46.584   4.319  13.708  0.00  0.00    +0.000 A 
ATOM      7  C   UNL     1      45.391   4.254  13.002  0.00  0.00    +0.000 A 
ATOM      8  C   UNL     1      45.093   5.233  12.055  0.00  0.00    +0.000 A 
ATOM      9  N   UNL     1      45.944   6.272  11.833  0.00  0.00    +0.000 NA
BRANCH   4  13
ATOM     10  C   UNL     1      49.747   9.561  11.418  0.00  0.00    +0.000 A 
ATOM     11  C   UNL     1      48.421   9.818  11.768  0.00  0.00    +0.000 A 
ATOM     12  C   UNL     1      47.570   8.764  12.120  0.00  0.00    +0.000 A 
ATOM     13  C   UNL     1      48.019   7.431  12.125  0.00  0.00    +0.000 A 
ATOM     14  C   UNL     1      49.365   7.197  11.785  0.00  0.00    +0.000 A 
ATOM     15  C   UNL     1      50.221   8.248  11.431  0.00  0.00    +0.000 A 
BRANCH  10  17
ATOM     16  N   UNL     1      51.323  11.510  10.749  0.00  0.00    +0.000 NA
ATOM     17  C   UNL     1      50.613  10.637  11.053  0.00  0.00    +0.000 C 
ENDBRANCH  10  17
ENDBRANCH   4  13
ENDBRANCH   1   8
BRANCH   1  18
ATOM     18  N   UNL     1      43.751   4.030  10.294  0.00  0.00    +0.000 N 
ATOM     19  H   UNL     1      43.319   3.211  10.721  0.00  0.00    +0.000 HD
BRANCH  18  20
ATOM     20  C   UNL     1      44.786   3.643   9.418  0.00  0.00    +0.000 A 
ATOM     21  C   UNL     1      45.457   4.513   8.559  0.00  0.00    +0.000 A 
ATOM     22  C   UNL     1      46.400   4.026   7.640  0.00  0.00    +0.000 A 
ATOM     23  C   UNL     1      46.667   2.656   7.553  0.00  0.00    +0.000 A 
ATOM     24  C   UNL     1      45.986   1.772   8.390  0.00  0.00    +0.000 A 
ATOM     25  C   UNL     1      45.049   2.267   9.301  0.00  0.00    +0.000 A 
BRANCH  23  26
ATOM     26  C   UNL     1      47.616   2.173   6.516  0.00  0.00    +0.000 C 
ATOM     27  N   UNL     1      47.729   2.907   5.368  0.00  0.00    +0.000 N 
ATOM     28  O   UNL     1      48.268   1.148   6.673  0.00  0.00    +0.000 OA
ATOM     29  H   UNL     1      47.112   3.667   5.124  0.00  0.00    +0.000 HD
ATOM     30  H   UNL     1      48.344   2.542   4.652  0.00  0.00    +0.000 HD
ENDBRANCH  23  26
ENDBRANCH  18  20
ENDBRANCH   1  18
TORSDOF 6
ENDMDL
MODEL 2
REMARK VINA RESULT:    -8.487      2.641      4.460
REMARK INTER + INTRA:         -12.500
REMARK INTER:                 -12.401
REMARK INTRA:                  -0.100
REMARK UNBOUND:                -1.036
REMARK  Name = 
REMARK  6 active torsions:
REMARK  status: ('A' for Active; 'I' for Inactive)
REMARK    1  A    between atoms: C_2  and  C_3
REMARK    2  A    between atoms: C_6  and  C_7
REMARK    3  A    between atoms: C_11  and  C_12
REMARK    4  A    between atoms: C_12  and  N_13
REMARK    5  A    between atoms: N_13  and  C_14
REMARK    6  A    between atoms: C_17  and  C_18
REMARK                            x       y       z     vdW  Elec       q    Type
REMARK                         _______ _______ _______ _____ _____    ______ ____
ROOT
ATOM      1  C   UNL     1      43.992   4.954  11.595  0.00  0.00    +0.000 C 
ATOM      2  C   UNL     1      42.855   5.160  12.576  0.00  0.00    +0.000 C 
ATOM      3  C   UNL     1      43.457   3.801  12.447  0.00  0.00    +0.000 C 
ENDROOT
BRANCH   1   8
ATOM      4  C   UNL     1      47.069   5.719  13.568  0.00  0.00    +0.000 A 
ATOM      5  C   UNL     1      47.806   6.545  12.723  0.00  0.00    +0.000 A 
ATOM      6  C   UNL     1      47.305   6.846  11.463  0.00  0.00    +0.000 A 
ATOM      7  C   UNL     1      46.075   6.327  11.086  0.00  0.00    +0.000 A 
ATOM      8  C   UNL     1      45.368   5.511  11.968  0.00  0.00    +0.000 A 
ATOM      9  N   UNL     1      45.882   5.188  13.186  0.00  0.00    +0.000 NA
BRANCH   4  13
ATOM     10  C   UNL     1      48.345   4.749  17.566  0.00  0.00    +0.000 A 
ATOM     11  C   UNL     1      47.469   3.904  16.885  0.00  0.00    +0.000 A 
ATOM     12  C   UNL     1      47.056   4.220  15.586  0.00  0.00    +0.000 A 
ATOM     13  C   UNL     1      47.501   5.387  14.939  0.00  0.00    +0.000 A 
ATOM     14  C   UNL     1      48.400   6.216  15.639  0.00  0.00    +0.000 A 
ATOM     15  C   UNL     1      48.815   5.905  16.940  0.00  0.00    +0.000 A 
BRANCH  10  17
ATOM     16  N   UNL     1      49.107   4.174  19.979  0.00  0.00    +0.000 NA
ATOM     17  C   UNL     1      48.761   4.429  18.896  0.00  0.00    +0.000 C 
ENDBRANCH  10  17
ENDBRANCH   4  13
ENDBRANCH   1   8
BRANCH   1  18
ATOM     18  N   UNL     1      43.807   4.742  10.144  0.00  0.00    +0.000 N 
ATOM     19  H   UNL     1      42.820   4.683   9.897  0.00  0.00    +0.000 HD
BRANCH  18  20
ATOM     20  C   UNL     1      44.572   3.873   9.340  0.00  0.00    +0.000 A 
ATOM     21  C   UNL     1      44.624   2.489   9.504  0.00  0.00    +0.000 A 
ATOM     22  C   UNL     1      45.497   1.708   8.730  0.00  0.00    +0.000 A 
ATOM     23  C   UNL     1      46.350   2.307   7.796  0.00  0.00    +0.000 A 
ATOM     24  C   UNL     1      46.325   3.693   7.640  0.00  0.00    +0.000 A 
ATOM     25  C   UNL     1      45.453   4.461   8.415  0.00  0.00    +0.000 A 
BRANCH  23  26
ATOM     26  C   UNL     1      47.312   1.455   7.051  0.00  0.00    +0.000 C 
ATOM     27  N   UNL     1      48.441   2.051   6.562  0.00  0.00    +0.000 N 
ATOM     28  O   UNL     1      47.101   0.263   6.867  0.00  0.00    +0.000 OA
ATOM     29  H   UNL     1      48.591   3.049   6.553  0.00  0.00    +0.000 HD
ATOM     30  H   UNL     1      49.065   1.469   6.017  0.00  0.00    +0.000 HD
ENDBRANCH  23  26
ENDBRANCH  18  20
ENDBRANCH   1  18
TORSDOF 6
ENDMDL
MODEL 3
REMARK VINA RESULT:    -7.352      1.753      2.482
REMARK INTER + INTRA:         -10.967
REMARK INTER:                 -10.563
REMARK INTRA:                  -0.403
REMARK UNBOUND:                -1.036
REMARK  Name = 
REMARK  6 active torsions:
REMARK  status: ('A' for Active; 'I' for Inactive)
REMARK    1  A    between atoms: C_2  and  C_3
REMARK    2  A    between atoms: C_6  and  C_7
REMARK    3  A    between atoms: C_11  and  C_12
REMARK    4  A    between atoms: C_12  and  N_13
REMARK    5  A    between atoms: N_13  and  C_14
REMARK    6  A    between atoms: C_17  and  C_18
REMARK                            x       y       z     vdW  Elec       q    Type
REMARK                         _______ _______ _______ _____ _____    ______ ____
ROOT
ATOM      1  C   UNL     1      44.015   4.738  11.696  0.00  0.00    +0.000 C 
ATOM      2  C   UNL     1      43.290   4.250  12.934  0.00  0.00    +0.000 C 
ATOM      3  C   UNL     1      44.657   3.727  12.649  0.00  0.00    +0.000 C 
ENDROOT
BRANCH   1   8
ATOM      4  C   UNL     1      46.359   7.594  12.236  0.00  0.00    +0.000 A 
ATOM      5  C   UNL     1      45.624   8.706  11.832  0.00  0.00    +0.000 A 
ATOM      6  C   UNL     1      44.335   8.526  11.345  0.00  0.00    +0.000 A 
ATOM      7  C   UNL     1      43.810   7.243  11.289  0.00  0.00    +0.000 A 
ATOM      8  C   UNL     1      44.580   6.160  11.711  0.00  0.00    +0.000 A 
ATOM      9  N   UNL     1      45.856   6.339  12.151  0.00  0.00    +0.000 NA
BRANCH   4  13
ATOM     10  C   UNL     1      50.311   7.901  13.921  0.00  0.00    +0.000 A 
ATOM     11  C   UNL     1      50.011   8.538  12.717  0.00  0.00    +0.000 A 
ATOM     12  C   UNL     1      48.726   8.438  12.172  0.00  0.00    +0.000 A 
ATOM     13  C   UNL     1      47.714   7.697  12.809  0.00  0.00    +0.000 A 
ATOM     14  C   UNL     1      48.036   7.077  14.032  0.00  0.00    +0.000 A 
ATOM     15  C   UNL     1      49.321   7.172  14.582  0.00  0.00    +0.000 A 
BRANCH  10  17
ATOM     16  N   UNL     1      52.701   8.077  14.917  0.00  0.00    +0.000 NA
ATOM     17  C   UNL     1      51.626   7.998  14.474  0.00  0.00    +0.000 C 
ENDBRANCH  10  17
ENDBRANCH   4  13
ENDBRANCH   1   8
BRANCH   1  18
ATOM     18  N   UNL     1      43.792   4.199  10.338  0.00  0.00    +0.000 N 
ATOM     19  H   UNL     1      43.001   3.556  10.316  0.00  0.00    +0.000 HD
BRANCH  18  20
ATOM     20  C   UNL     1      44.801   3.774   9.450  0.00  0.00    +0.000 A 
ATOM     21  C   UNL     1      45.498   4.620   8.587  0.00  0.00    +0.000 A 
ATOM     22  C   UNL     1      46.410   4.099   7.656  0.00  0.00    +0.000 A 
ATOM     23  C   UNL     1      46.618   2.719   7.559  0.00  0.00    +0.000 A 
ATOM     24  C   UNL     1      45.909   1.860   8.400  0.00  0.00    +0.000 A 
ATOM     25  C   UNL     1      45.003   2.389   9.323  0.00  0.00    +0.000 A 
BRANCH  23  26
ATOM     26  C   UNL     1      47.536   2.202   6.510  0.00  0.00    +0.000 C 
ATOM     27  N   UNL     1      47.760   2.993   5.418  0.00  0.00    +0.000 N 
ATOM     28  O   UNL     1      48.065   1.102   6.608  0.00  0.00    +0.000 OA
ATOM     29  H   UNL     1      47.238   3.833   5.215  0.00  0.00    +0.000 HD
ATOM     30  H   UNL     1      48.350   2.610   4.690  0.00  0.00    +0.000 HD
ENDBRANCH  23  26
ENDBRANCH  18  20
ENDBRANCH   1  18
TORSDOF 6
ENDMDL
MODEL 4
REMARK VINA RESULT:    -6.865      3.288      7.399
REMARK INTER + INTRA:         -10.308
REMARK INTER:                  -9.454
REMARK INTRA:                  -0.854
REMARK UNBOUND:                -1.036
REMARK  Name = 
REMARK  6 active torsions:
REMARK  status: ('A' for Active; 'I' for Inactive)
REMARK    1  A    between atoms: C_2  and  C_3
REMARK    2  A    between atoms: C_6  and  C_7
REMARK    3  A    between atoms: C_11  and  C_12
REMARK    4  A    between atoms: C_12  and  N_13
REMARK    5  A    between atoms: N_13  and  C_14
REMARK    6  A    between atoms: C_17  and  C_18
REMARK                            x       y       z     vdW  Elec       q    Type
REMARK                         _______ _______ _______ _____ _____    ______ ____
ROOT
ATOM      1  C   UNL     1      45.965   7.655  12.625  0.00  0.00    +0.000 C 
ATOM      2  C   UNL     1      45.269   8.874  13.196  0.00  0.00    +0.000 C 
ATOM      3  C   UNL     1      46.033   9.013  11.922  0.00  0.00    +0.000 C 
ENDROOT
BRANCH   1   8
ATOM      4  C   UNL     1      44.895   4.896  10.347  0.00  0.00    +0.000 A 
ATOM      5  C   UNL     1      43.565   4.677  10.696  0.00  0.00    +0.000 A 
ATOM      6  C   UNL     1      43.000   5.428  11.718  0.00  0.00    +0.000 A 
ATOM      7  C   UNL     1      43.773   6.389  12.355  0.00  0.00    +0.000 A 
ATOM      8  C   UNL     1      45.098   6.578  11.967  0.00  0.00    +0.000 A 
ATOM      9  N   UNL     1      45.658   5.812  10.991  0.00  0.00    +0.000 NA
BRANCH   4  13
ATOM     10  C   UNL     1      46.833   2.807   7.117  0.00  0.00    +0.000 A 
ATOM     11  C   UNL     1      46.119   2.098   8.083  0.00  0.00    +0.000 A 
ATOM     12  C   UNL     1      45.490   2.778   9.131  0.00  0.00    +0.000 A 
ATOM     13  C   UNL     1      45.561   4.178   9.244  0.00  0.00    +0.000 A 
ATOM     14  C   UNL     1      46.271   4.875   8.247  0.00  0.00    +0.000 A 
ATOM     15  C   UNL     1      46.905   4.199   7.196  0.00  0.00    +0.000 A 
BRANCH  10  17
ATOM     16  N   UNL     1      48.001   1.540   5.176  0.00  0.00    +0.000 NA
ATOM     17  C   UNL     1      47.481   2.111   6.049  0.00  0.00    +0.000 C 
ENDBRANCH  10  17
ENDBRANCH   4  13
ENDBRANCH   1   8
BRANCH   1  18
ATOM     18  N   UNL     1      47.283   7.165  13.078  0.00  0.00    +0.000 N 
ATOM     19  H   UNL     1      47.906   6.985  12.290  0.00  0.00    +0.000 HD
BRANCH  18  20
ATOM     20  C   UNL     1      47.499   6.224  14.105  0.00  0.00    +0.000 A 
ATOM     21  C   UNL     1      46.836   5.001  14.205  0.00  0.00    +0.000 A 
ATOM     22  C   UNL     1      47.029   4.171  15.320  0.00  0.00    +0.000 A 
ATOM     23  C   UNL     1      47.873   4.566  16.364  0.00  0.00    +0.000 A 
ATOM     24  C   UNL     1      48.524   5.797  16.287  0.00  0.00    +0.000 A 
ATOM     25  C   UNL     1      48.324   6.617  15.173  0.00  0.00    +0.000 A 
BRANCH  23  26
ATOM     26  C   UNL     1      47.993   3.693  17.561  0.00  0.00    +0.000 C 
ATOM     27  N   UNL     1      47.053   2.715  17.730  0.00  0.00    +0.000 N 
ATOM     28  O   UNL     1      48.893   3.847  18.377  0.00  0.00    +0.000 OA
ATOM     29  H   UNL     1      46.212   2.643  17.176  0.00  0.00    +0.000 HD
ATOM     30  H   UNL     1      47.119   2.158  18.572  0.00  0.00    +0.000 HD
ENDBRANCH  23  26
ENDBRANCH  18  20
ENDBRANCH   1  18
TORSDOF 6
ENDMDL
MODEL 5
REMARK VINA RESULT:    -6.615      4.768      7.028
REMARK INTER + INTRA:          -9.972
REMARK INTER:                  -9.115
REMARK INTRA:                  -0.857
REMARK UNBOUND:                -1.036
REMARK  Name = 
REMARK  6 active torsions:
REMARK  status: ('A' for Active; 'I' for Inactive)
REMARK    1  A    between atoms: C_2  and  C_3
REMARK    2  A    between atoms: C_6  and  C_7
REMARK    3  A    between atoms: C_11  and  C_12
REMARK    4  A    between atoms: C_12  and  N_13
REMARK    5  A    between atoms: N_13  and  C_14
REMARK    6  A    between atoms: C_17  and  C_18
REMARK                            x       y       z     vdW  Elec       q    Type
REMARK                         _______ _______ _______ _____ _____    ______ ____
ROOT
ATOM      1  C   UNL     1      48.386   7.552  13.910  0.00  0.00    +0.000 C 
ATOM      2  C   UNL     1      49.481   7.389  12.876  0.00  0.00    +0.000 C 
ATOM      3  C   UNL     1      49.014   8.764  13.218  0.00  0.00    +0.000 C 
ENDROOT
BRANCH   1   8
ATOM      4  C   UNL     1      49.768   5.972  16.999  0.00  0.00    +0.000 A 
ATOM      5  C   UNL     1      49.369   6.835  18.018  0.00  0.00    +0.000 A 
ATOM      6  C   UNL     1      48.650   7.978  17.695  0.00  0.00    +0.000 A 
ATOM      7  C   UNL     1      48.336   8.223  16.366  0.00  0.00    +0.000 A 
ATOM      8  C   UNL     1      48.750   7.328  15.380  0.00  0.00    +0.000 A 
ATOM      9  N   UNL     1      49.487   6.230  15.699  0.00  0.00    +0.000 NA
BRANCH   4  13
ATOM     10  C   UNL     1      51.872   2.291  17.757  0.00  0.00    +0.000 A 
ATOM     11  C   UNL     1      52.529   3.515  17.889  0.00  0.00    +0.000 A 
ATOM     12  C   UNL     1      51.844   4.710  17.643  0.00  0.00    +0.000 A 
ATOM     13  C   UNL     1      50.492   4.713  17.255  0.00  0.00    +0.000 A 
ATOM     14  C   UNL     1      49.844   3.467  17.146  0.00  0.00    +0.000 A 
ATOM     15  C   UNL     1      50.526   2.267  17.389  0.00  0.00    +0.000 A 
BRANCH  10  17
ATOM     16  N   UNL     1      53.142   0.073  18.209  0.00  0.00    +0.000 NA
ATOM     17  C   UNL     1      52.575   1.071  18.002  0.00  0.00    +0.000 C 
ENDBRANCH  10  17
ENDBRANCH   4  13
ENDBRANCH   1   8
BRANCH   1  18
ATOM     18  N   UNL     1      46.944   7.398  13.623  0.00  0.00    +0.000 N 
ATOM     19  H   UNL     1      46.374   7.637  14.434  0.00  0.00    +0.000 HD
BRANCH  18  20
ATOM     20  C   UNL     1      46.361   6.336  12.903  0.00  0.00    +0.000 A 
ATOM     21  C   UNL     1      45.972   6.411  11.565  0.00  0.00    +0.000 A 
ATOM     22  C   UNL     1      45.297   5.342  10.955  0.00  0.00    +0.000 A 
ATOM     23  C   UNL     1      44.982   4.190  11.684  0.00  0.00    +0.000 A 
ATOM     24  C   UNL     1      45.345   4.112  13.029  0.00  0.00    +0.000 A 
ATOM     25  C   UNL     1      46.016   5.182  13.627  0.00  0.00    +0.000 A 
BRANCH  23  26
ATOM     26  C   UNL     1      44.202   3.112  11.022  0.00  0.00    +0.000 C 
ATOM     27  N   UNL     1      44.799   2.436   9.995  0.00  0.00    +0.000 N 
ATOM     28  O   UNL     1      43.060   2.843  11.372  0.00  0.00    +0.000 OA
ATOM     29  H   UNL     1      45.671   2.715   9.570  0.00  0.00    +0.000 HD
ATOM     30  H   UNL     1      44.240   1.736   9.523  0.00  0.00    +0.000 HD
ENDBRANCH  23  26
ENDBRANCH  18  20
ENDBRANCH   1  18
TORSDOF 6
ENDMDL
MODEL 6
REMARK VINA RESULT:    -6.541      5.579      8.693
REMARK INTER + INTRA:          -9.872
REMARK INTER:                  -8.892
REMARK INTRA:                  -0.980
REMARK UNBOUND:                -1.036
REMARK  Name = 
REMARK  6 active torsions:
REMARK  status: ('A' for Active; 'I' for Inactive)
REMARK    1  A    between atoms: C_2  and  C_3
REMARK    2  A    between atoms: C_6  and  C_7
REMARK    3  A    between atoms: C_11  and  C_12
REMARK    4  A    between atoms: C_12  and  N_13
REMARK    5  A    between atoms: N_13  and  C_14
REMARK    6  A    between atoms: C_17  and  C_18
REMARK                            x       y       z     vdW  Elec       q    Type
REMARK                         _______ _______ _______ _____ _____    ______ ____
ROOT
ATOM      1  C   UNL     1      48.825   5.429  17.838  0.00  0.00    +0.000 C 
ATOM      2  C   UNL     1      47.478   4.804  18.139  0.00  0.00    +0.000 C 
ATOM      3  C   UNL     1      47.838   6.089  18.804  0.00  0.00    +0.000 C 
ENDROOT
BRANCH   1   8
ATOM      4  C   UNL     1      48.287   6.361  14.262  0.00  0.00    +0.000 A 
ATOM      5  C   UNL     1      49.347   7.221  13.982  0.00  0.00    +0.000 A 
ATOM      6  C   UNL     1      50.253   7.530  14.988  0.00  0.00    +0.000 A 
ATOM      7  C   UNL     1      50.086   6.961  16.243  0.00  0.00    +0.000 A 
ATOM      8  C   UNL     1      49.014   6.101  16.475  0.00  0.00    +0.000 A 
ATOM      9  N   UNL     1      48.108   5.832  15.496  0.00  0.00    +0.000 NA
BRANCH   4  13
ATOM     10  C   UNL     1      45.420   5.148  11.285  0.00  0.00    +0.000 A 
ATOM     11  C   UNL     1      45.544   4.429  12.475  0.00  0.00    +0.000 A 
ATOM     12  C   UNL     1      46.475   4.826  13.441  0.00  0.00    +0.000 A 
ATOM     13  C   UNL     1      47.308   5.942  13.242  0.00  0.00    +0.000 A 
ATOM     14  C   UNL     1      47.153   6.663  12.042  0.00  0.00    +0.000 A 
ATOM     15  C   UNL     1      46.223   6.269  11.070  0.00  0.00    +0.000 A 
BRANCH  10  17
ATOM     16  N   UNL     1      43.695   4.413   9.491  0.00  0.00    +0.000 NA
ATOM     17  C   UNL     1      44.473   4.739  10.296  0.00  0.00    +0.000 C 
ENDBRANCH  10  17
ENDBRANCH   4  13
ENDBRANCH   1   8
BRANCH   1  18
ATOM     18  N   UNL     1      50.091   5.024  18.484  0.00  0.00    +0.000 N 
ATOM     19  H   UNL     1      50.693   5.827  18.663  0.00  0.00    +0.000 HD
BRANCH  18  20
ATOM     20  C   UNL     1      50.861   3.895  18.139  0.00  0.00    +0.000 A 
ATOM     21  C   UNL     1      50.348   2.744  17.541  0.00  0.00    +0.000 A 
ATOM     22  C   UNL     1      51.163   1.621  17.332  0.00  0.00    +0.000 A 
ATOM     23  C   UNL     1      52.501   1.627  17.742  0.00  0.00    +0.000 A 
ATOM     24  C   UNL     1      53.020   2.763  18.363  0.00  0.00    +0.000 A 
ATOM     25  C   UNL     1      52.200   3.875  18.567  0.00  0.00    +0.000 A 
BRANCH  23  26
ATOM     26  C   UNL     1      53.311   0.392  17.571  0.00  0.00    +0.000 C 
ATOM     27  N   UNL     1      53.043  -0.662  18.398  0.00  0.00    +0.000 N 
ATOM     28  O   UNL     1      54.196   0.320  16.728  0.00  0.00    +0.000 OA
ATOM     29  H   UNL     1      52.435  -0.605  19.202  0.00  0.00    +0.000 HD
ATOM     30  H   UNL     1      53.632  -1.480  18.303  0.00  0.00    +0.000 HD
ENDBRANCH  23  26
ENDBRANCH  18  20
ENDBRANCH   1  18
TORSDOF 6
ENDMDL
MODEL 7
REMARK VINA RESULT:    -6.461      4.514      8.315
REMARK INTER + INTRA:          -9.763
REMARK INTER:                  -8.703
REMARK INTRA:                  -1.059
REMARK UNBOUND:                -1.036
REMARK  Name = 
REMARK  6 active torsions:
REMARK  status: ('A' for Active; 'I' for Inactive)
REMARK    1  A    between atoms: C_2  and  C_3
REMARK    2  A    between atoms: C_6  and  C_7
REMARK    3  A    between atoms: C_11  and  C_12
REMARK    4  A    between atoms: C_12  and  N_13
REMARK    5  A    between atoms: N_13  and  C_14
REMARK    6  A    between atoms: C_17  and  C_18
REMARK                            x       y       z     vdW  Elec       q    Type
REMARK                         _______ _______ _______ _____ _____    ______ ____
ROOT
ATOM      1  C   UNL     1      49.131   8.629  16.878  0.00  0.00    +0.000 C 
ATOM      2  C   UNL     1      47.899   9.426  17.255  0.00  0.00    +0.000 C 
ATOM      3  C   UNL     1      49.217  10.123  17.200  0.00  0.00    +0.000 C 
ENDROOT
BRANCH   1   8
ATOM      4  C   UNL     1      48.458   7.087  13.544  0.00  0.00    +0.000 A 
ATOM      5  C   UNL     1      49.589   7.409  12.797  0.00  0.00    +0.000 A 
ATOM      6  C   UNL     1      50.593   8.170  13.381  0.00  0.00    +0.000 A 
ATOM      7  C   UNL     1      50.448   8.578  14.699  0.00  0.00    +0.000 A 
ATOM      8  C   UNL     1      49.302   8.226  15.411  0.00  0.00    +0.000 A 
ATOM      9  N   UNL     1      48.305   7.513  14.821  0.00  0.00    +0.000 NA
BRANCH   4  13
ATOM     10  C   UNL     1      45.264   4.636  12.014  0.00  0.00    +0.000 A 
ATOM     11  C   UNL     1      45.865   4.324  13.233  0.00  0.00    +0.000 A 
ATOM     12  C   UNL     1      46.902   5.122  13.729  0.00  0.00    +0.000 A 
ATOM     13  C   UNL     1      47.367   6.244  13.020  0.00  0.00    +0.000 A 
ATOM     14  C   UNL     1      46.733   6.550  11.800  0.00  0.00    +0.000 A 
ATOM     15  C   UNL     1      45.695   5.753  11.297  0.00  0.00    +0.000 A 
BRANCH  10  17
ATOM     16  N   UNL     1      43.350   3.152  11.081  0.00  0.00    +0.000 NA
ATOM     17  C   UNL     1      44.208   3.816  11.504  0.00  0.00    +0.000 C 
ENDBRANCH  10  17
ENDBRANCH   4  13
ENDBRANCH   1   8
BRANCH   1  18
ATOM     18  N   UNL     1      49.894   7.784  17.820  0.00  0.00    +0.000 N 
ATOM     19  H   UNL     1      50.776   8.221  18.085  0.00  0.00    +0.000 HD
BRANCH  18  20
ATOM     20  C   UNL     1      50.042   6.385  17.731  0.00  0.00    +0.000 A 
ATOM     21  C   UNL     1      51.265   5.729  17.591  0.00  0.00    +0.000 A 
ATOM     22  C   UNL     1      51.315   4.340  17.397  0.00  0.00    +0.000 A 
ATOM     23  C   UNL     1      50.136   3.590  17.318  0.00  0.00    +0.000 A 
ATOM     24  C   UNL     1      48.906   4.237  17.432  0.00  0.00    +0.000 A 
ATOM     25  C   UNL     1      48.867   5.620  17.624  0.00  0.00    +0.000 A 
BRANCH  23  26
ATOM     26  C   UNL     1      50.229   2.133  17.038  0.00  0.00    +0.000 C 
ATOM     27  N   UNL     1      51.093   1.395  17.797  0.00  0.00    +0.000 N 
ATOM     28  O   UNL     1      49.567   1.609  16.151  0.00  0.00    +0.000 OA
ATOM     29  H   UNL     1      51.768   1.796  18.432  0.00  0.00    +0.000 HD
ATOM     30  H   UNL     1      51.181   0.413  17.566  0.00  0.00    +0.000 HD
ENDBRANCH  23  26
ENDBRANCH  18  20
ENDBRANCH   1  18
TORSDOF 6
ENDMDL
MODEL 8
REMARK VINA RESULT:    -6.126      2.439      6.959
REMARK INTER + INTRA:          -9.310
REMARK INTER:                  -8.395
REMARK INTRA:                  -0.915
REMARK UNBOUND:                -1.036
REMARK  Name = 
REMARK  6 active torsions:
REMARK  status: ('A' for Active; 'I' for Inactive)
REMARK    1  A    between atoms: C_2  and  C_3
REMARK    2  A    between atoms: C_6  and  C_7
REMARK    3  A    between atoms: C_11  and  C_12
REMARK    4  A    between atoms: C_12  and  N_13
REMARK    5  A    between atoms: N_13  and  C_14
REMARK    6  A    between atoms: C_17  and  C_18
REMARK                            x       y       z     vdW  Elec       q    Type
REMARK                         _______ _______ _______ _____ _____    ______ ____
ROOT
ATOM      1  C   UNL     1      46.292   5.006  13.867  0.00  0.00    +0.000 C 
ATOM      2  C   UNL     1      47.180   3.888  14.375  0.00  0.00    +0.000 C 
ATOM      3  C   UNL     1      46.053   4.357  15.232  0.00  0.00    +0.000 C 
ENDROOT
BRANCH   1   8
ATOM      4  C   UNL     1      44.912   3.961  10.558  0.00  0.00    +0.000 A 
ATOM      5  C   UNL     1      43.538   4.139  10.702  0.00  0.00    +0.000 A 
ATOM      6  C   UNL     1      43.037   4.589  11.917  0.00  0.00    +0.000 A 
ATOM      7  C   UNL     1      43.921   4.863  12.951  0.00  0.00    +0.000 A 
ATOM      8  C   UNL     1      45.289   4.677  12.758  0.00  0.00    +0.000 A 
ATOM      9  N   UNL     1      45.770   4.199  11.578  0.00  0.00    +0.000 NA
BRANCH   4  13
ATOM     10  C   UNL     1      46.719   2.720   6.850  0.00  0.00    +0.000 A 
ATOM     11  C   UNL     1      46.244   1.768   7.752  0.00  0.00    +0.000 A 
ATOM     12  C   UNL     1      45.656   2.173   8.956  0.00  0.00    +0.000 A 
ATOM     13  C   UNL     1      45.534   3.534   9.291  0.00  0.00    +0.000 A 
ATOM     14  C   UNL     1      46.004   4.478   8.357  0.00  0.00    +0.000 A 
ATOM     15  C   UNL     1      46.595   4.078   7.151  0.00  0.00    +0.000 A 
BRANCH  10  17
ATOM     16  N   UNL     1      47.826   1.973   4.625  0.00  0.00    +0.000 NA
ATOM     17  C   UNL     1      47.325   2.306   5.624  0.00  0.00    +0.000 C 
ENDBRANCH  10  17
ENDBRANCH   4  13
ENDBRANCH   1   8
BRANCH   1  18
ATOM     18  N   UNL     1      46.633   6.441  13.955  0.00  0.00    +0.000 N 
ATOM     19  H   UNL     1      45.803   7.028  13.885  0.00  0.00    +0.000 HD
BRANCH  18  20
ATOM     20  C   UNL     1      47.733   7.061  13.327  0.00  0.00    +0.000 A 
ATOM     21  C   UNL     1      47.803   7.346  11.963  0.00  0.00    +0.000 A 
ATOM     22  C   UNL     1      48.980   7.865  11.400  0.00  0.00    +0.000 A 
ATOM     23  C   UNL     1      50.112   8.084  12.193  0.00  0.00    +0.000 A 
ATOM     24  C   UNL     1      50.062   7.781  13.554  0.00  0.00    +0.000 A 
ATOM     25  C   UNL     1      48.886   7.264  14.104  0.00  0.00    +0.000 A 
BRANCH  23  26
ATOM     26  C   UNL     1      51.361   8.563  11.545  0.00  0.00    +0.000 C 
ATOM     27  N   UNL     1      52.436   7.719  11.539  0.00  0.00    +0.000 N 
ATOM     28  O   UNL     1      51.434   9.678  11.045  0.00  0.00    +0.000 OA
ATOM     29  H   UNL     1      52.479   6.859  12.065  0.00  0.00    +0.000 HD
ATOM     30  H   UNL     1      53.294   8.075  11.136  0.00  0.00    +0.000 HD
ENDBRANCH  23  26
ENDBRANCH  18  20
ENDBRANCH   1  18
TORSDOF 6
ENDMDL
MODEL 9
REMARK VINA RESULT:    -5.740      4.197      8.825
REMARK INTER + INTRA:          -8.789
REMARK INTER:                  -7.727
REMARK INTRA:                  -1.063
REMARK UNBOUND:                -1.036
REMARK  Name = 
REMARK  6 active torsions:
REMARK  status: ('A' for Active; 'I' for Inactive)
REMARK    1  A    between atoms: C_2  and  C_3
REMARK    2  A    between atoms: C_6  and  C_7
REMARK    3  A    between atoms: C_11  and  C_12
REMARK    4  A    between atoms: C_12  and  N_13
REMARK    5  A    between atoms: N_13  and  C_14
REMARK    6  A    between atoms: C_17  and  C_18
REMARK                            x       y       z     vdW  Elec       q    Type
REMARK                         _______ _______ _______ _____ _____    ______ ____
ROOT
ATOM      1  C   UNL     1      50.545   8.395  12.262  0.00  0.00    +0.000 C 
ATOM      2  C   UNL     1      51.427   9.201  11.330  0.00  0.00    +0.000 C 
ATOM      3  C   UNL     1      51.168   7.766  11.014  0.00  0.00    +0.000 C 
ENDROOT
BRANCH   1   8
ATOM      4  C   UNL     1      46.863   7.787  12.118  0.00  0.00    +0.000 A 
ATOM      5  C   UNL     1      46.318   9.069  12.085  0.00  0.00    +0.000 A 
ATOM      6  C   UNL     1      47.166  10.167  12.136  0.00  0.00    +0.000 A 
ATOM      7  C   UNL     1      48.536   9.959  12.203  0.00  0.00    +0.000 A 
ATOM      8  C   UNL     1      49.037   8.658  12.226  0.00  0.00    +0.000 A 
ATOM      9  N   UNL     1      48.199   7.585  12.215  0.00  0.00    +0.000 NA
BRANCH   4  13
ATOM     10  C   UNL     1      44.474   4.214  11.837  0.00  0.00    +0.000 A 
ATOM     11  C   UNL     1      44.689   5.005  10.708  0.00  0.00    +0.000 A 
ATOM     12  C   UNL     1      45.466   6.165  10.801  0.00  0.00    +0.000 A 
ATOM     13  C   UNL     1      46.041   6.566  12.020  0.00  0.00    +0.000 A 
ATOM     14  C   UNL     1      45.827   5.742  13.142  0.00  0.00    +0.000 A 
ATOM     15  C   UNL     1      45.048   4.580  13.055  0.00  0.00    +0.000 A 
BRANCH  10  17
ATOM     16  N   UNL     1      43.017   2.074  11.668  0.00  0.00    +0.000 NA
ATOM     17  C   UNL     1      43.675   3.032  11.742  0.00  0.00    +0.000 C 
ENDBRANCH  10  17
ENDBRANCH   4  13
ENDBRANCH   1   8
BRANCH   1  18
ATOM     18  N   UNL     1      51.013   7.780  13.521  0.00  0.00    +0.000 N 
ATOM     19  H   UNL     1      51.339   6.825  13.372  0.00  0.00    +0.000 HD
BRANCH  18  20
ATOM     20  C   UNL     1      50.380   7.897  14.775  0.00  0.00    +0.000 A 
ATOM     21  C   UNL     1      49.625   6.888  15.374  0.00  0.00    +0.000 A 
ATOM     22  C   UNL     1      48.936   7.125  16.574  0.00  0.00    +0.000 A 
ATOM     23  C   UNL     1      48.974   8.386  17.179  0.00  0.00    +0.000 A 
ATOM     24  C   UNL     1      49.706   9.411  16.578  0.00  0.00    +0.000 A 
ATOM     25  C   UNL     1      50.387   9.164  15.383  0.00  0.00    +0.000 A 
BRANCH  23  26
ATOM     26  C   UNL     1      48.171   8.618  18.408  0.00  0.00    +0.000 C 
ATOM     27  N   UNL     1      47.169   7.732  18.687  0.00  0.00    +0.000 N 
ATOM     28  O   UNL     1      48.387   9.574  19.142  0.00  0.00    +0.000 OA
ATOM     29  H   UNL     1      46.851   7.021  18.044  0.00  0.00    +0.000 HD
ATOM     30  H   UNL     1      46.600   7.927  19.501  0.00  0.00    +0.000 HD
ENDBRANCH  23  26
ENDBRANCH  18  20
ENDBRANCH   1  18
TORSDOF 6
ENDMDL
