MODEL 1
REMARK VINA RESULT:    -7.738      0.000      0.000
REMARK INTER + INTRA:         -11.841
REMARK INTER:                 -10.905
REMARK INTRA:                  -0.936
REMARK UNBOUND:                -0.936
REMARK  Name = 
REMARK  8 active torsions:
REMARK  status: ('A' for Active; 'I' for Inactive)
REMARK    1  A    between atoms: C_1  and  O_2
REMARK    2  A    between atoms: O_2  and  C_3
REMARK    3  A    between atoms: C_5  and  C_6
REMARK    4  A    between atoms: C_11  and  N_12
REMARK    5  A    between atoms: N_12  and  C_13
REMARK    6  A    between atoms: C_13  and  C_14
REMARK    7  A    between atoms: C_17  and  O_18
REMARK    8  A    between atoms: O_18  and  C_19
REMARK                            x       y       z     vdW  Elec       q    Type
REMARK                         _______ _______ _______ _____ _____    ______ ____
ROOT
ATOM      1  N   UNL     1      43.740   5.029   9.705  0.00  0.00    +0.000 N 
ATOM      2  H   UNL     1      42.822   4.951   9.267  0.00  0.00    +0.000 HD
ENDROOT
BRANCH   1   8
ATOM      3  C   UNL     1      44.445   2.696   9.553  0.00  0.00    +0.000 A 
ATOM      4  C   UNL     1      45.250   1.711   8.984  0.00  0.00    +0.000 A 
ATOM      5  C   UNL     1      46.233   2.106   8.092  0.00  0.00    +0.000 A 
ATOM      6  N   UNL     1      46.466   3.397   7.737  0.00  0.00    +0.000 NA
ATOM      7  C   UNL     1      45.650   4.324   8.298  0.00  0.00    +0.000 A 
ATOM      8  C   UNL     1      44.631   4.053   9.209  0.00  0.00    +0.000 A 
BRANCH   5   9
ATOM      9  C   UNL     1      47.086   1.066   7.439  0.00  0.00    +0.000 C 
ATOM     10  N   UNL     1      46.733  -0.230   7.696  0.00  0.00    +0.000 N 
ATOM     11  O   UNL     1      48.045   1.347   6.728  0.00  0.00    +0.000 OA
ATOM     12  H   UNL     1      45.965  -0.418   8.325  0.00  0.00    +0.000 HD
ATOM     13  H   UNL     1      47.292  -0.979   7.325  0.00  0.00    +0.000 HD
ENDBRANCH   5   9
BRANCH   3  15
ATOM     14  C   UNL     1      43.811   2.123  11.781  0.00  0.00    +0.000 C 
ATOM     15  O   UNL     1      43.421   2.430  10.439  0.00  0.00    +0.000 OA
ENDBRANCH   3  15
ENDBRANCH   1   8
BRANCH   1  16
ATOM     16  C   UNL     1      43.835   5.712  11.004  0.00  0.00    +0.000 C 
ATOM     17  C   UNL     1      42.650   5.468  11.935  0.00  0.00    +0.000 C 
ATOM     18  C   UNL     1      42.896   6.839  11.405  0.00  0.00    +0.000 C 
BRANCH  16  19
ATOM     19  C   UNL     1      45.235   5.767  11.615  0.00  0.00    +0.000 A 
ATOM     20  C   UNL     1      46.174   6.730  11.198  0.00  0.00    +0.000 A 
ATOM     21  C   UNL     1      47.418   6.882  11.824  0.00  0.00    +0.000 A 
ATOM     22  C   UNL     1      47.741   6.090  12.918  0.00  0.00    +0.000 A 
ATOM     23  C   UNL     1      46.864   5.071  13.299  0.00  0.00    +0.000 A 
ATOM     24  C   UNL     1      45.632   4.911  12.652  0.00  0.00    +0.000 A 
BRANCH  22  25
ATOM     25  O   UNL     1      48.875   6.179  13.666  0.00  0.00    +0.000 OA
BRANCH  25  26
ATOM     26  C   UNL     1      48.862   6.962  14.852  0.00  0.00    +0.000 C 
ATOM     27  F   UNL     1      47.979   7.985  14.838  0.00  0.00    +0.000 F 
ATOM     28  F   UNL     1      48.536   6.159  15.891  0.00  0.00    +0.000 F 
ATOM     29  F   UNL     1      50.098   7.457  15.080  0.00  0.00    +0.000 F 
ENDBRANCH  25  26
ENDBRANCH  22  25
ENDBRANCH  16  19
ENDBRANCH   1  16
TORSDOF 7
ENDMDL
MODEL 2
REMARK VINA RESULT:    -7.536      4.424      7.157
REMARK INTER + INTRA:         -11.557
REMARK INTER:                 -10.637
REMARK INTRA:                  -0.920
REMARK UNBOUND:                -0.936
REMARK  Name = 
REMARK  8 active torsions:
REMARK  status: ('A' for Active; 'I' for Inactive)
REMARK    1  A    between atoms: C_1  and  O_2
REMARK    2  A    between atoms: O_2  and  C_3
REMARK    3  A    between atoms: C_5  and  C_6
REMARK    4  A    between atoms: C_11  and  N_12
REMARK    5  A    between atoms: N_12  and  C_13
REMARK    6  A    between atoms: C_13  and  C_14
REMARK    7  A    between atoms: C_17  and  O_18
REMARK    8  A    between atoms: O_18  and  C_19
REMARK                            x       y       z     vdW  Elec       q    Type
REMARK                         _______ _______ _______ _____ _____    ______ ____
ROOT
ATOM      1  N   UNL     1      44.687   5.949  12.215  0.00  0.00    +0.000 N 
ATOM      2  H   UNL     1      44.264   6.820  11.895  0.00  0.00    +0.000 HD
ENDROOT
BRANCH   1   8
ATOM      3  C   UNL     1      46.625   7.404  12.519  0.00  0.00    +0.000 A 
ATOM      4  C   UNL     1      47.852   7.672  13.122  0.00  0.00    +0.000 A 
ATOM      5  C   UNL     1      48.414   6.693  13.925  0.00  0.00    +0.000 A 
ATOM      6  N   UNL     1      47.844   5.481  14.161  0.00  0.00    +0.000 NA
ATOM      7  C   UNL     1      46.642   5.266  13.571  0.00  0.00    +0.000 A 
ATOM      8  C   UNL     1      45.979   6.167  12.740  0.00  0.00    +0.000 A 
BRANCH   5   9
ATOM      9  C   UNL     1      49.712   6.969  14.614  0.00  0.00    +0.000 C 
ATOM     10  N   UNL     1      50.584   7.766  13.925  0.00  0.00    +0.000 N 
ATOM     11  O   UNL     1      49.987   6.509  15.716  0.00  0.00    +0.000 OA
ATOM     12  H   UNL     1      50.337   8.086  12.999  0.00  0.00    +0.000 HD
ATOM     13  H   UNL     1      51.494   7.955  14.311  0.00  0.00    +0.000 HD
ENDBRANCH   5   9
BRANCH   3  15
ATOM     14  C   UNL     1      45.464   9.481  12.354  0.00  0.00    +0.000 C 
ATOM     15  O   UNL     1      45.956   8.302  11.713  0.00  0.00    +0.000 OA
ENDBRANCH   3  15
ENDBRANCH   1   8
BRANCH   1  16
ATOM     16  C   UNL     1      44.175   4.684  11.667  0.00  0.00    +0.000 C 
ATOM     17  C   UNL     1      42.671   4.484  11.841  0.00  0.00    +0.000 C 
ATOM     18  C   UNL     1      43.620   3.578  12.550  0.00  0.00    +0.000 C 
BRANCH  16  19
ATOM     19  C   UNL     1      44.818   4.228  10.357  0.00  0.00    +0.000 A 
ATOM     20  C   UNL     1      44.688   2.900   9.907  0.00  0.00    +0.000 A 
ATOM     21  C   UNL     1      45.160   2.485   8.655  0.00  0.00    +0.000 A 
ATOM     22  C   UNL     1      45.748   3.407   7.799  0.00  0.00    +0.000 A 
ATOM     23  C   UNL     1      45.965   4.710   8.254  0.00  0.00    +0.000 A 
ATOM     24  C   UNL     1      45.510   5.111   9.517  0.00  0.00    +0.000 A 
BRANCH  22  25
ATOM     25  O   UNL     1      46.181   3.163   6.532  0.00  0.00    +0.000 OA
BRANCH  25  26
ATOM     26  C   UNL     1      47.275   2.277   6.333  0.00  0.00    +0.000 C 
ATOM     27  F   UNL     1      46.963   0.968   6.454  0.00  0.00    +0.000 F 
ATOM     28  F   UNL     1      47.754   2.464   5.081  0.00  0.00    +0.000 F 
ATOM     29  F   UNL     1      48.261   2.572   7.207  0.00  0.00    +0.000 F 
ENDBRANCH  25  26
ENDBRANCH  22  25
ENDBRANCH  16  19
ENDBRANCH   1  16
TORSDOF 7
ENDMDL
MODEL 3
REMARK VINA RESULT:    -7.516      4.462      7.235
REMARK INTER + INTRA:         -11.528
REMARK INTER:                 -10.700
REMARK INTRA:                  -0.828
REMARK UNBOUND:                -0.936
REMARK  Name = 
REMARK  8 active torsions:
REMARK  status: ('A' for Active; 'I' for Inactive)
REMARK    1  A    between atoms: C_1  and  O_2
REMARK    2  A    between atoms: O_2  and  C_3
REMARK    3  A    between atoms: C_5  and  C_6
REMARK    4  A    between atoms: C_11  and  N_12
REMARK    5  A    between atoms: N_12  and  C_13
REMARK    6  A    between atoms: C_13  and  C_14
REMARK    7  A    between atoms: C_17  and  O_18
REMARK    8  A    between atoms: O_18  and  C_19
REMARK                            x       y       z     vdW  Elec       q    Type
REMARK                         _______ _______ _______ _____ _____    ______ ____
ROOT
ATOM      1  N   UNL     1      45.224   6.040  12.067  0.00  0.00    +0.000 N 
ATOM      2  H   UNL     1      45.557   6.886  11.604  0.00  0.00    +0.000 HD
ENDROOT
BRANCH   1   8
ATOM      3  C   UNL     1      47.193   6.470  13.447  0.00  0.00    +0.000 A 
ATOM      4  C   UNL     1      47.983   6.167  14.554  0.00  0.00    +0.000 A 
ATOM      5  C   UNL     1      47.650   5.054  15.309  0.00  0.00    +0.000 A 
ATOM      6  N   UNL     1      46.601   4.233  15.036  0.00  0.00    +0.000 NA
ATOM      7  C   UNL     1      45.847   4.572  13.961  0.00  0.00    +0.000 A 
ATOM      8  C   UNL     1      46.081   5.661  13.124  0.00  0.00    +0.000 A 
BRANCH   5   9
ATOM      9  C   UNL     1      48.459   4.728  16.524  0.00  0.00    +0.000 C 
ATOM     10  N   UNL     1      47.777   4.103  17.532  0.00  0.00    +0.000 N 
ATOM     11  O   UNL     1      49.648   5.007  16.622  0.00  0.00    +0.000 OA
ATOM     12  H   UNL     1      46.787   3.934  17.429  0.00  0.00    +0.000 HD
ATOM     13  H   UNL     1      48.250   3.896  18.396  0.00  0.00    +0.000 HD
ENDBRANCH   5   9
BRANCH   3  15
ATOM     14  C   UNL     1      48.658   7.588  11.932  0.00  0.00    +0.000 C 
ATOM     15  O   UNL     1      47.409   7.559  12.628  0.00  0.00    +0.000 OA
ENDBRANCH   3  15
ENDBRANCH   1   8
BRANCH   1  16
ATOM     16  C   UNL     1      44.314   5.153  11.327  0.00  0.00    +0.000 C 
ATOM     17  C   UNL     1      42.865   5.630  11.284  0.00  0.00    +0.000 C 
ATOM     18  C   UNL     1      43.202   4.372  12.008  0.00  0.00    +0.000 C 
BRANCH  16  19
ATOM     19  C   UNL     1      44.902   4.511  10.070  0.00  0.00    +0.000 A 
ATOM     20  C   UNL     1      44.532   3.210   9.677  0.00  0.00    +0.000 A 
ATOM     21  C   UNL     1      44.958   2.645   8.468  0.00  0.00    +0.000 A 
ATOM     22  C   UNL     1      45.744   3.389   7.598  0.00  0.00    +0.000 A 
ATOM     23  C   UNL     1      46.194   4.649   8.001  0.00  0.00    +0.000 A 
ATOM     24  C   UNL     1      45.782   5.197   9.222  0.00  0.00    +0.000 A 
BRANCH  22  25
ATOM     25  O   UNL     1      46.165   2.998   6.364  0.00  0.00    +0.000 OA
BRANCH  25  26
ATOM     26  C   UNL     1      47.294   2.140   6.258  0.00  0.00    +0.000 C 
ATOM     27  F   UNL     1      48.219   2.309   7.228  0.00  0.00    +0.000 F 
ATOM     28  F   UNL     1      46.865   0.858   6.327  0.00  0.00    +0.000 F 
ATOM     29  F   UNL     1      47.885   2.318   5.057  0.00  0.00    +0.000 F 
ENDBRANCH  25  26
ENDBRANCH  22  25
ENDBRANCH  16  19
ENDBRANCH   1  16
TORSDOF 7
ENDMDL
MODEL 4
REMARK VINA RESULT:    -6.478      4.517      7.384
REMARK INTER + INTRA:         -10.066
REMARK INTER:                  -9.259
REMARK INTRA:                  -0.807
REMARK UNBOUND:                -0.936
REMARK  Name = 
REMARK  8 active torsions:
REMARK  status: ('A' for Active; 'I' for Inactive)
REMARK    1  A    between atoms: C_1  and  O_2
REMARK    2  A    between atoms: O_2  and  C_3
REMARK    3  A    between atoms: C_5  and  C_6
REMARK    4  A    between atoms: C_11  and  N_12
REMARK    5  A    between atoms: N_12  and  C_13
REMARK    6  A    between atoms: C_13  and  C_14
REMARK    7  A    between atoms: C_17  and  O_18
REMARK    8  A    between atoms: O_18  and  C_19
REMARK                            x       y       z     vdW  Elec       q    Type
REMARK                         _______ _______ _______ _____ _____    ______ ____
ROOT
ATOM      1  N   UNL     1      47.847   6.909  13.226  0.00  0.00    +0.000 N 
ATOM      2  H   UNL     1      48.724   6.854  12.709  0.00  0.00    +0.000 HD
ENDROOT
BRANCH   1   8
ATOM      3  C   UNL     1      48.455   6.300  15.512  0.00  0.00    +0.000 A 
ATOM      4  C   UNL     1      48.343   5.443  16.605  0.00  0.00    +0.000 A 
ATOM      5  C   UNL     1      47.605   4.280  16.451  0.00  0.00    +0.000 A 
ATOM      6  N   UNL     1      46.985   3.919  15.297  0.00  0.00    +0.000 NA
ATOM      7  C   UNL     1      47.103   4.787  14.262  0.00  0.00    +0.000 A 
ATOM      8  C   UNL     1      47.819   5.983  14.291  0.00  0.00    +0.000 A 
BRANCH   5   9
ATOM      9  C   UNL     1      47.437   3.363  17.620  0.00  0.00    +0.000 C 
ATOM     10  N   UNL     1      48.300   3.572  18.660  0.00  0.00    +0.000 N 
ATOM     11  O   UNL     1      46.593   2.474  17.647  0.00  0.00    +0.000 OA
ATOM     12  H   UNL     1      49.012   4.285  18.577  0.00  0.00    +0.000 HD
ATOM     13  H   UNL     1      48.272   2.961  19.458  0.00  0.00    +0.000 HD
ENDBRANCH   5   9
BRANCH   3  15
ATOM     14  C   UNL     1      48.621   8.504  16.408  0.00  0.00    +0.000 C 
ATOM     15  O   UNL     1      49.146   7.494  15.543  0.00  0.00    +0.000 OA
ENDBRANCH   3  15
ENDBRANCH   1   8
BRANCH   1  16
ATOM     16  C   UNL     1      46.678   7.494  12.553  0.00  0.00    +0.000 C 
ATOM     17  C   UNL     1      46.867   8.941  12.104  0.00  0.00    +0.000 C 
ATOM     18  C   UNL     1      45.867   8.626  13.164  0.00  0.00    +0.000 C 
BRANCH  16  19
ATOM     19  C   UNL     1      45.907   6.547  11.635  0.00  0.00    +0.000 A 
ATOM     20  C   UNL     1      46.380   6.240  10.344  0.00  0.00    +0.000 A 
ATOM     21  C   UNL     1      45.762   5.283   9.528  0.00  0.00    +0.000 A 
ATOM     22  C   UNL     1      44.666   4.576  10.004  0.00  0.00    +0.000 A 
ATOM     23  C   UNL     1      44.126   4.919  11.246  0.00  0.00    +0.000 A 
ATOM     24  C   UNL     1      44.736   5.894  12.046  0.00  0.00    +0.000 A 
BRANCH  22  25
ATOM     25  O   UNL     1      44.016   3.571   9.355  0.00  0.00    +0.000 OA
BRANCH  25  26
ATOM     26  C   UNL     1      44.759   2.450   8.894  0.00  0.00    +0.000 C 
ATOM     27  F   UNL     1      45.346   2.625   7.690  0.00  0.00    +0.000 F 
ATOM     28  F   UNL     1      45.740   2.191   9.789  0.00  0.00    +0.000 F 
ATOM     29  F   UNL     1      43.953   1.369   8.833  0.00  0.00    +0.000 F 
ENDBRANCH  25  26
ENDBRANCH  22  25
ENDBRANCH  16  19
ENDBRANCH   1  16
TORSDOF 7
ENDMDL
MODEL 5
REMARK VINA RESULT:    -6.350      2.113      2.695
REMARK INTER + INTRA:          -9.885
REMARK INTER:                  -8.871
REMARK INTRA:                  -1.014
REMARK UNBOUND:                -0.936
REMARK  Name = 
REMARK  8 active torsions:
REMARK  status: ('A' for Active; 'I' for Inactive)
REMARK    1  A    between atoms: C_1  and  O_2
REMARK    2  A    between atoms: O_2  and  C_3
REMARK    3  A    between atoms: C_5  and  C_6
REMARK    4  A    between atoms: C_11  and  N_12
REMARK    5  A    between atoms: N_12  and  C_13
REMARK    6  A    between atoms: C_13  and  C_14
REMARK    7  A    between atoms: C_17  and  O_18
REMARK    8  A    between atoms: O_18  and  C_19
REMARK                            x       y       z     vdW  Elec       q    Type
REMARK                         _______ _______ _______ _____ _____    ______ ____
ROOT
ATOM      1  N   UNL     1      44.643   6.385  11.248  0.00  0.00    +0.000 N 
ATOM      2  H   UNL     1      43.668   6.231  11.507  0.00  0.00    +0.000 HD
ENDROOT
BRANCH   1   8
ATOM      3  C   UNL     1      44.445   4.168  10.242  0.00  0.00    +0.000 A 
ATOM      4  C   UNL     1      44.796   3.255   9.250  0.00  0.00    +0.000 A 
ATOM      5  C   UNL     1      45.786   3.616   8.351  0.00  0.00    +0.000 A 
ATOM      6  N   UNL     1      46.442   4.807   8.377  0.00  0.00    +0.000 NA
ATOM      7  C   UNL     1      46.059   5.674   9.346  0.00  0.00    +0.000 A 
ATOM      8  C   UNL     1      45.082   5.427  10.308  0.00  0.00    +0.000 A 
BRANCH   5   9
ATOM      9  C   UNL     1      46.155   2.670   7.253  0.00  0.00    +0.000 C 
ATOM     10  N   UNL     1      46.519   1.415   7.657  0.00  0.00    +0.000 N 
ATOM     11  O   UNL     1      46.146   2.993   6.071  0.00  0.00    +0.000 OA
ATOM     12  H   UNL     1      46.559   1.205   8.644  0.00  0.00    +0.000 HD
ATOM     13  H   UNL     1      46.823   0.743   6.973  0.00  0.00    +0.000 HD
ENDBRANCH   5   9
BRANCH   3  15
ATOM     14  C   UNL     1      43.401   2.609  11.716  0.00  0.00    +0.000 C 
ATOM     15  O   UNL     1      43.464   3.935  11.184  0.00  0.00    +0.000 OA
ENDBRANCH   3  15
ENDBRANCH   1   8
BRANCH   1  16
ATOM     16  C   UNL     1      45.495   7.155  12.166  0.00  0.00    +0.000 C 
ATOM     17  C   UNL     1      44.867   8.451  12.672  0.00  0.00    +0.000 C 
ATOM     18  C   UNL     1      46.074   8.512  11.799  0.00  0.00    +0.000 C 
BRANCH  16  19
ATOM     19  C   UNL     1      46.323   6.323  13.145  0.00  0.00    +0.000 A 
ATOM     20  C   UNL     1      47.508   6.832  13.711  0.00  0.00    +0.000 A 
ATOM     21  C   UNL     1      48.221   6.143  14.701  0.00  0.00    +0.000 A 
ATOM     22  C   UNL     1      47.740   4.932  15.180  0.00  0.00    +0.000 A 
ATOM     23  C   UNL     1      46.614   4.365  14.578  0.00  0.00    +0.000 A 
ATOM     24  C   UNL     1      45.921   5.050  13.572  0.00  0.00    +0.000 A 
BRANCH  22  25
ATOM     25  O   UNL     1      48.283   4.194  16.187  0.00  0.00    +0.000 OA
BRANCH  25  26
ATOM     26  C   UNL     1      47.590   4.093  17.424  0.00  0.00    +0.000 C 
ATOM     27  F   UNL     1      46.803   5.153  17.712  0.00  0.00    +0.000 F 
ATOM     28  F   UNL     1      46.796   2.999  17.381  0.00  0.00    +0.000 F 
ATOM     29  F   UNL     1      48.479   3.925  18.427  0.00  0.00    +0.000 F 
ENDBRANCH  25  26
ENDBRANCH  22  25
ENDBRANCH  16  19
ENDBRANCH   1  16
TORSDOF 7
ENDMDL
MODEL 6
REMARK VINA RESULT:    -6.022      4.863      8.723
REMARK INTER + INTRA:          -9.423
REMARK INTER:                  -8.169
REMARK INTRA:                  -1.254
REMARK UNBOUND:                -0.936
REMARK  Name = 
REMARK  8 active torsions:
REMARK  status: ('A' for Active; 'I' for Inactive)
REMARK    1  A    between atoms: C_1  and  O_2
REMARK    2  A    between atoms: O_2  and  C_3
REMARK    3  A    between atoms: C_5  and  C_6
REMARK    4  A    between atoms: C_11  and  N_12
REMARK    5  A    between atoms: N_12  and  C_13
REMARK    6  A    between atoms: C_13  and  C_14
REMARK    7  A    between atoms: C_17  and  O_18
REMARK    8  A    between atoms: O_18  and  C_19
REMARK                            x       y       z     vdW  Elec       q    Type
REMARK                         _______ _______ _______ _____ _____    ______ ____
ROOT
ATOM      1  N   UNL     1      49.283   7.480  14.343  0.00  0.00    +0.000 N 
ATOM      2  H   UNL     1      50.158   6.957  14.372  0.00  0.00    +0.000 HD
ENDROOT
BRANCH   1   8
ATOM      3  C   UNL     1      49.007   6.855  16.688  0.00  0.00    +0.000 A 
ATOM      4  C   UNL     1      48.658   7.189  17.994  0.00  0.00    +0.000 A 
ATOM      5  C   UNL     1      48.121   8.445  18.227  0.00  0.00    +0.000 A 
ATOM      6  N   UNL     1      47.910   9.375  17.258  0.00  0.00    +0.000 NA
ATOM      7  C   UNL     1      48.280   9.018  16.003  0.00  0.00    +0.000 A 
ATOM      8  C   UNL     1      48.824   7.787  15.642  0.00  0.00    +0.000 A 
BRANCH   5   9
ATOM      9  C   UNL     1      47.773   8.842  19.626  0.00  0.00    +0.000 C 
ATOM     10  N   UNL     1      46.874   9.867  19.739  0.00  0.00    +0.000 N 
ATOM     11  O   UNL     1      48.264   8.300  20.609  0.00  0.00    +0.000 OA
ATOM     12  H   UNL     1      46.530  10.318  18.903  0.00  0.00    +0.000 HD
ATOM     13  H   UNL     1      46.630  10.214  20.650  0.00  0.00    +0.000 HD
ENDBRANCH   5   9
BRANCH   3  15
ATOM     14  C   UNL     1      50.054   4.833  17.401  0.00  0.00    +0.000 C 
ATOM     15  O   UNL     1      49.565   5.645  16.330  0.00  0.00    +0.000 OA
ENDBRANCH   3  15
ENDBRANCH   1   8
BRANCH   1  16
ATOM     16  C   UNL     1      48.457   7.389  13.129  0.00  0.00    +0.000 C 
ATOM     17  C   UNL     1      49.250   7.390  11.825  0.00  0.00    +0.000 C 
ATOM     18  C   UNL     1      48.341   8.531  12.133  0.00  0.00    +0.000 C 
BRANCH  16  19
ATOM     19  C   UNL     1      47.237   6.473  13.233  0.00  0.00    +0.000 A 
ATOM     20  C   UNL     1      45.956   6.923  12.859  0.00  0.00    +0.000 A 
ATOM     21  C   UNL     1      44.844   6.072  12.827  0.00  0.00    +0.000 A 
ATOM     22  C   UNL     1      44.996   4.727  13.137  0.00  0.00    +0.000 A 
ATOM     23  C   UNL     1      46.237   4.273  13.593  0.00  0.00    +0.000 A 
ATOM     24  C   UNL     1      47.338   5.137  13.644  0.00  0.00    +0.000 A 
BRANCH  22  25
ATOM     25  O   UNL     1      44.025   3.775  13.076  0.00  0.00    +0.000 OA
BRANCH  25  26
ATOM     26  C   UNL     1      43.593   3.307  11.804  0.00  0.00    +0.000 C 
ATOM     27  F   UNL     1      43.041   2.074  11.820  0.00  0.00    +0.000 F 
ATOM     28  F   UNL     1      42.659   4.164  11.329  0.00  0.00    +0.000 F 
ATOM     29  F   UNL     1      44.635   3.307  10.946  0.00  0.00    +0.000 F 
ENDBRANCH  25  26
ENDBRANCH  22  25
ENDBRANCH  16  19
ENDBRANCH   1  16
TORSDOF 7
ENDMDL
MODEL 7
REMARK VINA RESULT:    -5.902      4.997      8.267
REMARK INTER + INTRA:          -9.254
REMARK INTER:                  -8.818
REMARK INTRA:                  -0.436
REMARK UNBOUND:                -0.936
REMARK  Name = 
REMARK  8 active torsions:
REMARK  status: ('A' for Active; 'I' for Inactive)
REMARK    1  A    between atoms: C_1  and  O_2
REMARK    2  A    between atoms: O_2  and  C_3
REMARK    3  A    between atoms: C_5  and  C_6
REMARK    4  A    between atoms: C_11  and  N_12
REMARK    5  A    between atoms: N_12  and  C_13
REMARK    6  A    between atoms: C_13  and  C_14
REMARK    7  A    between atoms: C_17  and  O_18
REMARK    8  A    between atoms: O_18  and  C_19
REMARK                            x       y       z     vdW  Elec       q    Type
REMARK                         _______ _______ _______ _____ _____    ______ ____
ROOT
ATOM      1  N   UNL     1      48.264   6.372  13.765  0.00  0.00    +0.000 N 
ATOM      2  H   UNL     1      48.693   5.487  13.496  0.00  0.00    +0.000 HD
ENDROOT
BRANCH   1   8
ATOM      3  C   UNL     1      48.407   5.599  16.078  0.00  0.00    +0.000 A 
ATOM      4  C   UNL     1      48.717   5.837  17.415  0.00  0.00    +0.000 A 
ATOM      5  C   UNL     1      49.073   7.125  17.784  0.00  0.00    +0.000 A 
ATOM      6  N   UNL     1      49.137   8.174  16.922  0.00  0.00    +0.000 NA
ATOM      7  C   UNL     1      48.847   7.897  15.627  0.00  0.00    +0.000 A 
ATOM      8  C   UNL     1      48.472   6.648  15.134  0.00  0.00    +0.000 A 
BRANCH   5   9
ATOM      9  C   UNL     1      49.446   7.400  19.205  0.00  0.00    +0.000 C 
ATOM     10  N   UNL     1      50.416   8.347  19.385  0.00  0.00    +0.000 N 
ATOM     11  O   UNL     1      48.931   6.813  20.150  0.00  0.00    +0.000 OA
ATOM     12  H   UNL     1      50.848   8.773  18.577  0.00  0.00    +0.000 HD
ATOM     13  H   UNL     1      50.747   8.549  20.313  0.00  0.00    +0.000 HD
ENDBRANCH   5   9
BRANCH   3  15
ATOM     14  C   UNL     1      47.792   3.343  16.554  0.00  0.00    +0.000 C 
ATOM     15  O   UNL     1      48.056   4.360  15.583  0.00  0.00    +0.000 OA
ENDBRANCH   3  15
ENDBRANCH   1   8
BRANCH   1  16
ATOM     16  C   UNL     1      47.179   6.904  12.927  0.00  0.00    +0.000 C 
ATOM     17  C   UNL     1      47.553   8.146  12.123  0.00  0.00    +0.000 C 
ATOM     18  C   UNL     1      46.524   8.249  13.196  0.00  0.00    +0.000 C 
BRANCH  16  19
ATOM     19  C   UNL     1      46.288   5.854  12.263  0.00  0.00    +0.000 A 
ATOM     20  C   UNL     1      45.769   6.053  10.969  0.00  0.00    +0.000 A 
ATOM     21  C   UNL     1      45.054   5.059  10.288  0.00  0.00    +0.000 A 
ATOM     22  C   UNL     1      44.871   3.816  10.878  0.00  0.00    +0.000 A 
ATOM     23  C   UNL     1      45.302   3.619  12.192  0.00  0.00    +0.000 A 
ATOM     24  C   UNL     1      45.996   4.627  12.875  0.00  0.00    +0.000 A 
BRANCH  22  25
ATOM     25  O   UNL     1      44.266   2.739  10.307  0.00  0.00    +0.000 OA
BRANCH  25  26
ATOM     26  C   UNL     1      44.801   2.200   9.104  0.00  0.00    +0.000 C 
ATOM     27  F   UNL     1      46.151   2.164   9.061  0.00  0.00    +0.000 F 
ATOM     28  F   UNL     1      44.357   0.929   8.971  0.00  0.00    +0.000 F 
ATOM     29  F   UNL     1      44.350   2.913   8.050  0.00  0.00    +0.000 F 
ENDBRANCH  25  26
ENDBRANCH  22  25
ENDBRANCH  16  19
ENDBRANCH   1  16
TORSDOF 7
ENDMDL
MODEL 8
REMARK VINA RESULT:    -5.561      5.091      8.021
REMARK INTER + INTRA:          -8.773
REMARK INTER:                  -8.602
REMARK INTRA:                  -0.171
REMARK UNBOUND:                -0.936
REMARK  Name = 
REMARK  8 active torsions:
REMARK  status: ('A' for Active; 'I' for Inactive)
REMARK    1  A    between atoms: C_1  and  O_2
REMARK    2  A    between atoms: O_2  and  C_3
REMARK    3  A    between atoms: C_5  and  C_6
REMARK    4  A    between atoms: C_11  and  N_12
REMARK    5  A    between atoms: N_12  and  C_13
REMARK    6  A    between atoms: C_13  and  C_14
REMARK    7  A    between atoms: C_17  and  O_18
REMARK    8  A    between atoms: O_18  and  C_19
REMARK                            x       y       z     vdW  Elec       q    Type
REMARK                         _______ _______ _______ _____ _____    ______ ____
ROOT
ATOM      1  N   UNL     1      48.295   6.786  15.938  0.00  0.00    +0.000 N 
ATOM      2  H   UNL     1      47.839   7.414  16.599  0.00  0.00    +0.000 HD
ENDROOT
BRANCH   1   8
ATOM      3  C   UNL     1      48.898   4.804  17.231  0.00  0.00    +0.000 A 
ATOM      4  C   UNL     1      49.867   3.959  17.767  0.00  0.00    +0.000 A 
ATOM      5  C   UNL     1      51.197   4.329  17.643  0.00  0.00    +0.000 A 
ATOM      6  N   UNL     1      51.617   5.469  17.033  0.00  0.00    +0.000 NA
ATOM      7  C   UNL     1      50.645   6.255  16.509  0.00  0.00    +0.000 A 
ATOM      8  C   UNL     1      49.277   5.995  16.572  0.00  0.00    +0.000 A 
BRANCH   5   9
ATOM      9  C   UNL     1      52.259   3.422  18.176  0.00  0.00    +0.000 C 
ATOM     10  N   UNL     1      51.954   2.089  18.163  0.00  0.00    +0.000 N 
ATOM     11  O   UNL     1      53.329   3.837  18.607  0.00  0.00    +0.000 OA
ATOM     12  H   UNL     1      51.043   1.793  17.843  0.00  0.00    +0.000 HD
ATOM     13  H   UNL     1      52.606   1.427  18.549  0.00  0.00    +0.000 HD
ENDBRANCH   5   9
BRANCH   3  15
ATOM     14  C   UNL     1      47.173   3.164  17.391  0.00  0.00    +0.000 C 
ATOM     15  O   UNL     1      47.544   4.540  17.274  0.00  0.00    +0.000 OA
ENDBRANCH   3  15
ENDBRANCH   1   8
BRANCH   1  16
ATOM     16  C   UNL     1      48.246   7.127  14.508  0.00  0.00    +0.000 C 
ATOM     17  C   UNL     1      49.561   7.652  13.938  0.00  0.00    +0.000 C 
ATOM     18  C   UNL     1      48.377   8.555  14.003  0.00  0.00    +0.000 C 
BRANCH  16  19
ATOM     19  C   UNL     1      47.403   6.191  13.640  0.00  0.00    +0.000 A 
ATOM     20  C   UNL     1      47.205   4.845  14.002  0.00  0.00    +0.000 A 
ATOM     21  C   UNL     1      46.340   3.999  13.294  0.00  0.00    +0.000 A 
ATOM     22  C   UNL     1      45.619   4.497  12.217  0.00  0.00    +0.000 A 
ATOM     23  C   UNL     1      45.860   5.803  11.785  0.00  0.00    +0.000 A 
ATOM     24  C   UNL     1      46.744   6.635  12.485  0.00  0.00    +0.000 A 
BRANCH  22  25
ATOM     25  O   UNL     1      44.693   3.815  11.489  0.00  0.00    +0.000 OA
BRANCH  25  26
ATOM     26  C   UNL     1      43.357   3.731  11.970  0.00  0.00    +0.000 C 
ATOM     27  F   UNL     1      42.484   4.547  11.341  0.00  0.00    +0.000 F 
ATOM     28  F   UNL     1      42.921   2.462  11.801  0.00  0.00    +0.000 F 
ATOM     29  F   UNL     1      43.336   4.007  13.292  0.00  0.00    +0.000 F 
ENDBRANCH  25  26
ENDBRANCH  22  25
ENDBRANCH  16  19
ENDBRANCH   1  16
TORSDOF 7
ENDMDL
MODEL 9
REMARK VINA RESULT:    -5.558      2.867      4.993
REMARK INTER + INTRA:          -8.769
REMARK INTER:                  -7.704
REMARK INTRA:                  -1.066
REMARK UNBOUND:                -0.936
REMARK  Name = 
REMARK  8 active torsions:
REMARK  status: ('A' for Active; 'I' for Inactive)
REMARK    1  A    between atoms: C_1  and  O_2
REMARK    2  A    between atoms: O_2  and  C_3
REMARK    3  A    between atoms: C_5  and  C_6
REMARK    4  A    between atoms: C_11  and  N_12
REMARK    5  A    between atoms: N_12  and  C_13
REMARK    6  A    between atoms: C_13  and  C_14
REMARK    7  A    between atoms: C_17  and  O_18
REMARK    8  A    between atoms: O_18  and  C_19
REMARK                            x       y       z     vdW  Elec       q    Type
REMARK                         _______ _______ _______ _____ _____    ______ ____
ROOT
ATOM      1  N   UNL     1      46.706   7.484  12.935  0.00  0.00    +0.000 N 
ATOM      2  H   UNL     1      46.085   7.922  13.616  0.00  0.00    +0.000 HD
ENDROOT
BRANCH   1   8
ATOM      3  C   UNL     1      46.029   5.153  13.201  0.00  0.00    +0.000 A 
ATOM      4  C   UNL     1      45.369   4.024  12.720  0.00  0.00    +0.000 A 
ATOM      5  C   UNL     1      44.839   4.071  11.441  0.00  0.00    +0.000 A 
ATOM      6  N   UNL     1      44.924   5.152  10.621  0.00  0.00    +0.000 NA
ATOM      7  C   UNL     1      45.557   6.237  11.132  0.00  0.00    +0.000 A 
ATOM      8  C   UNL     1      46.134   6.310  12.398  0.00  0.00    +0.000 A 
BRANCH   5   9
ATOM      9  C   UNL     1      44.094   2.887  10.914  0.00  0.00    +0.000 C 
ATOM     10  N   UNL     1      44.680   2.246   9.858  0.00  0.00    +0.000 N 
ATOM     11  O   UNL     1      43.025   2.515  11.385  0.00  0.00    +0.000 OA
ATOM     12  H   UNL     1      45.538   2.613   9.470  0.00  0.00    +0.000 HD
ATOM     13  H   UNL     1      44.210   1.469   9.426  0.00  0.00    +0.000 HD
ENDBRANCH   5   9
BRANCH   3  15
ATOM     14  C   UNL     1      47.150   4.032  14.984  0.00  0.00    +0.000 C 
ATOM     15  O   UNL     1      46.583   5.236  14.461  0.00  0.00    +0.000 OA
ENDBRANCH   3  15
ENDBRANCH   1   8
BRANCH   1  16
ATOM     16  C   UNL     1      48.141   7.801  12.996  0.00  0.00    +0.000 C 
ATOM     17  C   UNL     1      48.609   8.809  11.950  0.00  0.00    +0.000 C 
ATOM     18  C   UNL     1      49.112   7.407  11.895  0.00  0.00    +0.000 C 
BRANCH  16  19
ATOM     19  C   UNL     1      48.734   7.890  14.403  0.00  0.00    +0.000 A 
ATOM     20  C   UNL     1      48.251   8.827  15.338  0.00  0.00    +0.000 A 
ATOM     21  C   UNL     1      48.689   8.849  16.668  0.00  0.00    +0.000 A 
ATOM     22  C   UNL     1      49.604   7.902  17.109  0.00  0.00    +0.000 A 
ATOM     23  C   UNL     1      50.161   7.017  16.183  0.00  0.00    +0.000 A 
ATOM     24  C   UNL     1      49.735   7.016  14.849  0.00  0.00    +0.000 A 
BRANCH  22  25
ATOM     25  O   UNL     1      50.058   7.758  18.384  0.00  0.00    +0.000 OA
BRANCH  25  26
ATOM     26  C   UNL     1      49.338   6.928  19.286  0.00  0.00    +0.000 C 
ATOM     27  F   UNL     1      49.015   7.522  20.456  0.00  0.00    +0.000 F 
ATOM     28  F   UNL     1      48.183   6.550  18.691  0.00  0.00    +0.000 F 
ATOM     29  F   UNL     1      50.057   5.815  19.547  0.00  0.00    +0.000 F 
ENDBRANCH  25  26
ENDBRANCH  22  25
ENDBRANCH  16  19
ENDBRANCH   1  16
TORSDOF 7
ENDMDL
