MODEL 1
REMARK VINA RESULT:    -8.277      0.000      0.000
REMARK INTER + INTRA:         -12.180
REMARK INTER:                 -11.181
REMARK INTRA:                  -0.999
REMARK UNBOUND:                -0.999
REMARK  Name = 
REMARK  7 active torsions:
REMARK  status: ('A' for Active; 'I' for Inactive)
REMARK    1  A    between atoms: C_1  and  C_2
REMARK    2  A    between atoms: C_6  and  C_7
REMARK    3  A    between atoms: N_9  and  C_10
REMARK    4  A    between atoms: C_10  and  C_11
REMARK    5  A    between atoms: C_14  and  C_15
REMARK    6  A    between atoms: C_15  and  N_16
REMARK    7  A    between atoms: C_17  and  C_19
REMARK                            x       y       z     vdW  Elec       q    Type
REMARK                         _______ _______ _______ _____ _____    ______ ____
ROOT
ATOM      1  C   UNL     1      45.210   6.591  11.412  0.00  0.00    +0.000 A 
ATOM      2  C   UNL     1      46.376   5.970  11.882  0.00  0.00    +0.000 A 
ATOM      3  C   UNL     1      47.229   6.622  12.788  0.00  0.00    +0.000 A 
ATOM      4  C   UNL     1      46.928   7.904  13.265  0.00  0.00    +0.000 A 
ATOM      5  C   UNL     1      45.777   8.537  12.775  0.00  0.00    +0.000 A 
ATOM      6  C   UNL     1      44.921   7.882  11.874  0.00  0.00    +0.000 A 
ENDROOT
BRANCH   1   7
ATOM      7  C   UNL     1      44.314   5.897  10.410  0.00  0.00    +0.000 C 
BRANCH   7  10
ATOM      8  C   UNL     1      44.857   3.723   9.355  0.00  0.00    +0.000 C 
ATOM      9  O   UNL     1      44.104   3.083  10.077  0.00  0.00    +0.000 OA
ATOM     10  N   UNL     1      45.033   5.094   9.449  0.00  0.00    +0.000 N 
ATOM     11  H   UNL     1      45.666   5.521   8.780  0.00  0.00    +0.000 HD
BRANCH   8  17
ATOM     12  C   UNL     1      46.794  -0.389   7.653  0.00  0.00    +0.000 C 
ATOM     13  C   UNL     1      46.593   1.085   7.470  0.00  0.00    +0.000 A 
ATOM     14  C   UNL     1      47.132   1.749   6.371  0.00  0.00    +0.000 A 
ATOM     15  C   UNL     1      46.926   3.120   6.245  0.00  0.00    +0.000 A 
ATOM     16  C   UNL     1      46.184   3.789   7.214  0.00  0.00    +0.000 A 
ATOM     17  C   UNL     1      45.674   3.055   8.279  0.00  0.00    +0.000 A 
ATOM     18  N   UNL     1      45.868   1.715   8.427  0.00  0.00    +0.000 NA
ENDBRANCH   8  17
ENDBRANCH   7  10
ENDBRANCH   1   7
BRANCH   4  19
ATOM     19  C   UNL     1      47.814   8.576  14.289  0.00  0.00    +0.000 C 
BRANCH  19  20
ATOM     20  N   UNL     1      48.087   7.730  15.426  0.00  0.00    +0.000 N 
ATOM     21  C   UNL     1      49.248   6.998  15.514  0.00  0.00    +0.000 C 
ATOM     22  O   UNL     1      50.134   7.069  14.667  0.00  0.00    +0.000 OA
ATOM     23  H   UNL     1      47.295   7.475  16.007  0.00  0.00    +0.000 HD
BRANCH  21  24
ATOM     24  C   UNL     1      49.401   6.161  16.711  0.00  0.00    +0.000 A 
ATOM     25  C   UNL     1      50.369   6.467  17.661  0.00  0.00    +0.000 A 
ATOM     26  S   UNL     1      50.381   5.400  18.993  0.00  0.00    +0.000 S 
ATOM     27  C   UNL     1      49.122   4.468  18.330  0.00  0.00    +0.000 A 
ATOM     28  N   UNL     1      48.656   3.361  18.970  0.00  0.00    +0.000 NA
ATOM     29  C   UNL     1      47.708   2.744  18.344  0.00  0.00    +0.000 A 
ATOM     30  N   UNL     1      47.183   3.135  17.142  0.00  0.00    +0.000 N 
ATOM     31  C   UNL     1      47.608   4.255  16.469  0.00  0.00    +0.000 A 
ATOM     32  O   UNL     1      47.085   4.601  15.415  0.00  0.00    +0.000 OA
ATOM     33  C   UNL     1      48.682   4.979  17.121  0.00  0.00    +0.000 A 
ATOM     34  H   UNL     1      46.429   2.622  16.711  0.00  0.00    +0.000 HD
ENDBRANCH  21  24
ENDBRANCH  19  20
ENDBRANCH   4  19
TORSDOF 6
ENDMDL
MODEL 2
REMARK VINA RESULT:    -8.087      2.281      2.672
REMARK INTER + INTRA:         -11.923
REMARK INTER:                 -11.004
REMARK INTRA:                  -0.919
REMARK UNBOUND:                -0.999
REMARK  Name = 
REMARK  7 active torsions:
REMARK  status: ('A' for Active; 'I' for Inactive)
REMARK    1  A    between atoms: C_1  and  C_2
REMARK    2  A    between atoms: C_6  and  C_7
REMARK    3  A    between atoms: N_9  and  C_10
REMARK    4  A    between atoms: C_10  and  C_11
REMARK    5  A    between atoms: C_14  and  C_15
REMARK    6  A    between atoms: C_15  and  N_16
REMARK    7  A    between atoms: C_17  and  C_19
REMARK                            x       y       z     vdW  Elec       q    Type
REMARK                         _______ _______ _______ _____ _____    ______ ____
ROOT
ATOM      1  C   UNL     1      46.160   5.214  13.188  0.00  0.00    +0.000 A 
ATOM      2  C   UNL     1      46.530   4.642  14.414  0.00  0.00    +0.000 A 
ATOM      3  C   UNL     1      47.529   5.223  15.211  0.00  0.00    +0.000 A 
ATOM      4  C   UNL     1      48.171   6.404  14.815  0.00  0.00    +0.000 A 
ATOM      5  C   UNL     1      47.820   6.962  13.577  0.00  0.00    +0.000 A 
ATOM      6  C   UNL     1      46.816   6.384  12.783  0.00  0.00    +0.000 A 
ENDROOT
BRANCH   1   7
ATOM      7  C   UNL     1      45.107   4.564  12.317  0.00  0.00    +0.000 C 
BRANCH   7  10
ATOM      8  C   UNL     1      44.801   3.495  10.103  0.00  0.00    +0.000 C 
ATOM      9  O   UNL     1      43.591   3.369  10.231  0.00  0.00    +0.000 OA
ATOM     10  N   UNL     1      45.623   4.055  11.068  0.00  0.00    +0.000 N 
ATOM     11  H   UNL     1      46.610   4.130  10.841  0.00  0.00    +0.000 HD
BRANCH   8  17
ATOM     12  C   UNL     1      46.761  -0.193   7.631  0.00  0.00    +0.000 C 
ATOM     13  C   UNL     1      46.444   1.271   7.679  0.00  0.00    +0.000 A 
ATOM     14  C   UNL     1      46.794   2.112   6.626  0.00  0.00    +0.000 A 
ATOM     15  C   UNL     1      46.486   3.467   6.716  0.00  0.00    +0.000 A 
ATOM     16  C   UNL     1      45.834   3.943   7.849  0.00  0.00    +0.000 A 
ATOM     17  C   UNL     1      45.514   3.040   8.855  0.00  0.00    +0.000 A 
ATOM     18  N   UNL     1      45.810   1.711   8.793  0.00  0.00    +0.000 NA
ENDBRANCH   8  17
ENDBRANCH   7  10
ENDBRANCH   1   7
BRANCH   4  19
ATOM     19  C   UNL     1      49.199   7.062  15.706  0.00  0.00    +0.000 C 
BRANCH  19  20
ATOM     20  N   UNL     1      50.165   6.125  16.225  0.00  0.00    +0.000 N 
ATOM     21  C   UNL     1      50.280   5.885  17.574  0.00  0.00    +0.000 C 
ATOM     22  O   UNL     1      49.534   6.404  18.399  0.00  0.00    +0.000 OA
ATOM     23  H   UNL     1      50.929   5.869  15.609  0.00  0.00    +0.000 HD
BRANCH  21  24
ATOM     24  C   UNL     1      51.314   4.923  17.979  0.00  0.00    +0.000 A 
ATOM     25  C   UNL     1      52.454   5.358  18.645  0.00  0.00    +0.000 A 
ATOM     26  S   UNL     1      53.527   4.097  19.058  0.00  0.00    +0.000 S 
ATOM     27  C   UNL     1      52.528   2.930  18.327  0.00  0.00    +0.000 A 
ATOM     28  N   UNL     1      52.883   1.617  18.304  0.00  0.00    +0.000 NA
ATOM     29  C   UNL     1      52.035   0.847  17.704  0.00  0.00    +0.000 A 
ATOM     30  N   UNL     1      50.866   1.270  17.132  0.00  0.00    +0.000 N 
ATOM     31  C   UNL     1      50.456   2.581  17.149  0.00  0.00    +0.000 A 
ATOM     32  O   UNL     1      49.381   2.918  16.666  0.00  0.00    +0.000 OA
ATOM     33  C   UNL     1      51.379   3.493  17.799  0.00  0.00    +0.000 A 
ATOM     34  H   UNL     1      50.234   0.616  16.695  0.00  0.00    +0.000 HD
ENDBRANCH  21  24
ENDBRANCH  19  20
ENDBRANCH   4  19
TORSDOF 6
ENDMDL
MODEL 3
REMARK VINA RESULT:    -7.886      2.283      2.611
REMARK INTER + INTRA:         -11.651
REMARK INTER:                 -10.731
REMARK INTRA:                  -0.920
REMARK UNBOUND:                -0.999
REMARK  Name = 
REMARK  7 active torsions:
REMARK  status: ('A' for Active; 'I' for Inactive)
REMARK    1  A    between atoms: C_1  and  C_2
REMARK    2  A    between atoms: C_6  and  C_7
REMARK    3  A    between atoms: N_9  and  C_10
REMARK    4  A    between atoms: C_10  and  C_11
REMARK    5  A    between atoms: C_14  and  C_15
REMARK    6  A    between atoms: C_15  and  N_16
REMARK    7  A    between atoms: C_17  and  C_19
REMARK                            x       y       z     vdW  Elec       q    Type
REMARK                         _______ _______ _______ _____ _____    ______ ____
ROOT
ATOM      1  C   UNL     1      45.167   6.490  11.671  0.00  0.00    +0.000 A 
ATOM      2  C   UNL     1      45.020   7.884  11.681  0.00  0.00    +0.000 A 
ATOM      3  C   UNL     1      45.826   8.692  12.499  0.00  0.00    +0.000 A 
ATOM      4  C   UNL     1      46.817   8.130  13.314  0.00  0.00    +0.000 A 
ATOM      5  C   UNL     1      46.949   6.734  13.325  0.00  0.00    +0.000 A 
ATOM      6  C   UNL     1      46.146   5.927  12.501  0.00  0.00    +0.000 A 
ENDROOT
BRANCH   1   7
ATOM      7  C   UNL     1      44.273   5.623  10.814  0.00  0.00    +0.000 C 
BRANCH   7  10
ATOM      8  C   UNL     1      44.827   3.525   9.618  0.00  0.00    +0.000 C 
ATOM      9  O   UNL     1      44.101   2.830  10.315  0.00  0.00    +0.000 OA
ATOM     10  N   UNL     1      44.983   4.891   9.791  0.00  0.00    +0.000 N 
ATOM     11  H   UNL     1      45.594   5.369   9.136  0.00  0.00    +0.000 HD
BRANCH   8  17
ATOM     12  C   UNL     1      46.791  -0.442   7.629  0.00  0.00    +0.000 C 
ATOM     13  C   UNL     1      46.563   1.036   7.541  0.00  0.00    +0.000 A 
ATOM     14  C   UNL     1      47.069   1.775   6.474  0.00  0.00    +0.000 A 
ATOM     15  C   UNL     1      46.838   3.147   6.436  0.00  0.00    +0.000 A 
ATOM     16  C   UNL     1      46.107   3.743   7.458  0.00  0.00    +0.000 A 
ATOM     17  C   UNL     1      45.632   2.938   8.486  0.00  0.00    +0.000 A 
ATOM     18  N   UNL     1      45.849   1.594   8.549  0.00  0.00    +0.000 NA
ENDBRANCH   8  17
ENDBRANCH   7  10
ENDBRANCH   1   7
BRANCH   4  19
ATOM     19  C   UNL     1      47.727   9.007  14.143  0.00  0.00    +0.000 C 
BRANCH  19  20
ATOM     20  N   UNL     1      47.496   8.863  15.560  0.00  0.00    +0.000 N 
ATOM     21  C   UNL     1      48.306   9.480  16.485  0.00  0.00    +0.000 C 
ATOM     22  O   UNL     1      49.224  10.227  16.160  0.00  0.00    +0.000 OA
ATOM     23  H   UNL     1      46.912   8.088  15.851  0.00  0.00    +0.000 HD
BRANCH  21  24
ATOM     24  C   UNL     1      47.979   9.242  17.898  0.00  0.00    +0.000 A 
ATOM     25  C   UNL     1      47.612  10.301  18.720  0.00  0.00    +0.000 A 
ATOM     26  S   UNL     1      47.244   9.829  20.318  0.00  0.00    +0.000 S 
ATOM     27  C   UNL     1      47.602   8.201  19.981  0.00  0.00    +0.000 A 
ATOM     28  N   UNL     1      47.514   7.247  20.947  0.00  0.00    +0.000 NA
ATOM     29  C   UNL     1      47.828   6.057  20.551  0.00  0.00    +0.000 A 
ATOM     30  N   UNL     1      48.216   5.735  19.279  0.00  0.00    +0.000 N 
ATOM     31  C   UNL     1      48.300   6.660  18.266  0.00  0.00    +0.000 A 
ATOM     32  O   UNL     1      48.609   6.329  17.127  0.00  0.00    +0.000 OA
ATOM     33  C   UNL     1      47.972   8.017  18.659  0.00  0.00    +0.000 A 
ATOM     34  H   UNL     1      48.430   4.782  19.025  0.00  0.00    +0.000 HD
ENDBRANCH  21  24
ENDBRANCH  19  20
ENDBRANCH   4  19
TORSDOF 6
ENDMDL
MODEL 4
REMARK VINA RESULT:    -7.588      1.831      2.588
REMARK INTER + INTRA:         -11.249
REMARK INTER:                 -10.307
REMARK INTRA:                  -0.943
REMARK UNBOUND:                -0.999
REMARK  Name = 
REMARK  7 active torsions:
REMARK  status: ('A' for Active; 'I' for Inactive)
REMARK    1  A    between atoms: C_1  and  C_2
REMARK    2  A    between atoms: C_6  and  C_7
REMARK    3  A    between atoms: N_9  and  C_10
REMARK    4  A    between atoms: C_10  and  C_11
REMARK    5  A    between atoms: C_14  and  C_15
REMARK    6  A    between atoms: C_15  and  N_16
REMARK    7  A    between atoms: C_17  and  C_19
REMARK                            x       y       z     vdW  Elec       q    Type
REMARK                         _______ _______ _______ _____ _____    ______ ____
ROOT
ATOM      1  C   UNL     1      44.736   5.086  11.834  0.00  0.00    +0.000 A 
ATOM      2  C   UNL     1      44.247   6.338  11.434  0.00  0.00    +0.000 A 
ATOM      3  C   UNL     1      44.852   7.527  11.875  0.00  0.00    +0.000 A 
ATOM      4  C   UNL     1      45.976   7.496  12.710  0.00  0.00    +0.000 A 
ATOM      5  C   UNL     1      46.451   6.246  13.131  0.00  0.00    +0.000 A 
ATOM      6  C   UNL     1      45.850   5.057  12.686  0.00  0.00    +0.000 A 
ENDROOT
BRANCH   1   7
ATOM      7  C   UNL     1      44.059   3.811  11.385  0.00  0.00    +0.000 C 
BRANCH   7  10
ATOM      8  C   UNL     1      44.790   3.399   9.054  0.00  0.00    +0.000 C 
ATOM      9  O   UNL     1      44.126   4.315   8.589  0.00  0.00    +0.000 OA
ATOM     10  N   UNL     1      44.813   3.071  10.400  0.00  0.00    +0.000 N 
ATOM     11  H   UNL     1      45.421   2.305  10.675  0.00  0.00    +0.000 HD
BRANCH   8  17
ATOM     12  C   UNL     1      47.482   3.047   5.031  0.00  0.00    +0.000 C 
ATOM     13  C   UNL     1      46.945   2.372   6.257  0.00  0.00    +0.000 A 
ATOM     14  C   UNL     1      47.253   1.042   6.533  0.00  0.00    +0.000 A 
ATOM     15  C   UNL     1      46.728   0.454   7.681  0.00  0.00    +0.000 A 
ATOM     16  C   UNL     1      45.915   1.208   8.521  0.00  0.00    +0.000 A 
ATOM     17  C   UNL     1      45.657   2.530   8.179  0.00  0.00    +0.000 A 
ATOM     18  N   UNL     1      46.155   3.126   7.060  0.00  0.00    +0.000 NA
ENDBRANCH   8  17
ENDBRANCH   7  10
ENDBRANCH   1   7
BRANCH   4  19
ATOM     19  C   UNL     1      46.665   8.775  13.128  0.00  0.00    +0.000 C 
BRANCH  19  20
ATOM     20  N   UNL     1      47.086   8.754  14.507  0.00  0.00    +0.000 N 
ATOM     21  C   UNL     1      48.415   8.682  14.851  0.00  0.00    +0.000 C 
ATOM     22  O   UNL     1      49.312   8.693  14.012  0.00  0.00    +0.000 OA
ATOM     23  H   UNL     1      46.382   8.511  15.196  0.00  0.00    +0.000 HD
BRANCH  21  24
ATOM     24  C   UNL     1      48.716   8.648  16.289  0.00  0.00    +0.000 A 
ATOM     25  C   UNL     1      48.883   9.832  16.998  0.00  0.00    +0.000 A 
ATOM     26  S   UNL     1      49.199   9.595  18.658  0.00  0.00    +0.000 S 
ATOM     27  C   UNL     1      49.166   7.903  18.481  0.00  0.00    +0.000 A 
ATOM     28  N   UNL     1      49.392   7.082  19.542  0.00  0.00    +0.000 NA
ATOM     29  C   UNL     1      49.348   5.821  19.258  0.00  0.00    +0.000 A 
ATOM     30  N   UNL     1      49.095   5.310  18.014  0.00  0.00    +0.000 N 
ATOM     31  C   UNL     1      48.840   6.100  16.919  0.00  0.00    +0.000 A 
ATOM     32  O   UNL     1      48.573   5.608  15.828  0.00  0.00    +0.000 OA
ATOM     33  C   UNL     1      48.891   7.526  17.178  0.00  0.00    +0.000 A 
ATOM     34  H   UNL     1      49.054   4.314  17.858  0.00  0.00    +0.000 HD
ENDBRANCH  21  24
ENDBRANCH  19  20
ENDBRANCH   4  19
TORSDOF 6
ENDMDL
MODEL 5
REMARK VINA RESULT:    -7.298      1.958      2.411
REMARK INTER + INTRA:         -10.858
REMARK INTER:                  -9.928
REMARK INTRA:                  -0.929
REMARK UNBOUND:                -0.999
REMARK  Name = 
REMARK  7 active torsions:
REMARK  status: ('A' for Active; 'I' for Inactive)
REMARK    1  A    between atoms: C_1  and  C_2
REMARK    2  A    between atoms: C_6  and  C_7
REMARK    3  A    between atoms: N_9  and  C_10
REMARK    4  A    between atoms: C_10  and  C_11
REMARK    5  A    between atoms: C_14  and  C_15
REMARK    6  A    between atoms: C_15  and  N_16
REMARK    7  A    between atoms: C_17  and  C_19
REMARK                            x       y       z     vdW  Elec       q    Type
REMARK                         _______ _______ _______ _____ _____    ______ ____
ROOT
ATOM      1  C   UNL     1      46.139   6.643  12.465  0.00  0.00    +0.000 A 
ATOM      2  C   UNL     1      46.821   5.707  13.255  0.00  0.00    +0.000 A 
ATOM      3  C   UNL     1      47.818   6.111  14.157  0.00  0.00    +0.000 A 
ATOM      4  C   UNL     1      48.145   7.464  14.311  0.00  0.00    +0.000 A 
ATOM      5  C   UNL     1      47.482   8.399  13.503  0.00  0.00    +0.000 A 
ATOM      6  C   UNL     1      46.480   7.995  12.605  0.00  0.00    +0.000 A 
ENDROOT
BRANCH   1   7
ATOM      7  C   UNL     1      45.090   6.198  11.469  0.00  0.00    +0.000 C 
BRANCH   7  10
ATOM      8  C   UNL     1      44.694   4.497   9.712  0.00  0.00    +0.000 C 
ATOM      9  O   UNL     1      43.484   4.677   9.685  0.00  0.00    +0.000 OA
ATOM     10  N   UNL     1      45.555   5.183  10.554  0.00  0.00    +0.000 N 
ATOM     11  H   UNL     1      46.544   4.967  10.471  0.00  0.00    +0.000 HD
BRANCH   8  17
ATOM     12  C   UNL     1      47.042   3.666   5.547  0.00  0.00    +0.000 C 
ATOM     13  C   UNL     1      46.488   3.104   6.820  0.00  0.00    +0.000 A 
ATOM     14  C   UNL     1      46.607   1.747   7.114  0.00  0.00    +0.000 A 
ATOM     15  C   UNL     1      46.072   1.266   8.306  0.00  0.00    +0.000 A 
ATOM     16  C   UNL     1      45.437   2.151   9.173  0.00  0.00    +0.000 A 
ATOM     17  C   UNL     1      45.362   3.491   8.811  0.00  0.00    +0.000 A 
ATOM     18  N   UNL     1      45.874   3.984   7.648  0.00  0.00    +0.000 NA
ENDBRANCH   8  17
ENDBRANCH   7  10
ENDBRANCH   1   7
BRANCH   4  19
ATOM     19  C   UNL     1      49.172   7.901  15.331  0.00  0.00    +0.000 C 
BRANCH  19  20
ATOM     20  N   UNL     1      50.025   6.819  15.758  0.00  0.00    +0.000 N 
ATOM     21  C   UNL     1      50.283   6.591  17.090  0.00  0.00    +0.000 C 
ATOM     22  O   UNL     1      49.759   7.252  17.982  0.00  0.00    +0.000 OA
ATOM     23  H   UNL     1      50.640   6.419  15.059  0.00  0.00    +0.000 HD
BRANCH  21  24
ATOM     24  C   UNL     1      51.181   5.470  17.397  0.00  0.00    +0.000 A 
ATOM     25  C   UNL     1      52.483   5.711  17.820  0.00  0.00    +0.000 A 
ATOM     26  S   UNL     1      53.367   4.290  18.155  0.00  0.00    +0.000 S 
ATOM     27  C   UNL     1      52.056   3.302  17.709  0.00  0.00    +0.000 A 
ATOM     28  N   UNL     1      52.157   1.945  17.741  0.00  0.00    +0.000 NA
ATOM     29  C   UNL     1      51.088   1.323  17.363  0.00  0.00    +0.000 A 
ATOM     30  N   UNL     1      49.931   1.933  16.962  0.00  0.00    +0.000 N 
ATOM     31  C   UNL     1      49.776   3.298  16.933  0.00  0.00    +0.000 A 
ATOM     32  O   UNL     1      48.710   3.811  16.611  0.00  0.00    +0.000 OA
ATOM     33  C   UNL     1      50.952   4.047  17.335  0.00  0.00    +0.000 A 
ATOM     34  H   UNL     1      49.122   1.392  16.697  0.00  0.00    +0.000 HD
ENDBRANCH  21  24
ENDBRANCH  19  20
ENDBRANCH   4  19
TORSDOF 6
ENDMDL
MODEL 6
REMARK VINA RESULT:    -7.290      3.705      5.122
REMARK INTER + INTRA:         -10.846
REMARK INTER:                  -9.660
REMARK INTRA:                  -1.186
REMARK UNBOUND:                -0.999
REMARK  Name = 
REMARK  7 active torsions:
REMARK  status: ('A' for Active; 'I' for Inactive)
REMARK    1  A    between atoms: C_1  and  C_2
REMARK    2  A    between atoms: C_6  and  C_7
REMARK    3  A    between atoms: N_9  and  C_10
REMARK    4  A    between atoms: C_10  and  C_11
REMARK    5  A    between atoms: C_14  and  C_15
REMARK    6  A    between atoms: C_15  and  N_16
REMARK    7  A    between atoms: C_17  and  C_19
REMARK                            x       y       z     vdW  Elec       q    Type
REMARK                         _______ _______ _______ _____ _____    ______ ____
ROOT
ATOM      1  C   UNL     1      45.091   6.472  11.596  0.00  0.00    +0.000 A 
ATOM      2  C   UNL     1      44.781   7.818  11.839  0.00  0.00    +0.000 A 
ATOM      3  C   UNL     1      45.571   8.599  12.698  0.00  0.00    +0.000 A 
ATOM      4  C   UNL     1      46.706   8.062  13.321  0.00  0.00    +0.000 A 
ATOM      5  C   UNL     1      47.002   6.710  13.099  0.00  0.00    +0.000 A 
ATOM      6  C   UNL     1      46.216   5.930  12.235  0.00  0.00    +0.000 A 
ENDROOT
BRANCH   1   7
ATOM      7  C   UNL     1      44.216   5.626  10.698  0.00  0.00    +0.000 C 
BRANCH   7  10
ATOM      8  C   UNL     1      44.756   3.526   9.499  0.00  0.00    +0.000 C 
ATOM      9  O   UNL     1      43.964   2.850  10.142  0.00  0.00    +0.000 OA
ATOM     10  N   UNL     1      44.955   4.882   9.705  0.00  0.00    +0.000 N 
ATOM     11  H   UNL     1      45.622   5.344   9.095  0.00  0.00    +0.000 HD
BRANCH   8  17
ATOM     12  C   UNL     1      46.809  -0.463   7.649  0.00  0.00    +0.000 C 
ATOM     13  C   UNL     1      46.575   1.011   7.526  0.00  0.00    +0.000 A 
ATOM     14  C   UNL     1      47.110   1.734   6.463  0.00  0.00    +0.000 A 
ATOM     15  C   UNL     1      46.871   3.104   6.391  0.00  0.00    +0.000 A 
ATOM     16  C   UNL     1      46.103   3.713   7.379  0.00  0.00    +0.000 A 
ATOM     17  C   UNL     1      45.600   2.924   8.406  0.00  0.00    +0.000 A 
ATOM     18  N   UNL     1      45.825   1.583   8.500  0.00  0.00    +0.000 NA
ENDBRANCH   8  17
ENDBRANCH   7  10
ENDBRANCH   1   7
BRANCH   4  19
ATOM     19  C   UNL     1      47.591   8.924  14.191  0.00  0.00    +0.000 C 
BRANCH  19  20
ATOM     20  N   UNL     1      48.911   9.100  13.638  0.00  0.00    +0.000 N 
ATOM     21  C   UNL     1      49.206  10.151  12.802  0.00  0.00    +0.000 C 
ATOM     22  O   UNL     1      48.386  11.024  12.531  0.00  0.00    +0.000 OA
ATOM     23  H   UNL     1      49.524   8.291  13.652  0.00  0.00    +0.000 HD
BRANCH  21  24
ATOM     24  C   UNL     1      50.582  10.211  12.289  0.00  0.00    +0.000 A 
ATOM     25  C   UNL     1      51.340  11.364  12.451  0.00  0.00    +0.000 A 
ATOM     26  S   UNL     1      52.919  11.237  11.815  0.00  0.00    +0.000 S 
ATOM     27  C   UNL     1      52.632   9.654  11.265  0.00  0.00    +0.000 A 
ATOM     28  N   UNL     1      53.591   8.958  10.596  0.00  0.00    +0.000 NA
ATOM     29  C   UNL     1      53.229   7.773  10.227  0.00  0.00    +0.000 A 
ATOM     30  N   UNL     1      52.001   7.221  10.470  0.00  0.00    +0.000 N 
ATOM     31  C   UNL     1      51.010   7.876  11.160  0.00  0.00    +0.000 A 
ATOM     32  O   UNL     1      49.936   7.335  11.399  0.00  0.00    +0.000 OA
ATOM     33  C   UNL     1      51.358   9.219  11.586  0.00  0.00    +0.000 A 
ATOM     34  H   UNL     1      51.784   6.281  10.174  0.00  0.00    +0.000 HD
ENDBRANCH  21  24
ENDBRANCH  19  20
ENDBRANCH   4  19
TORSDOF 6
ENDMDL
MODEL 7
REMARK VINA RESULT:    -6.986      2.092      2.649
REMARK INTER + INTRA:         -10.436
REMARK INTER:                  -9.492
REMARK INTRA:                  -0.944
REMARK UNBOUND:                -0.999
REMARK  Name = 
REMARK  7 active torsions:
REMARK  status: ('A' for Active; 'I' for Inactive)
REMARK    1  A    between atoms: C_1  and  C_2
REMARK    2  A    between atoms: C_6  and  C_7
REMARK    3  A    between atoms: N_9  and  C_10
REMARK    4  A    between atoms: C_10  and  C_11
REMARK    5  A    between atoms: C_14  and  C_15
REMARK    6  A    between atoms: C_15  and  N_16
REMARK    7  A    between atoms: C_17  and  C_19
REMARK                            x       y       z     vdW  Elec       q    Type
REMARK                         _______ _______ _______ _____ _____    ______ ____
ROOT
ATOM      1  C   UNL     1      45.997   6.492  11.996  0.00  0.00    +0.000 A 
ATOM      2  C   UNL     1      46.086   7.871  12.232  0.00  0.00    +0.000 A 
ATOM      3  C   UNL     1      46.991   8.389  13.172  0.00  0.00    +0.000 A 
ATOM      4  C   UNL     1      47.849   7.543  13.887  0.00  0.00    +0.000 A 
ATOM      5  C   UNL     1      47.744   6.162  13.671  0.00  0.00    +0.000 A 
ATOM      6  C   UNL     1      46.842   5.645  12.726  0.00  0.00    +0.000 A 
ENDROOT
BRANCH   1   7
ATOM      7  C   UNL     1      44.995   5.938  11.008  0.00  0.00    +0.000 C 
BRANCH   7  10
ATOM      8  C   UNL     1      44.986   4.010   9.453  0.00  0.00    +0.000 C 
ATOM      9  O   UNL     1      43.918   3.573   9.858  0.00  0.00    +0.000 OA
ATOM     10  N   UNL     1      45.594   5.148   9.958  0.00  0.00    +0.000 N 
ATOM     11  H   UNL     1      46.469   5.429   9.527  0.00  0.00    +0.000 HD
BRANCH   8  17
ATOM     12  C   UNL     1      46.754  -0.140   7.662  0.00  0.00    +0.000 C 
ATOM     13  C   UNL     1      46.585   1.339   7.494  0.00  0.00    +0.000 A 
ATOM     14  C   UNL     1      47.104   1.996   6.381  0.00  0.00    +0.000 A 
ATOM     15  C   UNL     1      46.929   3.373   6.270  0.00  0.00    +0.000 A 
ATOM     16  C   UNL     1      46.239   4.054   7.267  0.00  0.00    +0.000 A 
ATOM     17  C   UNL     1      45.748   3.328   8.345  0.00  0.00    +0.000 A 
ATOM     18  N   UNL     1      45.911   1.982   8.479  0.00  0.00    +0.000 NA
ENDBRANCH   8  17
ENDBRANCH   7  10
ENDBRANCH   1   7
BRANCH   4  19
ATOM     19  C   UNL     1      48.869   8.108  14.849  0.00  0.00    +0.000 C 
BRANCH  19  20
ATOM     20  N   UNL     1      48.891   7.407  16.109  0.00  0.00    +0.000 N 
ATOM     21  C   UNL     1      48.483   8.011  17.275  0.00  0.00    +0.000 C 
ATOM     22  O   UNL     1      48.024   9.150  17.298  0.00  0.00    +0.000 OA
ATOM     23  H   UNL     1      49.468   6.574  16.159  0.00  0.00    +0.000 HD
BRANCH  21  24
ATOM     24  C   UNL     1      48.569   7.199  18.496  0.00  0.00    +0.000 A 
ATOM     25  C   UNL     1      47.437   6.974  19.270  0.00  0.00    +0.000 A 
ATOM     26  S   UNL     1      47.726   5.987  20.633  0.00  0.00    +0.000 S 
ATOM     27  C   UNL     1      49.381   5.859  20.260  0.00  0.00    +0.000 A 
ATOM     28  N   UNL     1      50.228   5.155  21.059  0.00  0.00    +0.000 NA
ATOM     29  C   UNL     1      51.458   5.154  20.660  0.00  0.00    +0.000 A 
ATOM     30  N   UNL     1      51.915   5.788  19.537  0.00  0.00    +0.000 N 
ATOM     31  C   UNL     1      51.094   6.493  18.690  0.00  0.00    +0.000 A 
ATOM     32  O   UNL     1      51.528   7.012  17.668  0.00  0.00    +0.000 OA
ATOM     33  C   UNL     1      49.702   6.538  19.098  0.00  0.00    +0.000 A 
ATOM     34  H   UNL     1      52.885   5.734  19.266  0.00  0.00    +0.000 HD
ENDBRANCH  21  24
ENDBRANCH  19  20
ENDBRANCH   4  19
TORSDOF 6
ENDMDL
MODEL 8
REMARK VINA RESULT:    -6.748      3.279      4.994
REMARK INTER + INTRA:         -10.115
REMARK INTER:                  -9.351
REMARK INTRA:                  -0.764
REMARK UNBOUND:                -0.999
REMARK  Name = 
REMARK  7 active torsions:
REMARK  status: ('A' for Active; 'I' for Inactive)
REMARK    1  A    between atoms: C_1  and  C_2
REMARK    2  A    between atoms: C_6  and  C_7
REMARK    3  A    between atoms: N_9  and  C_10
REMARK    4  A    between atoms: C_10  and  C_11
REMARK    5  A    between atoms: C_14  and  C_15
REMARK    6  A    between atoms: C_15  and  N_16
REMARK    7  A    between atoms: C_17  and  C_19
REMARK                            x       y       z     vdW  Elec       q    Type
REMARK                         _______ _______ _______ _____ _____    ______ ____
ROOT
ATOM      1  C   UNL     1      47.507   5.718  14.433  0.00  0.00    +0.000 A 
ATOM      2  C   UNL     1      48.416   6.301  15.327  0.00  0.00    +0.000 A 
ATOM      3  C   UNL     1      48.731   5.681  16.548  0.00  0.00    +0.000 A 
ATOM      4  C   UNL     1      48.162   4.449  16.897  0.00  0.00    +0.000 A 
ATOM      5  C   UNL     1      47.233   3.878  16.016  0.00  0.00    +0.000 A 
ATOM      6  C   UNL     1      46.923   4.496  14.793  0.00  0.00    +0.000 A 
ENDROOT
BRANCH   1   7
ATOM      7  C   UNL     1      47.146   6.408  13.136  0.00  0.00    +0.000 C 
BRANCH   7  10
ATOM      8  C   UNL     1      45.633   5.812  11.268  0.00  0.00    +0.000 C 
ATOM      9  O   UNL     1      44.990   6.850  11.339  0.00  0.00    +0.000 OA
ATOM     10  N   UNL     1      46.692   5.504  12.106  0.00  0.00    +0.000 N 
ATOM     11  H   UNL     1      47.168   4.622  11.939  0.00  0.00    +0.000 HD
BRANCH   8  17
ATOM     12  C   UNL     1      46.535   4.009   6.853  0.00  0.00    +0.000 C 
ATOM     13  C   UNL     1      45.758   3.899   8.129  0.00  0.00    +0.000 A 
ATOM     14  C   UNL     1      44.826   2.880   8.313  0.00  0.00    +0.000 A 
ATOM     15  C   UNL     1      44.121   2.820   9.513  0.00  0.00    +0.000 A 
ATOM     16  C   UNL     1      44.369   3.773  10.496  0.00  0.00    +0.000 A 
ATOM     17  C   UNL     1      45.317   4.756  10.239  0.00  0.00    +0.000 A 
ATOM     18  N   UNL     1      46.014   4.839   9.072  0.00  0.00    +0.000 NA
ENDBRANCH   8  17
ENDBRANCH   7  10
ENDBRANCH   1   7
BRANCH   4  19
ATOM     19  C   UNL     1      48.553   3.753  18.180  0.00  0.00    +0.000 C 
BRANCH  19  20
ATOM     20  N   UNL     1      49.959   3.436  18.233  0.00  0.00    +0.000 N 
ATOM     21  C   UNL     1      50.507   2.465  17.427  0.00  0.00    +0.000 C 
ATOM     22  O   UNL     1      49.848   1.863  16.584  0.00  0.00    +0.000 OA
ATOM     23  H   UNL     1      50.466   3.738  19.058  0.00  0.00    +0.000 HD
BRANCH  21  24
ATOM     24  C   UNL     1      51.947   2.222  17.586  0.00  0.00    +0.000 A 
ATOM     25  C   UNL     1      52.436   0.922  17.642  0.00  0.00    +0.000 A 
ATOM     26  S   UNL     1      54.133   0.836  17.802  0.00  0.00    +0.000 S 
ATOM     27  C   UNL     1      54.271   2.531  17.844  0.00  0.00    +0.000 A 
ATOM     28  N   UNL     1      55.482   3.133  17.993  0.00  0.00    +0.000 NA
ATOM     29  C   UNL     1      55.435   4.425  18.020  0.00  0.00    +0.000 A 
ATOM     30  N   UNL     1      54.290   5.166  17.908  0.00  0.00    +0.000 N 
ATOM     31  C   UNL     1      53.048   4.603  17.735  0.00  0.00    +0.000 A 
ATOM     32  O   UNL     1      52.049   5.299  17.593  0.00  0.00    +0.000 OA
ATOM     33  C   UNL     1      53.042   3.153  17.711  0.00  0.00    +0.000 A 
ATOM     34  H   UNL     1      54.319   6.175  17.917  0.00  0.00    +0.000 HD
ENDBRANCH  21  24
ENDBRANCH  19  20
ENDBRANCH   4  19
TORSDOF 6
ENDMDL
MODEL 9
REMARK VINA RESULT:    -6.734      2.559      3.760
REMARK INTER + INTRA:         -10.095
REMARK INTER:                  -9.251
REMARK INTRA:                  -0.844
REMARK UNBOUND:                -0.999
REMARK  Name = 
REMARK  7 active torsions:
REMARK  status: ('A' for Active; 'I' for Inactive)
REMARK    1  A    between atoms: C_1  and  C_2
REMARK    2  A    between atoms: C_6  and  C_7
REMARK    3  A    between atoms: N_9  and  C_10
REMARK    4  A    between atoms: C_10  and  C_11
REMARK    5  A    between atoms: C_14  and  C_15
REMARK    6  A    between atoms: C_15  and  N_16
REMARK    7  A    between atoms: C_17  and  C_19
REMARK                            x       y       z     vdW  Elec       q    Type
REMARK                         _______ _______ _______ _____ _____    ______ ____
ROOT
ATOM      1  C   UNL     1      47.904   7.496  13.517  0.00  0.00    +0.000 A 
ATOM      2  C   UNL     1      47.900   6.240  14.140  0.00  0.00    +0.000 A 
ATOM      3  C   UNL     1      48.274   6.098  15.487  0.00  0.00    +0.000 A 
ATOM      4  C   UNL     1      48.641   7.212  16.253  0.00  0.00    +0.000 A 
ATOM      5  C   UNL     1      48.672   8.465  15.624  0.00  0.00    +0.000 A 
ATOM      6  C   UNL     1      48.292   8.607  14.279  0.00  0.00    +0.000 A 
ENDROOT
BRANCH   1   7
ATOM      7  C   UNL     1      47.535   7.637  12.057  0.00  0.00    +0.000 C 
BRANCH   7  10
ATOM      8  C   UNL     1      45.600   6.344  11.205  0.00  0.00    +0.000 C 
ATOM      9  O   UNL     1      44.793   7.238  11.423  0.00  0.00    +0.000 OA
ATOM     10  N   UNL     1      46.953   6.443  11.489  0.00  0.00    +0.000 N 
ATOM     11  H   UNL     1      47.532   5.646  11.243  0.00  0.00    +0.000 HD
BRANCH   8  17
ATOM     12  C   UNL     1      45.673   3.431   7.325  0.00  0.00    +0.000 C 
ATOM     13  C   UNL     1      45.223   3.644   8.737  0.00  0.00    +0.000 A 
ATOM     14  C   UNL     1      44.476   2.675   9.404  0.00  0.00    +0.000 A 
ATOM     15  C   UNL     1      44.073   2.918  10.714  0.00  0.00    +0.000 A 
ATOM     16  C   UNL     1      44.429   4.117  11.324  0.00  0.00    +0.000 A 
ATOM     17  C   UNL     1      45.179   5.032  10.595  0.00  0.00    +0.000 A 
ATOM     18  N   UNL     1      45.580   4.819   9.310  0.00  0.00    +0.000 NA
ENDBRANCH   8  17
ENDBRANCH   7  10
ENDBRANCH   1   7
BRANCH   4  19
ATOM     19  C   UNL     1      48.979   7.065  17.719  0.00  0.00    +0.000 C 
BRANCH  19  20
ATOM     20  N   UNL     1      49.919   6.000  17.968  0.00  0.00    +0.000 N 
ATOM     21  C   UNL     1      51.233   6.095  17.572  0.00  0.00    +0.000 C 
ATOM     22  O   UNL     1      51.688   7.106  17.044  0.00  0.00    +0.000 OA
ATOM     23  H   UNL     1      49.530   5.088  18.181  0.00  0.00    +0.000 HD
BRANCH  21  24
ATOM     24  C   UNL     1      52.087   4.936  17.866  0.00  0.00    +0.000 A 
ATOM     25  C   UNL     1      53.392   5.123  18.307  0.00  0.00    +0.000 A 
ATOM     26  S   UNL     1      54.221   3.664  18.622  0.00  0.00    +0.000 S 
ATOM     27  C   UNL     1      52.882   2.733  18.142  0.00  0.00    +0.000 A 
ATOM     28  N   UNL     1      52.934   1.373  18.147  0.00  0.00    +0.000 NA
ATOM     29  C   UNL     1      51.848   0.797  17.746  0.00  0.00    +0.000 A 
ATOM     30  N   UNL     1      50.717   1.456  17.345  0.00  0.00    +0.000 N 
ATOM     31  C   UNL     1      50.611   2.826  17.342  0.00  0.00    +0.000 A 
ATOM     32  O   UNL     1      49.568   3.383  17.019  0.00  0.00    +0.000 OA
ATOM     33  C   UNL     1      51.808   3.524  17.772  0.00  0.00    +0.000 A 
ATOM     34  H   UNL     1      49.893   0.950  17.060  0.00  0.00    +0.000 HD
ENDBRANCH  21  24
ENDBRANCH  19  20
ENDBRANCH   4  19
TORSDOF 6
ENDMDL
