MODEL 1
REMARK VINA RESULT:    -8.187      0.000      0.000
REMARK INTER + INTRA:         -11.980
REMARK INTER:                 -11.058
REMARK INTRA:                  -0.922
REMARK UNBOUND:                -0.922
REMARK  Name = 
REMARK  7 active torsions:
REMARK  status: ('A' for Active; 'I' for Inactive)
REMARK    1  A    between atoms: C_1  and  C_2
REMARK    2  A    between atoms: C_2  and  N_3
REMARK    3  A    between atoms: C_2  and  C_12
REMARK    4  A    between atoms: C_4  and  C_6
REMARK    5  A    between atoms: C_15  and  C_16
REMARK    6  A    between atoms: C_16  and  N_17
REMARK    7  A    between atoms: C_18  and  C_20
REMARK                            x       y       z     vdW  Elec       q    Type
REMARK                         _______ _______ _______ _____ _____    ______ ____
ROOT
ATOM      1  C   UNL     1      45.161   5.687  12.158  0.00  0.00    +0.000 A 
ATOM      2  C   UNL     1      45.017   7.073  12.212  0.00  0.00    +0.000 A 
ATOM      3  C   UNL     1      46.015   7.840  12.814  0.00  0.00    +0.000 A 
ATOM      4  C   UNL     1      47.148   7.214  13.337  0.00  0.00    +0.000 A 
ATOM      5  C   UNL     1      47.181   5.828  13.294  0.00  0.00    +0.000 A 
ATOM      6  N   UNL     1      46.228   5.061  12.716  0.00  0.00    +0.000 NA
ENDROOT
BRANCH   1   8
ATOM      7  C   UNL     1      42.823   5.512  11.190  0.00  0.00    +0.000 C 
ATOM      8  C   UNL     1      44.166   4.812  11.407  0.00  0.00    +0.000 C 
BRANCH   8   9
ATOM      9  N   UNL     1      44.733   4.354  10.143  0.00  0.00    +0.000 N 
ATOM     10  C   UNL     1      44.520   3.087   9.650  0.00  0.00    +0.000 C 
ATOM     11  O   UNL     1      43.814   2.253  10.210  0.00  0.00    +0.000 OA
ATOM     12  H   UNL     1      45.184   5.015   9.522  0.00  0.00    +0.000 HD
BRANCH  10  13
ATOM     13  C   UNL     1      45.236   2.787   8.316  0.00  0.00    +0.000 C 
ATOM     14  C   UNL     1      46.113   1.533   8.417  0.00  0.00    +0.000 C 
ATOM     15  C   UNL     1      46.858   1.273   7.108  0.00  0.00    +0.000 C 
ATOM     16  C   UNL     1      47.598   2.524   6.645  0.00  0.00    +0.000 C 
ATOM     17  C   UNL     1      46.672   3.738   6.618  0.00  0.00    +0.000 C 
ATOM     18  N   UNL     1      46.054   3.964   7.929  0.00  0.00    +0.000 NA
ATOM     19  H   UNL     1      45.427   4.768   7.855  0.00  0.00    +0.000 HD
ENDBRANCH  10  13
ENDBRANCH   8   9
ENDBRANCH   1   8
BRANCH   4  20
ATOM     20  C   UNL     1      48.274   7.994  13.953  0.00  0.00    +0.000 C 
BRANCH  20  21
ATOM     21  N   UNL     1      48.267   7.864  15.385  0.00  0.00    +0.000 N 
ATOM     22  C   UNL     1      49.250   7.176  16.051  0.00  0.00    +0.000 C 
ATOM     23  O   UNL     1      50.219   6.694  15.473  0.00  0.00    +0.000 OA
ATOM     24  H   UNL     1      47.379   8.021  15.849  0.00  0.00    +0.000 HD
BRANCH  22  25
ATOM     25  C   UNL     1      49.108   7.116  17.511  0.00  0.00    +0.000 A 
ATOM     26  C   UNL     1      49.018   8.286  18.252  0.00  0.00    +0.000 A 
ATOM     27  S   UNL     1      48.750   8.020  19.915  0.00  0.00    +0.000 S 
ATOM     28  C   UNL     1      48.809   6.331  19.713  0.00  0.00    +0.000 A 
ATOM     29  N   UNL     1      48.649   5.490  20.769  0.00  0.00    +0.000 NA
ATOM     30  C   UNL     1      48.755   4.236  20.476  0.00  0.00    +0.000 A 
ATOM     31  N   UNL     1      49.008   3.746  19.219  0.00  0.00    +0.000 N 
ATOM     32  C   UNL     1      49.149   4.556  18.121  0.00  0.00    +0.000 A 
ATOM     33  O   UNL     1      49.344   4.086  17.006  0.00  0.00    +0.000 OA
ATOM     34  C   UNL     1      49.032   5.976  18.396  0.00  0.00    +0.000 A 
ATOM     35  H   UNL     1      49.081   2.752  19.057  0.00  0.00    +0.000 HD
ENDBRANCH  22  25
ENDBRANCH  20  21
ENDBRANCH   4  20
TORSDOF 6
ENDMDL
MODEL 2
REMARK VINA RESULT:    -8.152      1.628      2.341
REMARK INTER + INTRA:         -11.933
REMARK INTER:                 -10.971
REMARK INTRA:                  -0.962
REMARK UNBOUND:                -0.922
REMARK  Name = 
REMARK  7 active torsions:
REMARK  status: ('A' for Active; 'I' for Inactive)
REMARK    1  A    between atoms: C_1  and  C_2
REMARK    2  A    between atoms: C_2  and  N_3
REMARK    3  A    between atoms: C_2  and  C_12
REMARK    4  A    between atoms: C_4  and  C_6
REMARK    5  A    between atoms: C_15  and  C_16
REMARK    6  A    between atoms: C_16  and  N_17
REMARK    7  A    between atoms: C_18  and  C_20
REMARK                            x       y       z     vdW  Elec       q    Type
REMARK                         _______ _______ _______ _____ _____    ______ ____
ROOT
ATOM      1  C   UNL     1      45.428   5.219  12.098  0.00  0.00    +0.000 A 
ATOM      2  C   UNL     1      46.072   6.387  11.690  0.00  0.00    +0.000 A 
ATOM      3  C   UNL     1      47.120   6.892  12.459  0.00  0.00    +0.000 A 
ATOM      4  C   UNL     1      47.522   6.215  13.612  0.00  0.00    +0.000 A 
ATOM      5  C   UNL     1      46.788   5.094  13.976  0.00  0.00    +0.000 A 
ATOM      6  N   UNL     1      45.767   4.585  13.249  0.00  0.00    +0.000 NA
ENDROOT
BRANCH   1   8
ATOM      7  C   UNL     1      43.147   5.461  11.016  0.00  0.00    +0.000 C 
ATOM      8  C   UNL     1      44.360   4.556  11.237  0.00  0.00    +0.000 C 
BRANCH   8   9
ATOM      9  N   UNL     1      44.925   4.110   9.967  0.00  0.00    +0.000 N 
ATOM     10  C   UNL     1      44.630   2.886   9.413  0.00  0.00    +0.000 C 
ATOM     11  O   UNL     1      43.848   2.086   9.918  0.00  0.00    +0.000 OA
ATOM     12  H   UNL     1      45.442   4.761   9.388  0.00  0.00    +0.000 HD
BRANCH  10  13
ATOM     13  C   UNL     1      45.357   2.590   8.084  0.00  0.00    +0.000 C 
ATOM     14  C   UNL     1      46.356   1.436   8.233  0.00  0.00    +0.000 C 
ATOM     15  C   UNL     1      47.108   1.183   6.927  0.00  0.00    +0.000 C 
ATOM     16  C   UNL     1      47.715   2.476   6.390  0.00  0.00    +0.000 C 
ATOM     17  C   UNL     1      46.672   3.589   6.317  0.00  0.00    +0.000 C 
ATOM     18  N   UNL     1      46.050   3.820   7.625  0.00  0.00    +0.000 NA
ATOM     19  H   UNL     1      45.345   4.553   7.521  0.00  0.00    +0.000 HD
ENDBRANCH  10  13
ENDBRANCH   8   9
ENDBRANCH   1   8
BRANCH   4  20
ATOM     20  C   UNL     1      48.675   6.686  14.450  0.00  0.00    +0.000 C 
BRANCH  20  21
ATOM     21  N   UNL     1      48.293   6.805  15.831  0.00  0.00    +0.000 N 
ATOM     22  C   UNL     1      48.998   6.181  16.830  0.00  0.00    +0.000 C 
ATOM     23  O   UNL     1      50.025   5.547  16.610  0.00  0.00    +0.000 OA
ATOM     24  H   UNL     1      47.338   7.095  16.013  0.00  0.00    +0.000 HD
BRANCH  22  25
ATOM     25  C   UNL     1      48.486   6.381  18.192  0.00  0.00    +0.000 A 
ATOM     26  C   UNL     1      48.400   5.309  19.069  0.00  0.00    +0.000 A 
ATOM     27  S   UNL     1      47.884   5.750  20.634  0.00  0.00    +0.000 S 
ATOM     28  C   UNL     1      47.696   7.379  20.176  0.00  0.00    +0.000 A 
ATOM     29  N   UNL     1      47.271   8.316  21.065  0.00  0.00    +0.000 NA
ATOM     30  C   UNL     1      47.138   9.501  20.570  0.00  0.00    +0.000 A 
ATOM     31  N   UNL     1      47.391   9.836  19.263  0.00  0.00    +0.000 N 
ATOM     32  C   UNL     1      47.848   8.931  18.340  0.00  0.00    +0.000 A 
ATOM     33  O   UNL     1      48.094   9.268  17.187  0.00  0.00    +0.000 OA
ATOM     34  C   UNL     1      48.020   7.582  18.848  0.00  0.00    +0.000 A 
ATOM     35  H   UNL     1      47.266  10.784  18.939  0.00  0.00    +0.000 HD
ENDBRANCH  22  25
ENDBRANCH  20  21
ENDBRANCH   4  20
TORSDOF 6
ENDMDL
MODEL 3
REMARK VINA RESULT:    -7.645      4.898      9.952
REMARK INTER + INTRA:         -11.248
REMARK INTER:                 -10.254
REMARK INTRA:                  -0.994
REMARK UNBOUND:                -0.922
REMARK  Name = 
REMARK  7 active torsions:
REMARK  status: ('A' for Active; 'I' for Inactive)
REMARK    1  A    between atoms: C_1  and  C_2
REMARK    2  A    between atoms: C_2  and  N_3
REMARK    3  A    between atoms: C_2  and  C_12
REMARK    4  A    between atoms: C_4  and  C_6
REMARK    5  A    between atoms: C_15  and  C_16
REMARK    6  A    between atoms: C_16  and  N_17
REMARK    7  A    between atoms: C_18  and  C_20
REMARK                            x       y       z     vdW  Elec       q    Type
REMARK                         _______ _______ _______ _____ _____    ______ ____
ROOT
ATOM      1  C   UNL     1      51.629   2.817  17.637  0.00  0.00    +0.000 A 
ATOM      2  C   UNL     1      51.009   4.027  17.949  0.00  0.00    +0.000 A 
ATOM      3  C   UNL     1      49.638   4.168  17.732  0.00  0.00    +0.000 A 
ATOM      4  C   UNL     1      48.904   3.094  17.225  0.00  0.00    +0.000 A 
ATOM      5  C   UNL     1      49.610   1.948  16.887  0.00  0.00    +0.000 A 
ATOM      6  N   UNL     1      50.938   1.786  17.086  0.00  0.00    +0.000 NA
ENDROOT
BRANCH   1   8
ATOM      7  C   UNL     1      53.664   3.611  18.924  0.00  0.00    +0.000 C 
ATOM      8  C   UNL     1      53.094   2.565  17.964  0.00  0.00    +0.000 C 
BRANCH   8   9
ATOM      9  N   UNL     1      53.282   1.214  18.483  0.00  0.00    +0.000 N 
ATOM     10  C   UNL     1      54.188   0.331  17.941  0.00  0.00    +0.000 C 
ATOM     11  O   UNL     1      54.931   0.613  17.006  0.00  0.00    +0.000 OA
ATOM     12  H   UNL     1      52.847   0.942  19.355  0.00  0.00    +0.000 HD
BRANCH  10  13
ATOM     13  C   UNL     1      54.210  -1.060  18.611  0.00  0.00    +0.000 C 
ATOM     14  C   UNL     1      54.871  -2.109  17.709  0.00  0.00    +0.000 C 
ATOM     15  C   UNL     1      54.843  -3.493  18.357  0.00  0.00    +0.000 C 
ATOM     16  C   UNL     1      53.431  -3.851  18.811  0.00  0.00    +0.000 C 
ATOM     17  C   UNL     1      52.822  -2.739  19.662  0.00  0.00    +0.000 C 
ATOM     18  N   UNL     1      52.819  -1.461  18.942  0.00  0.00    +0.000 NA
ATOM     19  H   UNL     1      52.428  -0.746  19.558  0.00  0.00    +0.000 HD
ENDBRANCH  10  13
ENDBRANCH   8   9
ENDBRANCH   1   8
BRANCH   4  20
ATOM     20  C   UNL     1      47.419   3.174  17.018  0.00  0.00    +0.000 C 
BRANCH  20  21
ATOM     21  N   UNL     1      47.082   4.238  16.111  0.00  0.00    +0.000 N 
ATOM     22  C   UNL     1      47.130   4.067  14.750  0.00  0.00    +0.000 C 
ATOM     23  O   UNL     1      47.396   2.986  14.235  0.00  0.00    +0.000 OA
ATOM     24  H   UNL     1      47.110   5.179  16.488  0.00  0.00    +0.000 HD
BRANCH  22  25
ATOM     25  C   UNL     1      46.771   5.243  13.948  0.00  0.00    +0.000 A 
ATOM     26  C   UNL     1      47.622   6.338  13.897  0.00  0.00    +0.000 A 
ATOM     27  S   UNL     1      47.092   7.563  12.834  0.00  0.00    +0.000 S 
ATOM     28  C   UNL     1      45.675   6.700  12.454  0.00  0.00    +0.000 A 
ATOM     29  N   UNL     1      44.761   7.198  11.580  0.00  0.00    +0.000 NA
ATOM     30  C   UNL     1      43.717   6.455  11.415  0.00  0.00    +0.000 A 
ATOM     31  N   UNL     1      43.505   5.255  12.047  0.00  0.00    +0.000 N 
ATOM     32  C   UNL     1      44.412   4.702  12.914  0.00  0.00    +0.000 A 
ATOM     33  O   UNL     1      44.206   3.613  13.440  0.00  0.00    +0.000 OA
ATOM     34  C   UNL     1      45.606   5.496  13.130  0.00  0.00    +0.000 A 
ATOM     35  H   UNL     1      42.665   4.722  11.875  0.00  0.00    +0.000 HD
ENDBRANCH  22  25
ENDBRANCH  20  21
ENDBRANCH   4  20
TORSDOF 6
ENDMDL
MODEL 4
REMARK VINA RESULT:    -7.612      1.524      1.749
REMARK INTER + INTRA:         -11.204
REMARK INTER:                 -10.125
REMARK INTRA:                  -1.078
REMARK UNBOUND:                -0.922
REMARK  Name = 
REMARK  7 active torsions:
REMARK  status: ('A' for Active; 'I' for Inactive)
REMARK    1  A    between atoms: C_1  and  C_2
REMARK    2  A    between atoms: C_2  and  N_3
REMARK    3  A    between atoms: C_2  and  C_12
REMARK    4  A    between atoms: C_4  and  C_6
REMARK    5  A    between atoms: C_15  and  C_16
REMARK    6  A    between atoms: C_16  and  N_17
REMARK    7  A    between atoms: C_18  and  C_20
REMARK                            x       y       z     vdW  Elec       q    Type
REMARK                         _______ _______ _______ _____ _____    ______ ____
ROOT
ATOM      1  C   UNL     1      45.356   6.030  11.904  0.00  0.00    +0.000 A 
ATOM      2  C   UNL     1      46.518   5.570  12.524  0.00  0.00    +0.000 A 
ATOM      3  C   UNL     1      47.348   6.481  13.178  0.00  0.00    +0.000 A 
ATOM      4  C   UNL     1      46.998   7.831  13.219  0.00  0.00    +0.000 A 
ATOM      5  C   UNL     1      45.857   8.210  12.526  0.00  0.00    +0.000 A 
ATOM      6  N   UNL     1      45.036   7.348  11.884  0.00  0.00    +0.000 NA
ENDROOT
BRANCH   1   8
ATOM      7  C   UNL     1      42.982   5.713  11.070  0.00  0.00    +0.000 C 
ATOM      8  C   UNL     1      44.353   5.068  11.281  0.00  0.00    +0.000 C 
BRANCH   8   9
ATOM      9  N   UNL     1      44.874   4.515  10.035  0.00  0.00    +0.000 N 
ATOM     10  C   UNL     1      44.577   3.241   9.608  0.00  0.00    +0.000 C 
ATOM     11  O   UNL     1      43.828   2.481  10.215  0.00  0.00    +0.000 OA
ATOM     12  H   UNL     1      45.356   5.115   9.379  0.00  0.00    +0.000 HD
BRANCH  10  13
ATOM     13  C   UNL     1      45.255   2.833   8.282  0.00  0.00    +0.000 C 
ATOM     14  C   UNL     1      46.077   1.548   8.443  0.00  0.00    +0.000 C 
ATOM     15  C   UNL     1      46.786   1.179   7.141  0.00  0.00    +0.000 C 
ATOM     16  C   UNL     1      47.574   2.367   6.595  0.00  0.00    +0.000 C 
ATOM     17  C   UNL     1      46.703   3.618   6.511  0.00  0.00    +0.000 C 
ATOM     18  N   UNL     1      46.118   3.947   7.816  0.00  0.00    +0.000 NA
ATOM     19  H   UNL     1      45.526   4.773   7.705  0.00  0.00    +0.000 HD
ENDBRANCH  10  13
ENDBRANCH   8   9
ENDBRANCH   1   8
BRANCH   4  20
ATOM     20  C   UNL     1      47.828   8.846  13.950  0.00  0.00    +0.000 C 
BRANCH  20  21
ATOM     21  N   UNL     1      48.735   8.207  14.865  0.00  0.00    +0.000 N 
ATOM     22  C   UNL     1      48.721   8.488  16.208  0.00  0.00    +0.000 C 
ATOM     23  O   UNL     1      47.895   9.243  16.711  0.00  0.00    +0.000 OA
ATOM     24  H   UNL     1      49.567   7.792  14.460  0.00  0.00    +0.000 HD
BRANCH  22  25
ATOM     25  C   UNL     1      49.712   7.769  17.019  0.00  0.00    +0.000 A 
ATOM     26  C   UNL     1      50.726   8.467  17.661  0.00  0.00    +0.000 A 
ATOM     27  S   UNL     1      51.716   7.482  18.640  0.00  0.00    +0.000 S 
ATOM     28  C   UNL     1      50.863   6.079  18.190  0.00  0.00    +0.000 A 
ATOM     29  N   UNL     1      51.205   4.859  18.683  0.00  0.00    +0.000 NA
ATOM     30  C   UNL     1      50.497   3.879  18.227  0.00  0.00    +0.000 A 
ATOM     31  N   UNL     1      49.476   4.009  17.320  0.00  0.00    +0.000 N 
ATOM     32  C   UNL     1      49.078   5.222  16.818  0.00  0.00    +0.000 A 
ATOM     33  O   UNL     1      48.142   5.309  16.032  0.00  0.00    +0.000 OA
ATOM     34  C   UNL     1      49.840   6.358  17.304  0.00  0.00    +0.000 A 
ATOM     35  H   UNL     1      48.961   3.201  17.003  0.00  0.00    +0.000 HD
ENDBRANCH  22  25
ENDBRANCH  20  21
ENDBRANCH   4  20
TORSDOF 6
ENDMDL
MODEL 5
REMARK VINA RESULT:    -7.389      4.843      9.706
REMARK INTER + INTRA:         -10.903
REMARK INTER:                  -9.694
REMARK INTRA:                  -1.208
REMARK UNBOUND:                -0.922
REMARK  Name = 
REMARK  7 active torsions:
REMARK  status: ('A' for Active; 'I' for Inactive)
REMARK    1  A    between atoms: C_1  and  C_2
REMARK    2  A    between atoms: C_2  and  N_3
REMARK    3  A    between atoms: C_2  and  C_12
REMARK    4  A    between atoms: C_4  and  C_6
REMARK    5  A    between atoms: C_15  and  C_16
REMARK    6  A    between atoms: C_16  and  N_17
REMARK    7  A    between atoms: C_18  and  C_20
REMARK                            x       y       z     vdW  Elec       q    Type
REMARK                         _______ _______ _______ _____ _____    ______ ____
ROOT
ATOM      1  C   UNL     1      51.286   2.847  17.787  0.00  0.00    +0.000 A 
ATOM      2  C   UNL     1      50.529   1.890  17.111  0.00  0.00    +0.000 A 
ATOM      3  C   UNL     1      49.184   2.147  16.846  0.00  0.00    +0.000 A 
ATOM      4  C   UNL     1      48.620   3.361  17.243  0.00  0.00    +0.000 A 
ATOM      5  C   UNL     1      49.429   4.229  17.963  0.00  0.00    +0.000 A 
ATOM      6  N   UNL     1      50.735   4.004  18.234  0.00  0.00    +0.000 NA
ENDROOT
BRANCH   1   8
ATOM      7  C   UNL     1      53.373   3.748  18.913  0.00  0.00    +0.000 C 
ATOM      8  C   UNL     1      52.785   2.673  17.997  0.00  0.00    +0.000 C 
BRANCH   8   9
ATOM      9  N   UNL     1      53.084   1.334  18.494  0.00  0.00    +0.000 N 
ATOM     10  C   UNL     1      54.052   0.534  17.933  0.00  0.00    +0.000 C 
ATOM     11  O   UNL     1      54.763   0.887  16.996  0.00  0.00    +0.000 OA
ATOM     12  H   UNL     1      52.679   1.016  19.365  0.00  0.00    +0.000 HD
BRANCH  10  13
ATOM     13  C   UNL     1      54.191  -0.860  18.582  0.00  0.00    +0.000 C 
ATOM     14  C   UNL     1      54.920  -1.842  17.656  0.00  0.00    +0.000 C 
ATOM     15  C   UNL     1      55.007  -3.233  18.284  0.00  0.00    +0.000 C 
ATOM     16  C   UNL     1      53.633  -3.706  18.749  0.00  0.00    +0.000 C 
ATOM     17  C   UNL     1      52.951  -2.657  19.623  0.00  0.00    +0.000 C 
ATOM     18  N   UNL     1      52.840  -1.373  18.922  0.00  0.00    +0.000 NA
ATOM     19  H   UNL     1      52.402  -0.699  19.553  0.00  0.00    +0.000 HD
ENDBRANCH  10  13
ENDBRANCH   8   9
ENDBRANCH   1   8
BRANCH   4  20
ATOM     20  C   UNL     1      47.191   3.710  16.941  0.00  0.00    +0.000 C 
BRANCH  20  21
ATOM     21  N   UNL     1      47.110   4.666  15.870  0.00  0.00    +0.000 N 
ATOM     22  C   UNL     1      47.160   4.279  14.554  0.00  0.00    +0.000 C 
ATOM     23  O   UNL     1      47.207   3.100  14.219  0.00  0.00    +0.000 OA
ATOM     24  H   UNL     1      47.325   5.629  16.106  0.00  0.00    +0.000 HD
BRANCH  22  25
ATOM     25  C   UNL     1      47.078   5.365  13.568  0.00  0.00    +0.000 A 
ATOM     26  C   UNL     1      46.127   5.320  12.559  0.00  0.00    +0.000 A 
ATOM     27  S   UNL     1      46.112   6.714  11.575  0.00  0.00    +0.000 S 
ATOM     28  C   UNL     1      47.420   7.397  12.424  0.00  0.00    +0.000 A 
ATOM     29  N   UNL     1      47.920   8.614  12.084  0.00  0.00    +0.000 NA
ATOM     30  C   UNL     1      48.935   8.991  12.788  0.00  0.00    +0.000 A 
ATOM     31  N   UNL     1      49.497   8.259  13.804  0.00  0.00    +0.000 N 
ATOM     32  C   UNL     1      49.009   7.040  14.198  0.00  0.00    +0.000 A 
ATOM     33  O   UNL     1      49.514   6.423  15.130  0.00  0.00    +0.000 OA
ATOM     34  C   UNL     1      47.862   6.572  13.441  0.00  0.00    +0.000 A 
ATOM     35  H   UNL     1      50.293   8.611  14.316  0.00  0.00    +0.000 HD
ENDBRANCH  22  25
ENDBRANCH  20  21
ENDBRANCH   4  20
TORSDOF 6
ENDMDL
MODEL 6
REMARK VINA RESULT:    -7.375      3.988      5.376
REMARK INTER + INTRA:         -10.884
REMARK INTER:                  -9.581
REMARK INTRA:                  -1.302
REMARK UNBOUND:                -0.922
REMARK  Name = 
REMARK  7 active torsions:
REMARK  status: ('A' for Active; 'I' for Inactive)
REMARK    1  A    between atoms: C_1  and  C_2
REMARK    2  A    between atoms: C_2  and  N_3
REMARK    3  A    between atoms: C_2  and  C_12
REMARK    4  A    between atoms: C_4  and  C_6
REMARK    5  A    between atoms: C_15  and  C_16
REMARK    6  A    between atoms: C_16  and  N_17
REMARK    7  A    between atoms: C_18  and  C_20
REMARK                            x       y       z     vdW  Elec       q    Type
REMARK                         _______ _______ _______ _____ _____    ______ ____
ROOT
ATOM      1  C   UNL     1      45.325   6.063  12.060  0.00  0.00    +0.000 A 
ATOM      2  C   UNL     1      46.495   5.611  12.670  0.00  0.00    +0.000 A 
ATOM      3  C   UNL     1      47.307   6.521  13.347  0.00  0.00    +0.000 A 
ATOM      4  C   UNL     1      46.932   7.863  13.420  0.00  0.00    +0.000 A 
ATOM      5  C   UNL     1      45.784   8.237  12.735  0.00  0.00    +0.000 A 
ATOM      6  N   UNL     1      44.980   7.376  12.071  0.00  0.00    +0.000 NA
ENDROOT
BRANCH   1   8
ATOM      7  C   UNL     1      42.961   5.726  11.206  0.00  0.00    +0.000 C 
ATOM      8  C   UNL     1      44.341   5.099  11.412  0.00  0.00    +0.000 C 
BRANCH   8   9
ATOM      9  N   UNL     1      44.877   4.579  10.158  0.00  0.00    +0.000 N 
ATOM     10  C   UNL     1      44.561   3.329   9.677  0.00  0.00    +0.000 C 
ATOM     11  O   UNL     1      43.782   2.565  10.240  0.00  0.00    +0.000 OA
ATOM     12  H   UNL     1      45.387   5.192   9.534  0.00  0.00    +0.000 HD
BRANCH  10  13
ATOM     13  C   UNL     1      45.259   2.954   8.353  0.00  0.00    +0.000 C 
ATOM     14  C   UNL     1      46.088   1.672   8.497  0.00  0.00    +0.000 C 
ATOM     15  C   UNL     1      46.817   1.336   7.196  0.00  0.00    +0.000 C 
ATOM     16  C   UNL     1      47.603   2.541   6.687  0.00  0.00    +0.000 C 
ATOM     17  C   UNL     1      46.725   3.787   6.618  0.00  0.00    +0.000 C 
ATOM     18  N   UNL     1      46.121   4.084   7.922  0.00  0.00    +0.000 NA
ATOM     19  H   UNL     1      45.525   4.908   7.820  0.00  0.00    +0.000 HD
ENDBRANCH  10  13
ENDBRANCH   8   9
ENDBRANCH   1   8
BRANCH   4  20
ATOM     20  C   UNL     1      47.742   8.875  14.177  0.00  0.00    +0.000 C 
BRANCH  20  21
ATOM     21  N   UNL     1      49.058   9.007  13.613  0.00  0.00    +0.000 N 
ATOM     22  C   UNL     1      49.375  10.026  12.751  0.00  0.00    +0.000 C 
ATOM     23  O   UNL     1      48.578  10.915  12.467  0.00  0.00    +0.000 OA
ATOM     24  H   UNL     1      49.639   8.175  13.622  0.00  0.00    +0.000 HD
BRANCH  22  25
ATOM     25  C   UNL     1      50.753  10.027  12.244  0.00  0.00    +0.000 A 
ATOM     26  C   UNL     1      51.565  11.137  12.434  0.00  0.00    +0.000 A 
ATOM     27  S   UNL     1      53.161  10.916  11.874  0.00  0.00    +0.000 S 
ATOM     28  C   UNL     1      52.805   9.354  11.301  0.00  0.00    +0.000 A 
ATOM     29  N   UNL     1      53.756   8.593  10.695  0.00  0.00    +0.000 NA
ATOM     30  C   UNL     1      53.336   7.445  10.277  0.00  0.00    +0.000 A 
ATOM     31  N   UNL     1      52.048   6.989  10.409  0.00  0.00    +0.000 N 
ATOM     32  C   UNL     1      51.065   7.709  11.036  0.00  0.00    +0.000 A 
ATOM     33  O   UNL     1      49.932   7.261  11.165  0.00  0.00    +0.000 OA
ATOM     34  C   UNL     1      51.487   9.007  11.531  0.00  0.00    +0.000 A 
ATOM     35  H   UNL     1      51.784   6.079  10.057  0.00  0.00    +0.000 HD
ENDBRANCH  22  25
ENDBRANCH  20  21
ENDBRANCH   4  20
TORSDOF 6
ENDMDL
MODEL 7
REMARK VINA RESULT:    -7.256      3.654      9.170
REMARK INTER + INTRA:         -10.722
REMARK INTER:                  -9.503
REMARK INTRA:                  -1.219
REMARK UNBOUND:                -0.922
REMARK  Name = 
REMARK  7 active torsions:
REMARK  status: ('A' for Active; 'I' for Inactive)
REMARK    1  A    between atoms: C_1  and  C_2
REMARK    2  A    between atoms: C_2  and  N_3
REMARK    3  A    between atoms: C_2  and  C_12
REMARK    4  A    between atoms: C_4  and  C_6
REMARK    5  A    between atoms: C_15  and  C_16
REMARK    6  A    between atoms: C_16  and  N_17
REMARK    7  A    between atoms: C_18  and  C_20
REMARK                            x       y       z     vdW  Elec       q    Type
REMARK                         _______ _______ _______ _____ _____    ______ ____
ROOT
ATOM      1  C   UNL     1      49.440   5.531  18.062  0.00  0.00    +0.000 A 
ATOM      2  C   UNL     1      48.511   4.865  17.263  0.00  0.00    +0.000 A 
ATOM      3  C   UNL     1      48.162   5.407  16.026  0.00  0.00    +0.000 A 
ATOM      4  C   UNL     1      48.756   6.595  15.598  0.00  0.00    +0.000 A 
ATOM      5  C   UNL     1      49.624   7.222  16.481  0.00  0.00    +0.000 A 
ATOM      6  N   UNL     1      49.979   6.718  17.685  0.00  0.00    +0.000 NA
ENDROOT
BRANCH   1   8
ATOM      7  C   UNL     1      48.814   4.397  20.243  0.00  0.00    +0.000 C 
ATOM      8  C   UNL     1      49.949   4.927  19.364  0.00  0.00    +0.000 C 
BRANCH   8   9
ATOM      9  N   UNL     1      50.940   3.889  19.098  0.00  0.00    +0.000 N 
ATOM     10  C   UNL     1      52.294   4.126  19.147  0.00  0.00    +0.000 C 
ATOM     11  O   UNL     1      52.780   5.213  19.449  0.00  0.00    +0.000 OA
ATOM     12  H   UNL     1      50.649   2.923  19.011  0.00  0.00    +0.000 HD
BRANCH  10  13
ATOM     13  C   UNL     1      53.174   2.906  18.800  0.00  0.00    +0.000 C 
ATOM     14  C   UNL     1      54.247   3.263  17.764  0.00  0.00    +0.000 C 
ATOM     15  C   UNL     1      55.080   2.038  17.387  0.00  0.00    +0.000 C 
ATOM     16  C   UNL     1      54.182   0.871  16.988  0.00  0.00    +0.000 C 
ATOM     17  C   UNL     1      53.110   0.610  18.043  0.00  0.00    +0.000 C 
ATOM     18  N   UNL     1      52.308   1.812  18.294  0.00  0.00    +0.000 NA
ATOM     19  H   UNL     1      51.623   1.595  19.022  0.00  0.00    +0.000 HD
ENDBRANCH  10  13
ENDBRANCH   8   9
ENDBRANCH   1   8
BRANCH   4  20
ATOM     20  C   UNL     1      48.454   7.197  14.256  0.00  0.00    +0.000 C 
BRANCH  20  21
ATOM     21  N   UNL     1      47.189   6.731  13.756  0.00  0.00    +0.000 N 
ATOM     22  C   UNL     1      46.901   6.731  12.414  0.00  0.00    +0.000 C 
ATOM     23  O   UNL     1      47.724   7.062  11.567  0.00  0.00    +0.000 OA
ATOM     24  H   UNL     1      46.425   6.698  14.421  0.00  0.00    +0.000 HD
BRANCH  22  25
ATOM     25  C   UNL     1      45.566   6.239  12.050  0.00  0.00    +0.000 A 
ATOM     26  C   UNL     1      44.616   7.112  11.539  0.00  0.00    +0.000 A 
ATOM     27  S   UNL     1      43.165   6.345  11.075  0.00  0.00    +0.000 S 
ATOM     28  C   UNL     1      43.733   4.828  11.599  0.00  0.00    +0.000 A 
ATOM     29  N   UNL     1      42.964   3.712  11.486  0.00  0.00    +0.000 NA
ATOM     30  C   UNL     1      43.507   2.639  11.959  0.00  0.00    +0.000 A 
ATOM     31  N   UNL     1      44.751   2.581  12.535  0.00  0.00    +0.000 N 
ATOM     32  C   UNL     1      45.570   3.675  12.645  0.00  0.00    +0.000 A 
ATOM     33  O   UNL     1      46.689   3.584  13.138  0.00  0.00    +0.000 OA
ATOM     34  C   UNL     1      45.009   4.907  12.123  0.00  0.00    +0.000 A 
ATOM     35  H   UNL     1      45.117   1.708  12.887  0.00  0.00    +0.000 HD
ENDBRANCH  22  25
ENDBRANCH  20  21
ENDBRANCH   4  20
TORSDOF 6
ENDMDL
MODEL 8
REMARK VINA RESULT:    -7.158      3.179      9.231
REMARK INTER + INTRA:         -10.590
REMARK INTER:                  -9.489
REMARK INTRA:                  -1.101
REMARK UNBOUND:                -0.922
REMARK  Name = 
REMARK  7 active torsions:
REMARK  status: ('A' for Active; 'I' for Inactive)
REMARK    1  A    between atoms: C_1  and  C_2
REMARK    2  A    between atoms: C_2  and  N_3
REMARK    3  A    between atoms: C_2  and  C_12
REMARK    4  A    between atoms: C_4  and  C_6
REMARK    5  A    between atoms: C_15  and  C_16
REMARK    6  A    between atoms: C_16  and  N_17
REMARK    7  A    between atoms: C_18  and  C_20
REMARK                            x       y       z     vdW  Elec       q    Type
REMARK                         _______ _______ _______ _____ _____    ______ ____
ROOT
ATOM      1  C   UNL     1      49.927   7.735  15.184  0.00  0.00    +0.000 A 
ATOM      2  C   UNL     1      49.788   8.960  14.531  0.00  0.00    +0.000 A 
ATOM      3  C   UNL     1      48.920   9.059  13.444  0.00  0.00    +0.000 A 
ATOM      4  C   UNL     1      48.190   7.941  13.037  0.00  0.00    +0.000 A 
ATOM      5  C   UNL     1      48.433   6.749  13.705  0.00  0.00    +0.000 A 
ATOM      6  N   UNL     1      49.270   6.626  14.760  0.00  0.00    +0.000 NA
ENDROOT
BRANCH   1   8
ATOM      7  C   UNL     1      50.317   8.556  17.552  0.00  0.00    +0.000 C 
ATOM      8  C   UNL     1      50.766   7.597  16.448  0.00  0.00    +0.000 C 
BRANCH   8   9
ATOM      9  N   UNL     1      50.768   6.215  16.917  0.00  0.00    +0.000 N 
ATOM     10  C   UNL     1      51.864   5.637  17.514  0.00  0.00    +0.000 C 
ATOM     11  O   UNL     1      52.912   6.238  17.732  0.00  0.00    +0.000 OA
ATOM     12  H   UNL     1      49.904   5.689  16.943  0.00  0.00    +0.000 HD
BRANCH  10  13
ATOM     13  C   UNL     1      51.676   4.156  17.907  0.00  0.00    +0.000 C 
ATOM     14  C   UNL     1      52.996   3.379  17.822  0.00  0.00    +0.000 C 
ATOM     15  C   UNL     1      52.791   1.903  18.162  0.00  0.00    +0.000 C 
ATOM     16  C   UNL     1      51.654   1.307  17.337  0.00  0.00    +0.000 C 
ATOM     17  C   UNL     1      50.392   2.162  17.433  0.00  0.00    +0.000 C 
ATOM     18  N   UNL     1      50.655   3.545  17.020  0.00  0.00    +0.000 NA
ATOM     19  H   UNL     1      49.791   4.081  17.124  0.00  0.00    +0.000 HD
ENDBRANCH  10  13
ENDBRANCH   8   9
ENDBRANCH   1   8
BRANCH   4  20
ATOM     20  C   UNL     1      47.205   8.003  11.905  0.00  0.00    +0.000 C 
BRANCH  20  21
ATOM     21  N   UNL     1      46.589   6.722  11.687  0.00  0.00    +0.000 N 
ATOM     22  C   UNL     1      45.225   6.577  11.641  0.00  0.00    +0.000 C 
ATOM     23  O   UNL     1      44.462   7.534  11.715  0.00  0.00    +0.000 OA
ATOM     24  H   UNL     1      47.163   5.907  11.876  0.00  0.00    +0.000 HD
BRANCH  22  25
ATOM     25  C   UNL     1      44.738   5.209  11.424  0.00  0.00    +0.000 A 
ATOM     26  C   UNL     1      44.024   4.557  12.420  0.00  0.00    +0.000 A 
ATOM     27  S   UNL     1      43.449   3.021  11.950  0.00  0.00    +0.000 S 
ATOM     28  C   UNL     1      44.189   3.147  10.422  0.00  0.00    +0.000 A 
ATOM     29  N   UNL     1      44.085   2.149   9.505  0.00  0.00    +0.000 NA
ATOM     30  C   UNL     1      44.727   2.364   8.405  0.00  0.00    +0.000 A 
ATOM     31  N   UNL     1      45.466   3.489   8.138  0.00  0.00    +0.000 N 
ATOM     32  C   UNL     1      45.575   4.532   9.022  0.00  0.00    +0.000 A 
ATOM     33  O   UNL     1      46.218   5.538   8.742  0.00  0.00    +0.000 OA
ATOM     34  C   UNL     1      44.866   4.343  10.274  0.00  0.00    +0.000 A 
ATOM     35  H   UNL     1      45.945   3.595   7.256  0.00  0.00    +0.000 HD
ENDBRANCH  22  25
ENDBRANCH  20  21
ENDBRANCH   4  20
TORSDOF 6
ENDMDL
MODEL 9
REMARK VINA RESULT:    -6.992      3.382      4.867
REMARK INTER + INTRA:         -10.366
REMARK INTER:                  -9.287
REMARK INTRA:                  -1.079
REMARK UNBOUND:                -0.922
REMARK  Name = 
REMARK  7 active torsions:
REMARK  status: ('A' for Active; 'I' for Inactive)
REMARK    1  A    between atoms: C_1  and  C_2
REMARK    2  A    between atoms: C_2  and  N_3
REMARK    3  A    between atoms: C_2  and  C_12
REMARK    4  A    between atoms: C_4  and  C_6
REMARK    5  A    between atoms: C_15  and  C_16
REMARK    6  A    between atoms: C_16  and  N_17
REMARK    7  A    between atoms: C_18  and  C_20
REMARK                            x       y       z     vdW  Elec       q    Type
REMARK                         _______ _______ _______ _____ _____    ______ ____
ROOT
ATOM      1  C   UNL     1      45.307   4.694  12.431  0.00  0.00    +0.000 A 
ATOM      2  C   UNL     1      45.487   6.075  12.342  0.00  0.00    +0.000 A 
ATOM      3  C   UNL     1      46.479   6.685  13.110  0.00  0.00    +0.000 A 
ATOM      4  C   UNL     1      47.289   5.906  13.939  0.00  0.00    +0.000 A 
ATOM      5  C   UNL     1      47.002   4.550  14.011  0.00  0.00    +0.000 A 
ATOM      6  N   UNL     1      46.046   3.935  13.278  0.00  0.00    +0.000 NA
ENDROOT
BRANCH   1   8
ATOM      7  C   UNL     1      42.995   4.705  11.389  0.00  0.00    +0.000 C 
ATOM      8  C   UNL     1      44.324   3.961  11.529  0.00  0.00    +0.000 C 
BRANCH   8   9
ATOM      9  N   UNL     1      44.920   3.695  10.223  0.00  0.00    +0.000 N 
ATOM     10  C   UNL     1      44.624   2.571   9.487  0.00  0.00    +0.000 C 
ATOM     11  O   UNL     1      43.814   1.721   9.847  0.00  0.00    +0.000 OA
ATOM     12  H   UNL     1      45.463   4.413   9.761  0.00  0.00    +0.000 HD
BRANCH  10  13
ATOM     13  C   UNL     1      45.386   2.459   8.149  0.00  0.00    +0.000 C 
ATOM     14  C   UNL     1      46.346   1.263   8.147  0.00  0.00    +0.000 C 
ATOM     15  C   UNL     1      47.134   1.190   6.840  0.00  0.00    +0.000 C 
ATOM     16  C   UNL     1      47.794   2.529   6.527  0.00  0.00    +0.000 C 
ATOM     17  C   UNL     1      46.787   3.674   6.597  0.00  0.00    +0.000 C 
ATOM     18  N   UNL     1      46.128   3.722   7.907  0.00  0.00    +0.000 NA
ATOM     19  H   UNL     1      45.448   4.485   7.897  0.00  0.00    +0.000 HD
ENDBRANCH  10  13
ENDBRANCH   8   9
ENDBRANCH   1   8
BRANCH   4  20
ATOM     20  C   UNL     1      48.403   6.502  14.750  0.00  0.00    +0.000 C 
BRANCH  20  21
ATOM     21  N   UNL     1      49.428   7.042  13.897  0.00  0.00    +0.000 N 
ATOM     22  C   UNL     1      49.519   8.388  13.644  0.00  0.00    +0.000 C 
ATOM     23  O   UNL     1      48.780   9.207  14.179  0.00  0.00    +0.000 OA
ATOM     24  H   UNL     1      49.874   6.392  13.260  0.00  0.00    +0.000 HD
BRANCH  22  25
ATOM     25  C   UNL     1      50.608   8.794  12.745  0.00  0.00    +0.000 A 
ATOM     26  C   UNL     1      50.319   9.329  11.498  0.00  0.00    +0.000 A 
ATOM     27  S   UNL     1      51.702   9.839  10.640  0.00  0.00    +0.000 S 
ATOM     28  C   UNL     1      52.739   9.304  11.879  0.00  0.00    +0.000 A 
ATOM     29  N   UNL     1      54.088   9.444  11.778  0.00  0.00    +0.000 NA
ATOM     30  C   UNL     1      54.753   8.960  12.774  0.00  0.00    +0.000 A 
ATOM     31  N   UNL     1      54.190   8.347  13.865  0.00  0.00    +0.000 N 
ATOM     32  C   UNL     1      52.835   8.209  14.022  0.00  0.00    +0.000 A 
ATOM     33  O   UNL     1      52.361   7.682  15.023  0.00  0.00    +0.000 OA
ATOM     34  C   UNL     1      52.040   8.742  12.930  0.00  0.00    +0.000 A 
ATOM     35  H   UNL     1      54.767   7.988  14.611  0.00  0.00    +0.000 HD
ENDBRANCH  22  25
ENDBRANCH  20  21
ENDBRANCH   4  20
TORSDOF 6
ENDMDL
