MODEL 1
REMARK VINA RESULT:    -8.865      0.000      0.000
REMARK INTER + INTRA:         -12.093
REMARK INTER:                 -11.456
REMARK INTRA:                  -0.637
REMARK UNBOUND:                -0.637
REMARK  Name = 
REMARK  5 active torsions:
REMARK  status: ('A' for Active; 'I' for Inactive)
REMARK    1  A    between atoms: C_2  and  C_19
REMARK    2  A    between atoms: N_3  and  C_4
REMARK    3  A    between atoms: C_4  and  C_5
REMARK    4  A    between atoms: C_8  and  O_9
REMARK    5  A    between atoms: O_9  and  C_10
REMARK                            x       y       z     vdW  Elec       q    Type
REMARK                         _______ _______ _______ _____ _____    ______ ____
ROOT
ATOM      1  O   UNL     1      48.791   6.821  13.038  0.00  0.00    +0.000 OA
ATOM      2  C   UNL     1      48.071   6.661  14.020  0.00  0.00    +0.000 C 
ATOM      3  N   UNL     1      46.712   6.827  13.973  0.00  0.00    +0.000 N 
ATOM      4  H   UNL     1      46.191   6.868  14.840  0.00  0.00    +0.000 HD
ENDROOT
BRANCH   2   5
ATOM      5  C   UNL     1      48.622   6.225  15.311  0.00  0.00    +0.000 A 
ATOM      6  C   UNL     1      49.647   6.948  15.903  0.00  0.00    +0.000 A 
ATOM      7  S   UNL     1      50.180   6.294  17.385  0.00  0.00    +0.000 S 
ATOM      8  C   UNL     1      49.027   5.045  17.315  0.00  0.00    +0.000 A 
ATOM      9  N   UNL     1      48.915   4.133  18.316  0.00  0.00    +0.000 NA
ATOM     10  C   UNL     1      47.970   3.269  18.149  0.00  0.00    +0.000 A 
ATOM     11  N   UNL     1      47.134   3.225  17.067  0.00  0.00    +0.000 N 
ATOM     12  C   UNL     1      47.258   4.076  15.996  0.00  0.00    +0.000 A 
ATOM     13  O   UNL     1      46.584   3.921  14.981  0.00  0.00    +0.000 OA
ATOM     14  C   UNL     1      48.268   5.105  16.157  0.00  0.00    +0.000 A 
ATOM     15  H   UNL     1      46.436   2.500  16.980  0.00  0.00    +0.000 HD
ENDBRANCH   2   5
BRANCH   3  16
ATOM     16  C   UNL     1      46.028   7.332  12.813  0.00  0.00    +0.000 C 
BRANCH  16  17
ATOM     17  C   UNL     1      45.654   6.213  11.878  0.00  0.00    +0.000 A 
ATOM     18  C   UNL     1      44.929   5.115  12.355  0.00  0.00    +0.000 A 
ATOM     19  C   UNL     1      44.563   4.079  11.495  0.00  0.00    +0.000 A 
ATOM     20  C   UNL     1      44.872   4.156  10.135  0.00  0.00    +0.000 A 
ATOM     21  C   UNL     1      45.661   5.207   9.666  0.00  0.00    +0.000 A 
ATOM     22  C   UNL     1      46.057   6.229  10.535  0.00  0.00    +0.000 A 
BRANCH  20  23
ATOM     23  O   UNL     1      44.494   3.216   9.201  0.00  0.00    +0.000 OA
BRANCH  23  24
ATOM     24  C   UNL     1      45.420   2.738   8.299  0.00  0.00    +0.000 A 
ATOM     25  C   UNL     1      46.031   1.481   8.380  0.00  0.00    +0.000 A 
ATOM     26  C   UNL     1      46.995   1.109   7.442  0.00  0.00    +0.000 A 
ATOM     27  C   UNL     1      47.297   1.969   6.394  0.00  0.00    +0.000 A 
ATOM     28  F   UNL     1      48.224   1.613   5.495  0.00  0.00    +0.000 F 
ATOM     29  C   UNL     1      46.645   3.190   6.259  0.00  0.00    +0.000 A 
ATOM     30  C   UNL     1      45.703   3.575   7.215  0.00  0.00    +0.000 A 
ENDBRANCH  23  24
ENDBRANCH  20  23
ENDBRANCH  16  17
ENDBRANCH   3  16
TORSDOF 5
ENDMDL
MODEL 2
REMARK VINA RESULT:    -8.266      1.113      1.468
REMARK INTER + INTRA:         -11.320
REMARK INTER:                 -10.297
REMARK INTRA:                  -1.022
REMARK UNBOUND:                -0.637
REMARK  Name = 
REMARK  5 active torsions:
REMARK  status: ('A' for Active; 'I' for Inactive)
REMARK    1  A    between atoms: C_2  and  C_19
REMARK    2  A    between atoms: N_3  and  C_4
REMARK    3  A    between atoms: C_4  and  C_5
REMARK    4  A    between atoms: C_8  and  O_9
REMARK    5  A    between atoms: O_9  and  C_10
REMARK                            x       y       z     vdW  Elec       q    Type
REMARK                         _______ _______ _______ _____ _____    ______ ____
ROOT
ATOM      1  O   UNL     1      49.702   7.130  13.978  0.00  0.00    +0.000 OA
ATOM      2  C   UNL     1      48.847   7.028  14.854  0.00  0.00    +0.000 C 
ATOM      3  N   UNL     1      47.534   7.356  14.643  0.00  0.00    +0.000 N 
ATOM      4  H   UNL     1      46.913   7.433  15.440  0.00  0.00    +0.000 HD
ENDROOT
BRANCH   2   5
ATOM      5  C   UNL     1      49.172   6.491  16.183  0.00  0.00    +0.000 A 
ATOM      6  C   UNL     1      49.987   7.217  17.040  0.00  0.00    +0.000 A 
ATOM      7  S   UNL     1      50.277   6.442  18.531  0.00  0.00    +0.000 S 
ATOM      8  C   UNL     1      49.285   5.127  18.106  0.00  0.00    +0.000 A 
ATOM      9  N   UNL     1      49.066   4.102  18.971  0.00  0.00    +0.000 NA
ATOM     10  C   UNL     1      48.259   3.194  18.531  0.00  0.00    +0.000 A 
ATOM     11  N   UNL     1      47.661   3.211  17.301  0.00  0.00    +0.000 N 
ATOM     12  C   UNL     1      47.912   4.184  16.365  0.00  0.00    +0.000 A 
ATOM     13  O   UNL     1      47.468   4.094  15.223  0.00  0.00    +0.000 OA
ATOM     14  C   UNL     1      48.767   5.260  16.827  0.00  0.00    +0.000 A 
ATOM     15  H   UNL     1      47.065   2.450  17.004  0.00  0.00    +0.000 HD
ENDBRANCH   2   5
BRANCH   3  16
ATOM     16  C   UNL     1      47.068   7.973  13.431  0.00  0.00    +0.000 C 
BRANCH  16  17
ATOM     17  C   UNL     1      46.238   7.013  12.621  0.00  0.00    +0.000 A 
ATOM     18  C   UNL     1      45.200   7.493  11.815  0.00  0.00    +0.000 A 
ATOM     19  C   UNL     1      44.434   6.615  11.047  0.00  0.00    +0.000 A 
ATOM     20  C   UNL     1      44.731   5.250  11.038  0.00  0.00    +0.000 A 
ATOM     21  C   UNL     1      45.711   4.754  11.899  0.00  0.00    +0.000 A 
ATOM     22  C   UNL     1      46.457   5.630  12.693  0.00  0.00    +0.000 A 
BRANCH  20  23
ATOM     23  O   UNL     1      44.074   4.320  10.264  0.00  0.00    +0.000 OA
BRANCH  23  24
ATOM     24  C   UNL     1      44.787   3.543   9.377  0.00  0.00    +0.000 A 
ATOM     25  C   UNL     1      44.780   2.142   9.366  0.00  0.00    +0.000 A 
ATOM     26  C   UNL     1      45.577   1.446   8.457  0.00  0.00    +0.000 A 
ATOM     27  C   UNL     1      46.328   2.151   7.524  0.00  0.00    +0.000 A 
ATOM     28  F   UNL     1      47.094   1.482   6.653  0.00  0.00    +0.000 F 
ATOM     29  C   UNL     1      46.288   3.540   7.476  0.00  0.00    +0.000 A 
ATOM     30  C   UNL     1      45.514   4.238   8.405  0.00  0.00    +0.000 A 
ENDBRANCH  23  24
ENDBRANCH  20  23
ENDBRANCH  16  17
ENDBRANCH   3  16
TORSDOF 5
ENDMDL
MODEL 3
REMARK VINA RESULT:    -8.256      3.316      4.253
REMARK INTER + INTRA:         -11.306
REMARK INTER:                 -10.333
REMARK INTRA:                  -0.973
REMARK UNBOUND:                -0.637
REMARK  Name = 
REMARK  5 active torsions:
REMARK  status: ('A' for Active; 'I' for Inactive)
REMARK    1  A    between atoms: C_2  and  C_19
REMARK    2  A    between atoms: N_3  and  C_4
REMARK    3  A    between atoms: C_4  and  C_5
REMARK    4  A    between atoms: C_8  and  O_9
REMARK    5  A    between atoms: O_9  and  C_10
REMARK                            x       y       z     vdW  Elec       q    Type
REMARK                         _______ _______ _______ _____ _____    ______ ____
ROOT
ATOM      1  O   UNL     1      44.861   8.856  11.641  0.00  0.00    +0.000 OA
ATOM      2  C   UNL     1      45.852   8.479  12.261  0.00  0.00    +0.000 C 
ATOM      3  N   UNL     1      45.864   7.325  12.999  0.00  0.00    +0.000 N 
ATOM      4  H   UNL     1      46.634   7.157  13.636  0.00  0.00    +0.000 HD
ENDROOT
BRANCH   2   5
ATOM      5  C   UNL     1      47.119   9.222  12.207  0.00  0.00    +0.000 A 
ATOM      6  C   UNL     1      47.103  10.603  12.081  0.00  0.00    +0.000 A 
ATOM      7  S   UNL     1      48.657  11.303  12.015  0.00  0.00    +0.000 S 
ATOM      8  C   UNL     1      49.410   9.789  12.200  0.00  0.00    +0.000 A 
ATOM      9  N   UNL     1      50.763   9.679  12.262  0.00  0.00    +0.000 NA
ATOM     10  C   UNL     1      51.194   8.475  12.446  0.00  0.00    +0.000 A 
ATOM     11  N   UNL     1      50.396   7.369  12.559  0.00  0.00    +0.000 N 
ATOM     12  C   UNL     1      49.030   7.420  12.424  0.00  0.00    +0.000 A 
ATOM     13  O   UNL     1      48.358   6.393  12.392  0.00  0.00    +0.000 OA
ATOM     14  C   UNL     1      48.488   8.757  12.274  0.00  0.00    +0.000 A 
ATOM     15  H   UNL     1      50.798   6.449  12.667  0.00  0.00    +0.000 HD
ENDBRANCH   2   5
BRANCH   3  16
ATOM     16  C   UNL     1      44.687   6.530  13.224  0.00  0.00    +0.000 C 
BRANCH  16  17
ATOM     17  C   UNL     1      44.586   5.418  12.213  0.00  0.00    +0.000 A 
ATOM     18  C   UNL     1      43.731   5.549  11.113  0.00  0.00    +0.000 A 
ATOM     19  C   UNL     1      43.640   4.533  10.162  0.00  0.00    +0.000 A 
ATOM     20  C   UNL     1      44.443   3.396  10.272  0.00  0.00    +0.000 A 
ATOM     21  C   UNL     1      45.239   3.222  11.405  0.00  0.00    +0.000 A 
ATOM     22  C   UNL     1      45.306   4.226  12.376  0.00  0.00    +0.000 A 
BRANCH  20  23
ATOM     23  O   UNL     1      44.470   2.374   9.348  0.00  0.00    +0.000 OA
BRANCH  23  24
ATOM     24  C   UNL     1      45.416   2.384   8.346  0.00  0.00    +0.000 A 
ATOM     25  C   UNL     1      45.677   3.478   7.511  0.00  0.00    +0.000 A 
ATOM     26  C   UNL     1      46.623   3.370   6.491  0.00  0.00    +0.000 A 
ATOM     27  C   UNL     1      47.347   2.193   6.351  0.00  0.00    +0.000 A 
ATOM     28  F   UNL     1      48.253   2.089   5.370  0.00  0.00    +0.000 F 
ATOM     29  C   UNL     1      47.151   1.124   7.219  0.00  0.00    +0.000 A 
ATOM     30  C   UNL     1      46.182   1.221   8.220  0.00  0.00    +0.000 A 
ENDBRANCH  23  24
ENDBRANCH  20  23
ENDBRANCH  16  17
ENDBRANCH   3  16
TORSDOF 5
ENDMDL
MODEL 4
REMARK VINA RESULT:    -7.301      1.877      2.491
REMARK INTER + INTRA:         -10.072
REMARK INTER:                  -8.949
REMARK INTRA:                  -1.123
REMARK UNBOUND:                -0.637
REMARK  Name = 
REMARK  5 active torsions:
REMARK  status: ('A' for Active; 'I' for Inactive)
REMARK    1  A    between atoms: C_2  and  C_19
REMARK    2  A    between atoms: N_3  and  C_4
REMARK    3  A    between atoms: C_4  and  C_5
REMARK    4  A    between atoms: C_8  and  O_9
REMARK    5  A    between atoms: O_9  and  C_10
REMARK                            x       y       z     vdW  Elec       q    Type
REMARK                         _______ _______ _______ _____ _____    ______ ____
ROOT
ATOM      1  O   UNL     1      49.804   9.319  15.550  0.00  0.00    +0.000 OA
ATOM      2  C   UNL     1      49.757   8.106  15.363  0.00  0.00    +0.000 C 
ATOM      3  N   UNL     1      48.814   7.519  14.560  0.00  0.00    +0.000 N 
ATOM      4  H   UNL     1      48.702   6.513  14.589  0.00  0.00    +0.000 HD
ENDROOT
BRANCH   2   5
ATOM      5  C   UNL     1      50.753   7.200  15.954  0.00  0.00    +0.000 A 
ATOM      6  C   UNL     1      52.102   7.516  15.880  0.00  0.00    +0.000 A 
ATOM      7  S   UNL     1      53.119   6.350  16.597  0.00  0.00    +0.000 S 
ATOM      8  C   UNL     1      51.790   5.401  17.075  0.00  0.00    +0.000 A 
ATOM      9  N   UNL     1      51.964   4.253  17.782  0.00  0.00    +0.000 NA
ATOM     10  C   UNL     1      50.866   3.659  18.113  0.00  0.00    +0.000 A 
ATOM     11  N   UNL     1      49.611   4.098  17.790  0.00  0.00    +0.000 N 
ATOM     12  C   UNL     1      49.389   5.208  17.013  0.00  0.00    +0.000 A 
ATOM     13  O   UNL     1      48.260   5.496  16.626  0.00  0.00    +0.000 OA
ATOM     14  C   UNL     1      50.586   5.948  16.661  0.00  0.00    +0.000 A 
ATOM     15  H   UNL     1      48.793   3.567  18.051  0.00  0.00    +0.000 HD
ENDBRANCH   2   5
BRANCH   3  16
ATOM     16  C   UNL     1      47.721   8.251  13.979  0.00  0.00    +0.000 C 
BRANCH  16  17
ATOM     17  C   UNL     1      46.882   7.359  13.102  0.00  0.00    +0.000 A 
ATOM     18  C   UNL     1      47.071   5.973  13.130  0.00  0.00    +0.000 A 
ATOM     19  C   UNL     1      46.289   5.135  12.334  0.00  0.00    +0.000 A 
ATOM     20  C   UNL     1      45.273   5.671  11.540  0.00  0.00    +0.000 A 
ATOM     21  C   UNL     1      45.131   7.056  11.446  0.00  0.00    +0.000 A 
ATOM     22  C   UNL     1      45.936   7.898  12.219  0.00  0.00    +0.000 A 
BRANCH  20  23
ATOM     23  O   UNL     1      44.410   4.918  10.775  0.00  0.00    +0.000 OA
BRANCH  23  24
ATOM     24  C   UNL     1      44.913   4.061   9.820  0.00  0.00    +0.000 A 
ATOM     25  C   UNL     1      44.751   2.670   9.838  0.00  0.00    +0.000 A 
ATOM     26  C   UNL     1      45.343   1.884   8.848  0.00  0.00    +0.000 A 
ATOM     27  C   UNL     1      46.039   2.496   7.813  0.00  0.00    +0.000 A 
ATOM     28  F   UNL     1      46.609   1.741   6.865  0.00  0.00    +0.000 F 
ATOM     29  C   UNL     1      46.146   3.881   7.743  0.00  0.00    +0.000 A 
ATOM     30  C   UNL     1      45.580   4.665   8.749  0.00  0.00    +0.000 A 
ENDBRANCH  23  24
ENDBRANCH  20  23
ENDBRANCH  16  17
ENDBRANCH   3  16
TORSDOF 5
ENDMDL
MODEL 5
REMARK VINA RESULT:    -7.162      2.337      3.355
REMARK INTER + INTRA:          -9.892
REMARK INTER:                  -8.842
REMARK INTRA:                  -1.050
REMARK UNBOUND:                -0.637
REMARK  Name = 
REMARK  5 active torsions:
REMARK  status: ('A' for Active; 'I' for Inactive)
REMARK    1  A    between atoms: C_2  and  C_19
REMARK    2  A    between atoms: N_3  and  C_4
REMARK    3  A    between atoms: C_4  and  C_5
REMARK    4  A    between atoms: C_8  and  O_9
REMARK    5  A    between atoms: O_9  and  C_10
REMARK                            x       y       z     vdW  Elec       q    Type
REMARK                         _______ _______ _______ _____ _____    ______ ____
ROOT
ATOM      1  O   UNL     1      48.174   8.881  16.525  0.00  0.00    +0.000 OA
ATOM      2  C   UNL     1      48.663   7.925  15.929  0.00  0.00    +0.000 C 
ATOM      3  N   UNL     1      48.345   7.624  14.631  0.00  0.00    +0.000 N 
ATOM      4  H   UNL     1      48.627   6.728  14.251  0.00  0.00    +0.000 HD
ENDROOT
BRANCH   2   5
ATOM      5  C   UNL     1      49.674   7.064  16.560  0.00  0.00    +0.000 A 
ATOM      6  C   UNL     1      49.309   6.220  17.599  0.00  0.00    +0.000 A 
ATOM      7  S   UNL     1      50.605   5.308  18.228  0.00  0.00    +0.000 S 
ATOM      8  C   UNL     1      51.695   5.973  17.104  0.00  0.00    +0.000 A 
ATOM      9  N   UNL     1      52.997   5.584  17.071  0.00  0.00    +0.000 NA
ATOM     10  C   UNL     1      53.697   6.141  16.139  0.00  0.00    +0.000 A 
ATOM     11  N   UNL     1      53.219   7.061  15.247  0.00  0.00    +0.000 N 
ATOM     12  C   UNL     1      51.934   7.541  15.291  0.00  0.00    +0.000 A 
ATOM     13  O   UNL     1      51.578   8.467  14.566  0.00  0.00    +0.000 OA
ATOM     14  C   UNL     1      51.086   6.907  16.282  0.00  0.00    +0.000 A 
ATOM     15  H   UNL     1      53.830   7.485  14.563  0.00  0.00    +0.000 HD
ENDBRANCH   2   5
BRANCH   3  16
ATOM     16  C   UNL     1      47.315   8.311  13.901  0.00  0.00    +0.000 C 
BRANCH  16  17
ATOM     17  C   UNL     1      46.557   7.360  13.014  0.00  0.00    +0.000 A 
ATOM     18  C   UNL     1      46.761   5.981  13.131  0.00  0.00    +0.000 A 
ATOM     19  C   UNL     1      46.052   5.088  12.325  0.00  0.00    +0.000 A 
ATOM     20  C   UNL     1      45.092   5.564  11.429  0.00  0.00    +0.000 A 
ATOM     21  C   UNL     1      44.939   6.939  11.250  0.00  0.00    +0.000 A 
ATOM     22  C   UNL     1      45.673   7.835  12.034  0.00  0.00    +0.000 A 
BRANCH  20  23
ATOM     23  O   UNL     1      44.300   4.756  10.644  0.00  0.00    +0.000 OA
BRANCH  23  24
ATOM     24  C   UNL     1      44.882   3.926   9.712  0.00  0.00    +0.000 A 
ATOM     25  C   UNL     1      44.810   2.527   9.740  0.00  0.00    +0.000 A 
ATOM     26  C   UNL     1      45.477   1.772   8.774  0.00  0.00    +0.000 A 
ATOM     27  C   UNL     1      46.159   2.419   7.751  0.00  0.00    +0.000 A 
ATOM     28  F   UNL     1      46.801   1.694   6.826  0.00  0.00    +0.000 F 
ATOM     29  C   UNL     1      46.178   3.807   7.669  0.00  0.00    +0.000 A 
ATOM     30  C   UNL     1      45.537   4.562   8.652  0.00  0.00    +0.000 A 
ENDBRANCH  23  24
ENDBRANCH  20  23
ENDBRANCH  16  17
ENDBRANCH   3  16
TORSDOF 5
ENDMDL
MODEL 6
REMARK VINA RESULT:    -7.135      2.163      3.133
REMARK INTER + INTRA:          -9.858
REMARK INTER:                  -8.839
REMARK INTRA:                  -1.018
REMARK UNBOUND:                -0.637
REMARK  Name = 
REMARK  5 active torsions:
REMARK  status: ('A' for Active; 'I' for Inactive)
REMARK    1  A    between atoms: C_2  and  C_19
REMARK    2  A    between atoms: N_3  and  C_4
REMARK    3  A    between atoms: C_4  and  C_5
REMARK    4  A    between atoms: C_8  and  O_9
REMARK    5  A    between atoms: O_9  and  C_10
REMARK                            x       y       z     vdW  Elec       q    Type
REMARK                         _______ _______ _______ _____ _____    ______ ____
ROOT
ATOM      1  O   UNL     1      47.988   9.251  16.556  0.00  0.00    +0.000 OA
ATOM      2  C   UNL     1      48.588   8.194  16.383  0.00  0.00    +0.000 C 
ATOM      3  N   UNL     1      49.101   7.828  15.166  0.00  0.00    +0.000 N 
ATOM      4  H   UNL     1      49.417   6.875  15.032  0.00  0.00    +0.000 HD
ENDROOT
BRANCH   2   5
ATOM      5  C   UNL     1      48.844   7.266  17.494  0.00  0.00    +0.000 A 
ATOM      6  C   UNL     1      49.332   7.752  18.699  0.00  0.00    +0.000 A 
ATOM      7  S   UNL     1      49.591   6.541  19.871  0.00  0.00    +0.000 S 
ATOM      8  C   UNL     1      49.014   5.327  18.828  0.00  0.00    +0.000 A 
ATOM      9  N   UNL     1      48.932   4.032  19.233  0.00  0.00    +0.000 NA
ATOM     10  C   UNL     1      48.437   3.227  18.352  0.00  0.00    +0.000 A 
ATOM     11  N   UNL     1      48.030   3.595  17.099  0.00  0.00    +0.000 N 
ATOM     12  C   UNL     1      48.166   4.875  16.619  0.00  0.00    +0.000 A 
ATOM     13  O   UNL     1      47.921   5.140  15.445  0.00  0.00    +0.000 OA
ATOM     14  C   UNL     1      48.663   5.833  17.587  0.00  0.00    +0.000 A 
ATOM     15  H   UNL     1      47.683   2.909  16.444  0.00  0.00    +0.000 HD
ENDBRANCH   2   5
BRANCH   3  16
ATOM     16  C   UNL     1      48.865   8.579  13.963  0.00  0.00    +0.000 C 
BRANCH  16  17
ATOM     17  C   UNL     1      47.716   7.998  13.181  0.00  0.00    +0.000 A 
ATOM     18  C   UNL     1      47.887   6.805  12.470  0.00  0.00    +0.000 A 
ATOM     19  C   UNL     1      46.826   6.248  11.755  0.00  0.00    +0.000 A 
ATOM     20  C   UNL     1      45.567   6.852  11.786  0.00  0.00    +0.000 A 
ATOM     21  C   UNL     1      45.409   8.082  12.426  0.00  0.00    +0.000 A 
ATOM     22  C   UNL     1      46.480   8.657  13.116  0.00  0.00    +0.000 A 
BRANCH  20  23
ATOM     23  O   UNL     1      44.448   6.340  11.167  0.00  0.00    +0.000 OA
BRANCH  23  24
ATOM     24  C   UNL     1      44.466   5.053  10.678  0.00  0.00    +0.000 A 
ATOM     25  C   UNL     1      43.866   3.955  11.308  0.00  0.00    +0.000 A 
ATOM     26  C   UNL     1      43.983   2.679  10.755  0.00  0.00    +0.000 A 
ATOM     27  C   UNL     1      44.644   2.517   9.543  0.00  0.00    +0.000 A 
ATOM     28  F   UNL     1      44.759   1.293   9.014  0.00  0.00    +0.000 F 
ATOM     29  C   UNL     1      45.181   3.608   8.870  0.00  0.00    +0.000 A 
ATOM     30  C   UNL     1      45.091   4.880   9.438  0.00  0.00    +0.000 A 
ENDBRANCH  23  24
ENDBRANCH  20  23
ENDBRANCH  16  17
ENDBRANCH   3  16
TORSDOF 5
ENDMDL
MODEL 7
REMARK VINA RESULT:    -7.120      2.259      2.984
REMARK INTER + INTRA:          -9.838
REMARK INTER:                  -9.057
REMARK INTRA:                  -0.781
REMARK UNBOUND:                -0.637
REMARK  Name = 
REMARK  5 active torsions:
REMARK  status: ('A' for Active; 'I' for Inactive)
REMARK    1  A    between atoms: C_2  and  C_19
REMARK    2  A    between atoms: N_3  and  C_4
REMARK    3  A    between atoms: C_4  and  C_5
REMARK    4  A    between atoms: C_8  and  O_9
REMARK    5  A    between atoms: O_9  and  C_10
REMARK                            x       y       z     vdW  Elec       q    Type
REMARK                         _______ _______ _______ _____ _____    ______ ____
ROOT
ATOM      1  O   UNL     1      49.684   7.071  14.332  0.00  0.00    +0.000 OA
ATOM      2  C   UNL     1      48.781   7.262  15.143  0.00  0.00    +0.000 C 
ATOM      3  N   UNL     1      47.622   7.915  14.815  0.00  0.00    +0.000 N 
ATOM      4  H   UNL     1      46.998   8.210  15.556  0.00  0.00    +0.000 HD
ENDROOT
BRANCH   2   5
ATOM      5  C   UNL     1      48.863   6.749  16.518  0.00  0.00    +0.000 A 
ATOM      6  C   UNL     1      49.276   5.444  16.743  0.00  0.00    +0.000 A 
ATOM      7  S   UNL     1      49.296   5.006  18.391  0.00  0.00    +0.000 S 
ATOM      8  C   UNL     1      48.800   6.561  18.870  0.00  0.00    +0.000 A 
ATOM      9  N   UNL     1      48.654   6.880  20.183  0.00  0.00    +0.000 NA
ATOM     10  C   UNL     1      48.312   8.107  20.399  0.00  0.00    +0.000 A 
ATOM     11  N   UNL     1      48.090   9.040  19.424  0.00  0.00    +0.000 N 
ATOM     12  C   UNL     1      48.149   8.744  18.084  0.00  0.00    +0.000 A 
ATOM     13  O   UNL     1      47.808   9.566  17.238  0.00  0.00    +0.000 OA
ATOM     14  C   UNL     1      48.585   7.394  17.783  0.00  0.00    +0.000 A 
ATOM     15  H   UNL     1      47.791   9.976  19.660  0.00  0.00    +0.000 HD
ENDBRANCH   2   5
BRANCH   3  16
ATOM     16  C   UNL     1      47.419   8.552  13.542  0.00  0.00    +0.000 C 
BRANCH  16  17
ATOM     17  C   UNL     1      46.608   7.675  12.624  0.00  0.00    +0.000 A 
ATOM     18  C   UNL     1      47.234   6.659  11.893  0.00  0.00    +0.000 A 
ATOM     19  C   UNL     1      46.491   5.831  11.052  0.00  0.00    +0.000 A 
ATOM     20  C   UNL     1      45.104   5.975  10.973  0.00  0.00    +0.000 A 
ATOM     21  C   UNL     1      44.483   7.035  11.636  0.00  0.00    +0.000 A 
ATOM     22  C   UNL     1      45.232   7.886  12.454  0.00  0.00    +0.000 A 
BRANCH  20  23
ATOM     23  O   UNL     1      44.282   5.163  10.223  0.00  0.00    +0.000 OA
BRANCH  23  24
ATOM     24  C   UNL     1      44.827   4.134   9.486  0.00  0.00    +0.000 A 
ATOM     25  C   UNL     1      44.669   2.774   9.783  0.00  0.00    +0.000 A 
ATOM     26  C   UNL     1      45.303   1.809   9.000  0.00  0.00    +0.000 A 
ATOM     27  C   UNL     1      46.039   2.203   7.890  0.00  0.00    +0.000 A 
ATOM     28  F   UNL     1      46.650   1.276   7.141  0.00  0.00    +0.000 F 
ATOM     29  C   UNL     1      46.144   3.545   7.541  0.00  0.00    +0.000 A 
ATOM     30  C   UNL     1      45.535   4.513   8.341  0.00  0.00    +0.000 A 
ENDBRANCH  23  24
ENDBRANCH  20  23
ENDBRANCH  16  17
ENDBRANCH   3  16
TORSDOF 5
ENDMDL
MODEL 8
REMARK VINA RESULT:    -6.797      3.852      5.918
REMARK INTER + INTRA:          -9.421
REMARK INTER:                  -8.280
REMARK INTRA:                  -1.141
REMARK UNBOUND:                -0.637
REMARK  Name = 
REMARK  5 active torsions:
REMARK  status: ('A' for Active; 'I' for Inactive)
REMARK    1  A    between atoms: C_2  and  C_19
REMARK    2  A    between atoms: N_3  and  C_4
REMARK    3  A    between atoms: C_4  and  C_5
REMARK    4  A    between atoms: C_8  and  O_9
REMARK    5  A    between atoms: O_9  and  C_10
REMARK                            x       y       z     vdW  Elec       q    Type
REMARK                         _______ _______ _______ _____ _____    ______ ____
ROOT
ATOM      1  O   UNL     1      51.792   5.652  16.500  0.00  0.00    +0.000 OA
ATOM      2  C   UNL     1      51.571   4.937  17.474  0.00  0.00    +0.000 C 
ATOM      3  N   UNL     1      50.362   4.920  18.117  0.00  0.00    +0.000 N 
ATOM      4  H   UNL     1      50.290   4.461  19.017  0.00  0.00    +0.000 HD
ENDROOT
BRANCH   2   5
ATOM      5  C   UNL     1      52.585   4.003  17.985  0.00  0.00    +0.000 A 
ATOM      6  C   UNL     1      53.714   4.494  18.624  0.00  0.00    +0.000 A 
ATOM      7  S   UNL     1      54.794   3.277  19.137  0.00  0.00    +0.000 S 
ATOM      8  C   UNL     1      53.770   2.046  18.565  0.00  0.00    +0.000 A 
ATOM      9  N   UNL     1      54.089   0.734  18.723  0.00  0.00    +0.000 NA
ATOM     10  C   UNL     1      53.200  -0.090  18.278  0.00  0.00    +0.000 A 
ATOM     11  N   UNL     1      52.027   0.276  17.677  0.00  0.00    +0.000 N 
ATOM     12  C   UNL     1      51.696   1.586  17.426  0.00  0.00    +0.000 A 
ATOM     13  O   UNL     1      50.704   1.873  16.762  0.00  0.00    +0.000 OA
ATOM     14  C   UNL     1      52.634   2.557  17.957  0.00  0.00    +0.000 A 
ATOM     15  H   UNL     1      51.388  -0.420  17.320  0.00  0.00    +0.000 HD
ENDBRANCH   2   5
BRANCH   3  16
ATOM     16  C   UNL     1      49.296   5.831  17.797  0.00  0.00    +0.000 C 
BRANCH  16  17
ATOM     17  C   UNL     1      48.481   5.322  16.638  0.00  0.00    +0.000 A 
ATOM     18  C   UNL     1      48.312   6.118  15.499  0.00  0.00    +0.000 A 
ATOM     19  C   UNL     1      47.573   5.652  14.411  0.00  0.00    +0.000 A 
ATOM     20  C   UNL     1      47.038   4.362  14.429  0.00  0.00    +0.000 A 
ATOM     21  C   UNL     1      47.134   3.593  15.590  0.00  0.00    +0.000 A 
ATOM     22  C   UNL     1      47.847   4.073  16.693  0.00  0.00    +0.000 A 
BRANCH  20  23
ATOM     23  O   UNL     1      46.353   3.793  13.378  0.00  0.00    +0.000 OA
BRANCH  23  24
ATOM     24  C   UNL     1      45.373   4.514  12.731  0.00  0.00    +0.000 A 
ATOM     25  C   UNL     1      45.566   5.226  11.541  0.00  0.00    +0.000 A 
ATOM     26  C   UNL     1      44.520   5.966  10.990  0.00  0.00    +0.000 A 
ATOM     27  C   UNL     1      43.270   5.941  11.597  0.00  0.00    +0.000 A 
ATOM     28  F   UNL     1      42.267   6.655  11.069  0.00  0.00    +0.000 F 
ATOM     29  C   UNL     1      43.044   5.181  12.738  0.00  0.00    +0.000 A 
ATOM     30  C   UNL     1      44.099   4.464  13.307  0.00  0.00    +0.000 A 
ENDBRANCH  23  24
ENDBRANCH  20  23
ENDBRANCH  16  17
ENDBRANCH   3  16
TORSDOF 5
ENDMDL
MODEL 9
REMARK VINA RESULT:    -6.668      3.063      4.090
REMARK INTER + INTRA:          -9.254
REMARK INTER:                  -7.931
REMARK INTRA:                  -1.323
REMARK UNBOUND:                -0.637
REMARK  Name = 
REMARK  5 active torsions:
REMARK  status: ('A' for Active; 'I' for Inactive)
REMARK    1  A    between atoms: C_2  and  C_19
REMARK    2  A    between atoms: N_3  and  C_4
REMARK    3  A    between atoms: C_4  and  C_5
REMARK    4  A    between atoms: C_8  and  O_9
REMARK    5  A    between atoms: O_9  and  C_10
REMARK                            x       y       z     vdW  Elec       q    Type
REMARK                         _______ _______ _______ _____ _____    ______ ____
ROOT
ATOM      1  O   UNL     1      48.672   9.853  16.180  0.00  0.00    +0.000 OA
ATOM      2  C   UNL     1      49.184   8.737  16.128  0.00  0.00    +0.000 C 
ATOM      3  N   UNL     1      49.676   8.205  14.965  0.00  0.00    +0.000 N 
ATOM      4  H   UNL     1      49.912   7.221  14.937  0.00  0.00    +0.000 HD
ENDROOT
BRANCH   2   5
ATOM      5  C   UNL     1      49.351   7.914  17.334  0.00  0.00    +0.000 A 
ATOM      6  C   UNL     1      49.797   8.498  18.511  0.00  0.00    +0.000 A 
ATOM      7  S   UNL     1      49.953   7.398  19.805  0.00  0.00    +0.000 S 
ATOM      8  C   UNL     1      49.384   6.108  18.853  0.00  0.00    +0.000 A 
ATOM      9  N   UNL     1      49.233   4.862  19.374  0.00  0.00    +0.000 NA
ATOM     10  C   UNL     1      48.753   3.992  18.549  0.00  0.00    +0.000 A 
ATOM     11  N   UNL     1      48.421   4.250  17.247  0.00  0.00    +0.000 N 
ATOM     12  C   UNL     1      48.628   5.472  16.655  0.00  0.00    +0.000 A 
ATOM     13  O   UNL     1      48.451   5.631  15.450  0.00  0.00    +0.000 OA
ATOM     14  C   UNL     1      49.112   6.503  17.553  0.00  0.00    +0.000 A 
ATOM     15  H   UNL     1      48.082   3.515  16.643  0.00  0.00    +0.000 HD
ENDBRANCH   2   5
BRANCH   3  16
ATOM     16  C   UNL     1      49.515   8.842  13.686  0.00  0.00    +0.000 C 
BRANCH  16  17
ATOM     17  C   UNL     1      48.268   8.357  12.995  0.00  0.00    +0.000 A 
ATOM     18  C   UNL     1      48.261   7.110  12.360  0.00  0.00    +0.000 A 
ATOM     19  C   UNL     1      47.107   6.643  11.729  0.00  0.00    +0.000 A 
ATOM     20  C   UNL     1      45.931   7.395  11.773  0.00  0.00    +0.000 A 
ATOM     21  C   UNL     1      45.952   8.672  12.335  0.00  0.00    +0.000 A 
ATOM     22  C   UNL     1      47.117   9.155  12.938  0.00  0.00    +0.000 A 
BRANCH  20  23
ATOM     23  O   UNL     1      44.730   6.985  11.238  0.00  0.00    +0.000 OA
BRANCH  23  24
ATOM     24  C   UNL     1      44.289   5.698  11.455  0.00  0.00    +0.000 A 
ATOM     25  C   UNL     1      43.801   5.222  12.678  0.00  0.00    +0.000 A 
ATOM     26  C   UNL     1      43.424   3.884  12.808  0.00  0.00    +0.000 A 
ATOM     27  C   UNL     1      43.477   3.047  11.700  0.00  0.00    +0.000 A 
ATOM     28  F   UNL     1      43.118   1.763  11.827  0.00  0.00    +0.000 F 
ATOM     29  C   UNL     1      43.891   3.524  10.462  0.00  0.00    +0.000 A 
ATOM     30  C   UNL     1      44.297   4.854  10.339  0.00  0.00    +0.000 A 
ENDBRANCH  23  24
ENDBRANCH  20  23
ENDBRANCH  16  17
ENDBRANCH   3  16
TORSDOF 5
ENDMDL
