MODEL 1
REMARK VINA RESULT:    -8.330      0.000      0.000
REMARK INTER + INTRA:         -13.695
REMARK INTER:                 -12.225
REMARK INTRA:                  -1.470
REMARK UNBOUND:                -1.470
REMARK  Name = 
REMARK  10 active torsions:
REMARK  status: ('A' for Active; 'I' for Inactive)
REMARK    1  A    between atoms: C_1  and  O_2
REMARK    2  A    between atoms: O_2  and  C_3
REMARK    3  A    between atoms: C_10  and  C_11
REMARK    4  A    between atoms: N_13  and  C_14
REMARK    5  A    between atoms: C_14  and  C_15
REMARK    6  A    between atoms: C_18  and  C_19
REMARK    7  A    between atoms: C_19  and  N_20
REMARK    8  A    between atoms: N_20  and  C_21
REMARK    9  A    between atoms: N_20  and  C_22
REMARK   10  A    between atoms: C_22  and  C_23
REMARK                            x       y       z     vdW  Elec       q    Type
REMARK                         _______ _______ _______ _____ _____    ______ ____
ROOT
ATOM      1  C   UNL     1      47.099   8.241  13.476  0.00  0.00    +0.000 C 
ENDROOT
BRANCH   1   2
ATOM      2  C   UNL     1      46.293   7.348  12.564  0.00  0.00    +0.000 A 
ATOM      3  C   UNL     1      46.903   6.685  11.491  0.00  0.00    +0.000 A 
ATOM      4  C   UNL     1      46.165   5.825  10.670  0.00  0.00    +0.000 A 
ATOM      5  C   UNL     1      44.802   5.604  10.911  0.00  0.00    +0.000 A 
ATOM      6  C   UNL     1      44.179   6.312  11.947  0.00  0.00    +0.000 A 
ATOM      7  C   UNL     1      44.915   7.182  12.759  0.00  0.00    +0.000 A 
BRANCH   5   8
ATOM      8  C   UNL     1      44.015   4.601  10.084  0.00  0.00    +0.000 C 
BRANCH   8   9
ATOM      9  N   UNL     1      44.398   3.195  10.337  0.00  0.00    +0.000 NA
ATOM     10  C   UNL     1      43.573   2.596  11.396  0.00  0.00    +0.000 C 
BRANCH   9  11
ATOM     11  C   UNL     1      44.242   2.391   9.100  0.00  0.00    +0.000 C 
BRANCH  11  12
ATOM     12  C   UNL     1      45.508   2.238   8.274  0.00  0.00    +0.000 A 
ATOM     13  C   UNL     1      46.027   3.325   7.571  0.00  0.00    +0.000 A 
ATOM     14  C   UNL     1      47.218   3.165   6.868  0.00  0.00    +0.000 A 
ATOM     15  C   UNL     1      47.851   1.928   6.874  0.00  0.00    +0.000 A 
ATOM     16  C   UNL     1      47.257   0.893   7.575  0.00  0.00    +0.000 A 
ATOM     17  N   UNL     1      46.106   1.018   8.272  0.00  0.00    +0.000 NA
ENDBRANCH  11  12
ENDBRANCH   9  11
ENDBRANCH   8   9
ENDBRANCH   5   8
ENDBRANCH   1   2
BRANCH   1  20
ATOM     18  C   UNL     1      48.786   6.917  14.696  0.00  0.00    +0.000 C 
ATOM     19  O   UNL     1      49.573   6.959  13.751  0.00  0.00    +0.000 OA
ATOM     20  N   UNL     1      47.564   7.521  14.633  0.00  0.00    +0.000 N 
ATOM     21  H   UNL     1      46.906   7.402  15.390  0.00  0.00    +0.000 HD
BRANCH  18  29
ATOM     22  C   UNL     1      47.362   4.283  16.397  0.00  0.00    +0.000 A 
ATOM     23  N   UNL     1      47.000   3.317  17.265  0.00  0.00    +0.000 NA
ATOM     24  C   UNL     1      47.723   3.163  18.375  0.00  0.00    +0.000 A 
ATOM     25  N   UNL     1      48.794   3.867  18.735  0.00  0.00    +0.000 NA
ATOM     26  C   UNL     1      49.127   4.816  17.839  0.00  0.00    +0.000 A 
ATOM     27  S   UNL     1      50.474   5.803  18.129  0.00  0.00    +0.000 S 
ATOM     28  C   UNL     1      50.224   6.658  16.683  0.00  0.00    +0.000 A 
ATOM     29  C   UNL     1      49.126   6.223  15.952  0.00  0.00    +0.000 A 
ATOM     30  C   UNL     1      48.475   5.106  16.645  0.00  0.00    +0.000 A 
BRANCH  22  32
ATOM     31  C   UNL     1      47.168   3.600  14.172  0.00  0.00    +0.000 C 
ATOM     32  O   UNL     1      46.640   4.399  15.229  0.00  0.00    +0.000 OA
ENDBRANCH  22  32
ENDBRANCH  18  29
ENDBRANCH   1  20
TORSDOF 8
ENDMDL
MODEL 2
REMARK VINA RESULT:    -7.410      2.513      3.198
REMARK INTER + INTRA:         -12.345
REMARK INTER:                 -11.390
REMARK INTRA:                  -0.955
REMARK UNBOUND:                -1.470
REMARK  Name = 
REMARK  10 active torsions:
REMARK  status: ('A' for Active; 'I' for Inactive)
REMARK    1  A    between atoms: C_1  and  O_2
REMARK    2  A    between atoms: O_2  and  C_3
REMARK    3  A    between atoms: C_10  and  C_11
REMARK    4  A    between atoms: N_13  and  C_14
REMARK    5  A    between atoms: C_14  and  C_15
REMARK    6  A    between atoms: C_18  and  C_19
REMARK    7  A    between atoms: C_19  and  N_20
REMARK    8  A    between atoms: N_20  and  C_21
REMARK    9  A    between atoms: N_20  and  C_22
REMARK   10  A    between atoms: C_22  and  C_23
REMARK                            x       y       z     vdW  Elec       q    Type
REMARK                         _______ _______ _______ _____ _____    ______ ____
ROOT
ATOM      1  C   UNL     1      48.713   6.991  14.152  0.00  0.00    +0.000 C 
ENDROOT
BRANCH   1   2
ATOM      2  C   UNL     1      47.601   6.433  13.298  0.00  0.00    +0.000 A 
ATOM      3  C   UNL     1      47.158   7.122  12.162  0.00  0.00    +0.000 A 
ATOM      4  C   UNL     1      46.155   6.585  11.347  0.00  0.00    +0.000 A 
ATOM      5  C   UNL     1      45.581   5.342  11.646  0.00  0.00    +0.000 A 
ATOM      6  C   UNL     1      45.982   4.681  12.814  0.00  0.00    +0.000 A 
ATOM      7  C   UNL     1      46.975   5.225  13.636  0.00  0.00    +0.000 A 
BRANCH   5   8
ATOM      8  C   UNL     1      44.560   4.709  10.716  0.00  0.00    +0.000 C 
BRANCH   8   9
ATOM      9  N   UNL     1      44.575   3.230  10.741  0.00  0.00    +0.000 NA
ATOM     10  C   UNL     1      43.622   2.699  11.725  0.00  0.00    +0.000 C 
BRANCH   9  11
ATOM     11  C   UNL     1      44.226   2.693   9.403  0.00  0.00    +0.000 C 
BRANCH  11  12
ATOM     12  C   UNL     1      45.411   2.443   8.485  0.00  0.00    +0.000 A 
ATOM     13  C   UNL     1      45.948   3.484   7.728  0.00  0.00    +0.000 A 
ATOM     14  C   UNL     1      47.067   3.234   6.939  0.00  0.00    +0.000 A 
ATOM     15  C   UNL     1      47.612   1.956   6.916  0.00  0.00    +0.000 A 
ATOM     16  C   UNL     1      47.004   0.972   7.676  0.00  0.00    +0.000 A 
ATOM     17  N   UNL     1      45.922   1.185   8.457  0.00  0.00    +0.000 NA
ENDBRANCH  11  12
ENDBRANCH   9  11
ENDBRANCH   8   9
ENDBRANCH   5   8
ENDBRANCH   1   2
BRANCH   1  20
ATOM     18  C   UNL     1      49.127   6.453  16.524  0.00  0.00    +0.000 C 
ATOM     19  O   UNL     1      50.205   5.920  16.265  0.00  0.00    +0.000 OA
ATOM     20  N   UNL     1      48.349   6.998  15.545  0.00  0.00    +0.000 N 
ATOM     21  H   UNL     1      47.432   7.356  15.774  0.00  0.00    +0.000 HD
BRANCH  18  29
ATOM     22  C   UNL     1      47.787   9.022  18.385  0.00  0.00    +0.000 A 
ATOM     23  N   UNL     1      47.274   9.836  19.330  0.00  0.00    +0.000 NA
ATOM     24  C   UNL     1      47.046   9.330  20.542  0.00  0.00    +0.000 A 
ATOM     25  N   UNL     1      47.266   8.080  20.940  0.00  0.00    +0.000 NA
ATOM     26  C   UNL     1      47.772   7.297  19.968  0.00  0.00    +0.000 A 
ATOM     27  S   UNL     1      48.104   5.668  20.295  0.00  0.00    +0.000 S 
ATOM     28  C   UNL     1      48.672   5.413  18.714  0.00  0.00    +0.000 A 
ATOM     29  C   UNL     1      48.624   6.543  17.908  0.00  0.00    +0.000 A 
ATOM     30  C   UNL     1      48.070   7.672  18.662  0.00  0.00    +0.000 A 
BRANCH  22  32
ATOM     31  C   UNL     1      49.175  10.292  17.002  0.00  0.00    +0.000 C 
ATOM     32  O   UNL     1      47.969   9.540  17.122  0.00  0.00    +0.000 OA
ENDBRANCH  22  32
ENDBRANCH  18  29
ENDBRANCH   1  20
TORSDOF 8
ENDMDL
MODEL 3
REMARK VINA RESULT:    -7.377      1.675      2.238
REMARK INTER + INTRA:         -12.298
REMARK INTER:                 -11.044
REMARK INTRA:                  -1.254
REMARK UNBOUND:                -1.470
REMARK  Name = 
REMARK  10 active torsions:
REMARK  status: ('A' for Active; 'I' for Inactive)
REMARK    1  A    between atoms: C_1  and  O_2
REMARK    2  A    between atoms: O_2  and  C_3
REMARK    3  A    between atoms: C_10  and  C_11
REMARK    4  A    between atoms: N_13  and  C_14
REMARK    5  A    between atoms: C_14  and  C_15
REMARK    6  A    between atoms: C_18  and  C_19
REMARK    7  A    between atoms: C_19  and  N_20
REMARK    8  A    between atoms: N_20  and  C_21
REMARK    9  A    between atoms: N_20  and  C_22
REMARK   10  A    between atoms: C_22  and  C_23
REMARK                            x       y       z     vdW  Elec       q    Type
REMARK                         _______ _______ _______ _____ _____    ______ ____
ROOT
ATOM      1  C   UNL     1      49.278   7.179  13.844  0.00  0.00    +0.000 C 
ENDROOT
BRANCH   1   2
ATOM      2  C   UNL     1      48.025   6.610  13.225  0.00  0.00    +0.000 A 
ATOM      3  C   UNL     1      47.283   5.627  13.891  0.00  0.00    +0.000 A 
ATOM      4  C   UNL     1      46.098   5.128  13.338  0.00  0.00    +0.000 A 
ATOM      5  C   UNL     1      45.626   5.612  12.110  0.00  0.00    +0.000 A 
ATOM      6  C   UNL     1      46.398   6.552  11.416  0.00  0.00    +0.000 A 
ATOM      7  C   UNL     1      47.590   7.039  11.964  0.00  0.00    +0.000 A 
BRANCH   5   8
ATOM      8  C   UNL     1      44.293   5.145  11.547  0.00  0.00    +0.000 C 
BRANCH   8   9
ATOM      9  N   UNL     1      44.345   3.794  10.948  0.00  0.00    +0.000 NA
ATOM     10  C   UNL     1      43.336   2.904  11.540  0.00  0.00    +0.000 C 
BRANCH   9  11
ATOM     11  C   UNL     1      44.110   3.873   9.485  0.00  0.00    +0.000 C 
BRANCH  11  12
ATOM     12  C   UNL     1      45.215   3.279   8.627  0.00  0.00    +0.000 A 
ATOM     13  C   UNL     1      45.566   1.936   8.762  0.00  0.00    +0.000 A 
ATOM     14  C   UNL     1      46.545   1.410   7.923  0.00  0.00    +0.000 A 
ATOM     15  C   UNL     1      47.153   2.235   6.984  0.00  0.00    +0.000 A 
ATOM     16  C   UNL     1      46.765   3.562   6.932  0.00  0.00    +0.000 A 
ATOM     17  N   UNL     1      45.814   4.101   7.728  0.00  0.00    +0.000 NA
ENDBRANCH  11  12
ENDBRANCH   9  11
ENDBRANCH   8   9
ENDBRANCH   5   8
ENDBRANCH   1   2
BRANCH   1  20
ATOM     18  C   UNL     1      50.333   7.344  16.068  0.00  0.00    +0.000 C 
ATOM     19  O   UNL     1      51.384   7.768  15.592  0.00  0.00    +0.000 OA
ATOM     20  N   UNL     1      49.264   7.039  15.276  0.00  0.00    +0.000 N 
ATOM     21  H   UNL     1      48.442   6.616  15.684  0.00  0.00    +0.000 HD
BRANCH  18  29
ATOM     22  C   UNL     1      49.065   4.778  17.984  0.00  0.00    +0.000 A 
ATOM     23  N   UNL     1      48.606   3.960  18.952  0.00  0.00    +0.000 NA
ATOM     24  C   UNL     1      48.669   4.380  20.216  0.00  0.00    +0.000 A 
ATOM     25  N   UNL     1      49.150   5.543  20.648  0.00  0.00    +0.000 NA
ATOM     26  C   UNL     1      49.605   6.328  19.652  0.00  0.00    +0.000 A 
ATOM     27  S   UNL     1      50.265   7.845  20.021  0.00  0.00    +0.000 S 
ATOM     28  C   UNL     1      50.555   8.175  18.380  0.00  0.00    +0.000 A 
ATOM     29  C   UNL     1      50.165   7.155  17.521  0.00  0.00    +0.000 A 
ATOM     30  C   UNL     1      49.605   6.040  18.292  0.00  0.00    +0.000 A 
BRANCH  22  32
ATOM     31  C   UNL     1      48.173   3.196  16.515  0.00  0.00    +0.000 C 
ATOM     32  O   UNL     1      49.045   4.313  16.688  0.00  0.00    +0.000 OA
ENDBRANCH  22  32
ENDBRANCH  18  29
ENDBRANCH   1  20
TORSDOF 8
ENDMDL
MODEL 4
REMARK VINA RESULT:    -7.271      1.585      1.963
REMARK INTER + INTRA:         -12.142
REMARK INTER:                 -10.749
REMARK INTRA:                  -1.393
REMARK UNBOUND:                -1.470
REMARK  Name = 
REMARK  10 active torsions:
REMARK  status: ('A' for Active; 'I' for Inactive)
REMARK    1  A    between atoms: C_1  and  O_2
REMARK    2  A    between atoms: O_2  and  C_3
REMARK    3  A    between atoms: C_10  and  C_11
REMARK    4  A    between atoms: N_13  and  C_14
REMARK    5  A    between atoms: C_14  and  C_15
REMARK    6  A    between atoms: C_18  and  C_19
REMARK    7  A    between atoms: C_19  and  N_20
REMARK    8  A    between atoms: N_20  and  C_21
REMARK    9  A    between atoms: N_20  and  C_22
REMARK   10  A    between atoms: C_22  and  C_23
REMARK                            x       y       z     vdW  Elec       q    Type
REMARK                         _______ _______ _______ _____ _____    ______ ____
ROOT
ATOM      1  C   UNL     1      48.489   9.069  13.756  0.00  0.00    +0.000 C 
ENDROOT
BRANCH   1   2
ATOM      2  C   UNL     1      47.403   8.298  13.045  0.00  0.00    +0.000 A 
ATOM      3  C   UNL     1      47.669   7.043  12.482  0.00  0.00    +0.000 A 
ATOM      4  C   UNL     1      46.653   6.310  11.859  0.00  0.00    +0.000 A 
ATOM      5  C   UNL     1      45.346   6.813  11.795  0.00  0.00    +0.000 A 
ATOM      6  C   UNL     1      45.093   8.092  12.306  0.00  0.00    +0.000 A 
ATOM      7  C   UNL     1      46.113   8.831  12.916  0.00  0.00    +0.000 A 
BRANCH   5   8
ATOM      8  C   UNL     1      44.218   5.983  11.205  0.00  0.00    +0.000 C 
BRANCH   8   9
ATOM      9  N   UNL     1      44.585   4.571  10.964  0.00  0.00    +0.000 NA
ATOM     10  C   UNL     1      43.983   3.681  11.966  0.00  0.00    +0.000 C 
BRANCH   9  11
ATOM     11  C   UNL     1      44.132   4.148   9.616  0.00  0.00    +0.000 C 
BRANCH  11  12
ATOM     12  C   UNL     1      45.190   3.453   8.775  0.00  0.00    +0.000 A 
ATOM     13  C   UNL     1      45.420   2.085   8.921  0.00  0.00    +0.000 A 
ATOM     14  C   UNL     1      46.359   1.470   8.098  0.00  0.00    +0.000 A 
ATOM     15  C   UNL     1      47.048   2.231   7.162  0.00  0.00    +0.000 A 
ATOM     16  C   UNL     1      46.779   3.588   7.097  0.00  0.00    +0.000 A 
ATOM     17  N   UNL     1      45.870   4.213   7.878  0.00  0.00    +0.000 NA
ENDBRANCH  11  12
ENDBRANCH   9  11
ENDBRANCH   8   9
ENDBRANCH   5   8
ENDBRANCH   1   2
BRANCH   1  20
ATOM     18  C   UNL     1      48.741   8.550  16.155  0.00  0.00    +0.000 C 
ATOM     19  O   UNL     1      47.962   9.445  16.479  0.00  0.00    +0.000 OA
ATOM     20  N   UNL     1      49.041   8.308  14.846  0.00  0.00    +0.000 N 
ATOM     21  H   UNL     1      49.745   7.621  14.611  0.00  0.00    +0.000 HD
BRANCH  18  29
ATOM     22  C   UNL     1      48.828   5.138  16.613  0.00  0.00    +0.000 A 
ATOM     23  N   UNL     1      48.998   3.870  17.037  0.00  0.00    +0.000 NA
ATOM     24  C   UNL     1      49.699   3.667  18.154  0.00  0.00    +0.000 A 
ATOM     25  N   UNL     1      50.270   4.595  18.917  0.00  0.00    +0.000 NA
ATOM     26  C   UNL     1      50.083   5.847  18.456  0.00  0.00    +0.000 A 
ATOM     27  S   UNL     1      50.753   7.156  19.299  0.00  0.00    +0.000 S 
ATOM     28  C   UNL     1      50.110   8.267  18.187  0.00  0.00    +0.000 A 
ATOM     29  C   UNL     1      49.380   7.681  17.160  0.00  0.00    +0.000 A 
ATOM     30  C   UNL     1      49.377   6.223  17.319  0.00  0.00    +0.000 A 
BRANCH  22  32
ATOM     31  C   UNL     1      47.091   4.393  15.240  0.00  0.00    +0.000 C 
ATOM     32  O   UNL     1      48.148   5.332  15.430  0.00  0.00    +0.000 OA
ENDBRANCH  22  32
ENDBRANCH  18  29
ENDBRANCH   1  20
TORSDOF 8
ENDMDL
MODEL 5
REMARK VINA RESULT:    -6.609      2.203      2.954
REMARK INTER + INTRA:         -11.170
REMARK INTER:                  -9.772
REMARK INTRA:                  -1.398
REMARK UNBOUND:                -1.470
REMARK  Name = 
REMARK  10 active torsions:
REMARK  status: ('A' for Active; 'I' for Inactive)
REMARK    1  A    between atoms: C_1  and  O_2
REMARK    2  A    between atoms: O_2  and  C_3
REMARK    3  A    between atoms: C_10  and  C_11
REMARK    4  A    between atoms: N_13  and  C_14
REMARK    5  A    between atoms: C_14  and  C_15
REMARK    6  A    between atoms: C_18  and  C_19
REMARK    7  A    between atoms: C_19  and  N_20
REMARK    8  A    between atoms: N_20  and  C_21
REMARK    9  A    between atoms: N_20  and  C_22
REMARK   10  A    between atoms: C_22  and  C_23
REMARK                            x       y       z     vdW  Elec       q    Type
REMARK                         _______ _______ _______ _____ _____    ______ ____
ROOT
ATOM      1  C   UNL     1      49.204   9.218  12.502  0.00  0.00    +0.000 C 
ENDROOT
BRANCH   1   2
ATOM      2  C   UNL     1      47.915   8.499  12.188  0.00  0.00    +0.000 A 
ATOM      3  C   UNL     1      47.928   7.175  11.731  0.00  0.00    +0.000 A 
ATOM      4  C   UNL     1      46.732   6.494  11.479  0.00  0.00    +0.000 A 
ATOM      5  C   UNL     1      45.496   7.121  11.689  0.00  0.00    +0.000 A 
ATOM      6  C   UNL     1      45.483   8.463  12.090  0.00  0.00    +0.000 A 
ATOM      7  C   UNL     1      46.680   9.147  12.328  0.00  0.00    +0.000 A 
BRANCH   5   8
ATOM      8  C   UNL     1      44.193   6.360  11.509  0.00  0.00    +0.000 C 
BRANCH   8   9
ATOM      9  N   UNL     1      44.378   4.901  11.346  0.00  0.00    +0.000 NA
ATOM     10  C   UNL     1      43.673   4.150  12.394  0.00  0.00    +0.000 C 
BRANCH   9  11
ATOM     11  C   UNL     1      43.867   4.466  10.023  0.00  0.00    +0.000 C 
BRANCH  11  12
ATOM     12  C   UNL     1      44.879   3.737   9.155  0.00  0.00    +0.000 A 
ATOM     13  C   UNL     1      45.038   2.356   9.267  0.00  0.00    +0.000 A 
ATOM     14  C   UNL     1      45.936   1.711   8.420  0.00  0.00    +0.000 A 
ATOM     15  C   UNL     1      46.656   2.458   7.495  0.00  0.00    +0.000 A 
ATOM     16  C   UNL     1      46.458   3.827   7.465  0.00  0.00    +0.000 A 
ATOM     17  N   UNL     1      45.591   4.481   8.269  0.00  0.00    +0.000 NA
ENDBRANCH  11  12
ENDBRANCH   9  11
ENDBRANCH   8   9
ENDBRANCH   5   8
ENDBRANCH   1   2
BRANCH   1  20
ATOM     18  C   UNL     1      51.028   8.943  14.140  0.00  0.00    +0.000 C 
ATOM     19  O   UNL     1      51.223  10.156  14.199  0.00  0.00    +0.000 OA
ATOM     20  N   UNL     1      50.060   8.415  13.337  0.00  0.00    +0.000 N 
ATOM     21  H   UNL     1      49.975   7.412  13.245  0.00  0.00    +0.000 HD
BRANCH  18  29
ATOM     22  C   UNL     1      50.184   6.439  16.348  0.00  0.00    +0.000 A 
ATOM     23  N   UNL     1      50.138   5.445  17.259  0.00  0.00    +0.000 NA
ATOM     24  C   UNL     1      51.291   4.956  17.717  0.00  0.00    +0.000 A 
ATOM     25  N   UNL     1      52.516   5.340  17.369  0.00  0.00    +0.000 NA
ATOM     26  C   UNL     1      52.519   6.329  16.454  0.00  0.00    +0.000 A 
ATOM     27  S   UNL     1      53.996   6.936  15.885  0.00  0.00    +0.000 S 
ATOM     28  C   UNL     1      53.207   8.053  14.877  0.00  0.00    +0.000 A 
ATOM     29  C   UNL     1      51.821   7.994  14.944  0.00  0.00    +0.000 A 
ATOM     30  C   UNL     1      51.411   6.947  15.885  0.00  0.00    +0.000 A 
BRANCH  22  32
ATOM     31  C   UNL     1      48.196   5.864  15.263  0.00  0.00    +0.000 C 
ATOM     32  O   UNL     1      48.988   6.901  15.842  0.00  0.00    +0.000 OA
ENDBRANCH  22  32
ENDBRANCH  18  29
ENDBRANCH   1  20
TORSDOF 8
ENDMDL
MODEL 6
REMARK VINA RESULT:    -6.379      4.933      6.612
REMARK INTER + INTRA:         -10.833
REMARK INTER:                  -9.786
REMARK INTRA:                  -1.046
REMARK UNBOUND:                -1.470
REMARK  Name = 
REMARK  10 active torsions:
REMARK  status: ('A' for Active; 'I' for Inactive)
REMARK    1  A    between atoms: C_1  and  O_2
REMARK    2  A    between atoms: O_2  and  C_3
REMARK    3  A    between atoms: C_10  and  C_11
REMARK    4  A    between atoms: N_13  and  C_14
REMARK    5  A    between atoms: C_14  and  C_15
REMARK    6  A    between atoms: C_18  and  C_19
REMARK    7  A    between atoms: C_19  and  N_20
REMARK    8  A    between atoms: N_20  and  C_21
REMARK    9  A    between atoms: N_20  and  C_22
REMARK   10  A    between atoms: C_22  and  C_23
REMARK                            x       y       z     vdW  Elec       q    Type
REMARK                         _______ _______ _______ _____ _____    ______ ____
ROOT
ATOM      1  C   UNL     1      49.677   7.539  13.136  0.00  0.00    +0.000 C 
ENDROOT
BRANCH   1   2
ATOM      2  C   UNL     1      48.358   6.889  12.800  0.00  0.00    +0.000 A 
ATOM      3  C   UNL     1      47.815   5.902  13.632  0.00  0.00    +0.000 A 
ATOM      4  C   UNL     1      46.572   5.328  13.344  0.00  0.00    +0.000 A 
ATOM      5  C   UNL     1      45.840   5.738  12.221  0.00  0.00    +0.000 A 
ATOM      6  C   UNL     1      46.409   6.682  11.357  0.00  0.00    +0.000 A 
ATOM      7  C   UNL     1      47.659   7.245  11.638  0.00  0.00    +0.000 A 
BRANCH   5   8
ATOM      8  C   UNL     1      44.449   5.188  11.951  0.00  0.00    +0.000 C 
BRANCH   8   9
ATOM      9  N   UNL     1      44.454   3.856  11.309  0.00  0.00    +0.000 NA
ATOM     10  C   UNL     1      43.483   2.951  11.941  0.00  0.00    +0.000 C 
BRANCH   9  11
ATOM     11  C   UNL     1      44.120   3.981   9.869  0.00  0.00    +0.000 C 
BRANCH  11  12
ATOM     12  C   UNL     1      45.156   3.401   8.920  0.00  0.00    +0.000 A 
ATOM     13  C   UNL     1      45.415   2.031   8.913  0.00  0.00    +0.000 A 
ATOM     14  C   UNL     1      46.330   1.524   7.994  0.00  0.00    +0.000 A 
ATOM     15  C   UNL     1      46.969   2.394   7.119  0.00  0.00    +0.000 A 
ATOM     16  C   UNL     1      46.675   3.743   7.208  0.00  0.00    +0.000 A 
ATOM     17  N   UNL     1      45.787   4.265   8.084  0.00  0.00    +0.000 NA
ENDBRANCH  11  12
ENDBRANCH   9  11
ENDBRANCH   8   9
ENDBRANCH   5   8
ENDBRANCH   1   2
BRANCH   1  20
ATOM     18  C   UNL     1      51.464   8.778  11.968  0.00  0.00    +0.000 C 
ATOM     19  O   UNL     1      52.255   8.605  12.894  0.00  0.00    +0.000 OA
ATOM     20  N   UNL     1      50.192   8.285  12.017  0.00  0.00    +0.000 N 
ATOM     21  H   UNL     1      49.538   8.510  11.280  0.00  0.00    +0.000 HD
BRANCH  18  29
ATOM     22  C   UNL     1      53.890   8.280   9.576  0.00  0.00    +0.000 A 
ATOM     23  N   UNL     1      54.752   8.341   8.541  0.00  0.00    +0.000 NA
ATOM     24  C   UNL     1      54.653   9.370   7.698  0.00  0.00    +0.000 A 
ATOM     25  N   UNL     1      53.776  10.369   7.756  0.00  0.00    +0.000 NA
ATOM     26  C   UNL     1      52.929  10.268   8.799  0.00  0.00    +0.000 A 
ATOM     27  S   UNL     1      51.735  11.449   9.023  0.00  0.00    +0.000 S 
ATOM     28  C   UNL     1      51.160  10.676  10.422  0.00  0.00    +0.000 A 
ATOM     29  C   UNL     1      51.849   9.516  10.751  0.00  0.00    +0.000 A 
ATOM     30  C   UNL     1      52.906   9.266   9.764  0.00  0.00    +0.000 A 
BRANCH  22  32
ATOM     31  C   UNL     1      53.346   6.026   9.858  0.00  0.00    +0.000 C 
ATOM     32  O   UNL     1      53.967   7.186  10.410  0.00  0.00    +0.000 OA
ENDBRANCH  22  32
ENDBRANCH  18  29
ENDBRANCH   1  20
TORSDOF 8
ENDMDL
MODEL 7
REMARK VINA RESULT:    -6.336      3.093      7.790
REMARK INTER + INTRA:         -10.770
REMARK INTER:                  -9.067
REMARK INTRA:                  -1.703
REMARK UNBOUND:                -1.470
REMARK  Name = 
REMARK  10 active torsions:
REMARK  status: ('A' for Active; 'I' for Inactive)
REMARK    1  A    between atoms: C_1  and  O_2
REMARK    2  A    between atoms: O_2  and  C_3
REMARK    3  A    between atoms: C_10  and  C_11
REMARK    4  A    between atoms: N_13  and  C_14
REMARK    5  A    between atoms: C_14  and  C_15
REMARK    6  A    between atoms: C_18  and  C_19
REMARK    7  A    between atoms: C_19  and  N_20
REMARK    8  A    between atoms: N_20  and  C_21
REMARK    9  A    between atoms: N_20  and  C_22
REMARK   10  A    between atoms: C_22  and  C_23
REMARK                            x       y       z     vdW  Elec       q    Type
REMARK                         _______ _______ _______ _____ _____    ______ ____
ROOT
ATOM      1  C   UNL     1      48.499   7.991  11.768  0.00  0.00    +0.000 C 
ENDROOT
BRANCH   1   2
ATOM      2  C   UNL     1      48.602   7.964  13.273  0.00  0.00    +0.000 A 
ATOM      3  C   UNL     1      48.056   8.998  14.045  0.00  0.00    +0.000 A 
ATOM      4  C   UNL     1      48.114   8.954  15.442  0.00  0.00    +0.000 A 
ATOM      5  C   UNL     1      48.712   7.869  16.097  0.00  0.00    +0.000 A 
ATOM      6  C   UNL     1      49.310   6.865  15.325  0.00  0.00    +0.000 A 
ATOM      7  C   UNL     1      49.264   6.917  13.928  0.00  0.00    +0.000 A 
BRANCH   5   8
ATOM      8  C   UNL     1      48.698   7.767  17.614  0.00  0.00    +0.000 C 
BRANCH   8   9
ATOM      9  N   UNL     1      49.795   6.941  18.162  0.00  0.00    +0.000 NA
ATOM     10  C   UNL     1      50.664   7.723  19.052  0.00  0.00    +0.000 C 
BRANCH   9  11
ATOM     11  C   UNL     1      49.241   5.795  18.923  0.00  0.00    +0.000 C 
BRANCH  11  12
ATOM     12  C   UNL     1      49.168   4.489  18.149  0.00  0.00    +0.000 A 
ATOM     13  C   UNL     1      47.975   4.093  17.546  0.00  0.00    +0.000 A 
ATOM     14  C   UNL     1      47.956   2.918  16.800  0.00  0.00    +0.000 A 
ATOM     15  C   UNL     1      49.118   2.166  16.684  0.00  0.00    +0.000 A 
ATOM     16  C   UNL     1      50.254   2.614  17.335  0.00  0.00    +0.000 A 
ATOM     17  N   UNL     1      50.307   3.753  18.061  0.00  0.00    +0.000 NA
ENDBRANCH  11  12
ENDBRANCH   9  11
ENDBRANCH   8   9
ENDBRANCH   5   8
ENDBRANCH   1   2
BRANCH   1  20
ATOM     18  C   UNL     1      46.328   6.924  11.280  0.00  0.00    +0.000 C 
ATOM     19  O   UNL     1      45.702   7.895  11.700  0.00  0.00    +0.000 OA
ATOM     20  N   UNL     1      47.693   6.902  11.280  0.00  0.00    +0.000 N 
ATOM     21  H   UNL     1      48.181   6.061  11.005  0.00  0.00    +0.000 HD
BRANCH  18  29
ATOM     22  C   UNL     1      44.544   4.364  12.738  0.00  0.00    +0.000 A 
ATOM     23  N   UNL     1      43.844   3.253  13.043  0.00  0.00    +0.000 NA
ATOM     24  C   UNL     1      43.500   2.433  12.049  0.00  0.00    +0.000 A 
ATOM     25  N   UNL     1      43.768   2.589  10.755  0.00  0.00    +0.000 NA
ATOM     26  C   UNL     1      44.462   3.714  10.492  0.00  0.00    +0.000 A 
ATOM     27  S   UNL     1      44.882   4.081   8.892  0.00  0.00    +0.000 S 
ATOM     28  C   UNL     1      45.674   5.505   9.372  0.00  0.00    +0.000 A 
ATOM     29  C   UNL     1      45.640   5.736  10.741  0.00  0.00    +0.000 A 
ATOM     30  C   UNL     1      44.899   4.662  11.411  0.00  0.00    +0.000 A 
BRANCH  22  32
ATOM     31  C   UNL     1      46.156   5.021  14.296  0.00  0.00    +0.000 C 
ATOM     32  O   UNL     1      44.848   5.231  13.765  0.00  0.00    +0.000 OA
ENDBRANCH  22  32
ENDBRANCH  18  29
ENDBRANCH   1  20
TORSDOF 8
ENDMDL
MODEL 8
REMARK VINA RESULT:    -6.001      2.824      4.787
REMARK INTER + INTRA:         -10.277
REMARK INTER:                  -8.909
REMARK INTRA:                  -1.368
REMARK UNBOUND:                -1.470
REMARK  Name = 
REMARK  10 active torsions:
REMARK  status: ('A' for Active; 'I' for Inactive)
REMARK    1  A    between atoms: C_1  and  O_2
REMARK    2  A    between atoms: O_2  and  C_3
REMARK    3  A    between atoms: C_10  and  C_11
REMARK    4  A    between atoms: N_13  and  C_14
REMARK    5  A    between atoms: C_14  and  C_15
REMARK    6  A    between atoms: C_18  and  C_19
REMARK    7  A    between atoms: C_19  and  N_20
REMARK    8  A    between atoms: N_20  and  C_21
REMARK    9  A    between atoms: N_20  and  C_22
REMARK   10  A    between atoms: C_22  and  C_23
REMARK                            x       y       z     vdW  Elec       q    Type
REMARK                         _______ _______ _______ _____ _____    ______ ____
ROOT
ATOM      1  C   UNL     1      49.467   7.573  17.578  0.00  0.00    +0.000 C 
ENDROOT
BRANCH   1   2
ATOM      2  C   UNL     1      48.840   7.615  16.205  0.00  0.00    +0.000 A 
ATOM      3  C   UNL     1      48.422   8.829  15.647  0.00  0.00    +0.000 A 
ATOM      4  C   UNL     1      47.879   8.874  14.358  0.00  0.00    +0.000 A 
ATOM      5  C   UNL     1      47.752   7.704  13.597  0.00  0.00    +0.000 A 
ATOM      6  C   UNL     1      48.115   6.482  14.177  0.00  0.00    +0.000 A 
ATOM      7  C   UNL     1      48.645   6.437  15.471  0.00  0.00    +0.000 A 
BRANCH   5   8
ATOM      8  C   UNL     1      47.251   7.756  12.163  0.00  0.00    +0.000 C 
BRANCH   8   9
ATOM      9  N   UNL     1      45.878   7.230  11.996  0.00  0.00    +0.000 NA
ATOM     10  C   UNL     1      44.942   8.289  11.595  0.00  0.00    +0.000 C 
BRANCH   9  11
ATOM     11  C   UNL     1      45.861   6.163  10.966  0.00  0.00    +0.000 C 
BRANCH  11  12
ATOM     12  C   UNL     1      44.996   4.961  11.305  0.00  0.00    +0.000 A 
ATOM     13  C   UNL     1      44.455   4.820  12.582  0.00  0.00    +0.000 A 
ATOM     14  C   UNL     1      43.623   3.735  12.845  0.00  0.00    +0.000 A 
ATOM     15  C   UNL     1      43.364   2.816  11.835  0.00  0.00    +0.000 A 
ATOM     16  C   UNL     1      43.961   3.014  10.603  0.00  0.00    +0.000 A 
ATOM     17  N   UNL     1      44.767   4.060  10.315  0.00  0.00    +0.000 NA
ENDBRANCH  11  12
ENDBRANCH   9  11
ENDBRANCH   8   9
ENDBRANCH   5   8
ENDBRANCH   1   2
BRANCH   1  20
ATOM     18  C   UNL     1      50.821   5.999  18.910  0.00  0.00    +0.000 C 
ATOM     19  O   UNL     1      50.475   6.522  19.969  0.00  0.00    +0.000 OA
ATOM     20  N   UNL     1      50.366   6.457  17.708  0.00  0.00    +0.000 N 
ATOM     21  H   UNL     1      50.729   6.062  16.851  0.00  0.00    +0.000 HD
BRANCH  18  29
ATOM     22  C   UNL     1      50.639   2.883  17.453  0.00  0.00    +0.000 A 
ATOM     23  N   UNL     1      50.811   1.616  17.029  0.00  0.00    +0.000 NA
ATOM     24  C   UNL     1      51.922   0.975  17.394  0.00  0.00    +0.000 A 
ATOM     25  N   UNL     1      52.911   1.454  18.144  0.00  0.00    +0.000 NA
ATOM     26  C   UNL     1      52.704   2.724  18.542  0.00  0.00    +0.000 A 
ATOM     27  S   UNL     1      53.868   3.500  19.498  0.00  0.00    +0.000 S 
ATOM     28  C   UNL     1      52.936   4.918  19.574  0.00  0.00    +0.000 A 
ATOM     29  C   UNL     1      51.733   4.840  18.884  0.00  0.00    +0.000 A 
ATOM     30  C   UNL     1      51.602   3.522  18.254  0.00  0.00    +0.000 A 
BRANCH  22  32
ATOM     31  C   UNL     1      48.383   3.329  17.869  0.00  0.00    +0.000 C 
ATOM     32  O   UNL     1      49.513   3.555  17.027  0.00  0.00    +0.000 OA
ENDBRANCH  22  32
ENDBRANCH  18  29
ENDBRANCH   1  20
TORSDOF 8
ENDMDL
MODEL 9
REMARK VINA RESULT:    -5.926      3.340      8.258
REMARK INTER + INTRA:         -10.167
REMARK INTER:                  -8.438
REMARK INTRA:                  -1.730
REMARK UNBOUND:                -1.470
REMARK  Name = 
REMARK  10 active torsions:
REMARK  status: ('A' for Active; 'I' for Inactive)
REMARK    1  A    between atoms: C_1  and  O_2
REMARK    2  A    between atoms: O_2  and  C_3
REMARK    3  A    between atoms: C_10  and  C_11
REMARK    4  A    between atoms: N_13  and  C_14
REMARK    5  A    between atoms: C_14  and  C_15
REMARK    6  A    between atoms: C_18  and  C_19
REMARK    7  A    between atoms: C_19  and  N_20
REMARK    8  A    between atoms: N_20  and  C_21
REMARK    9  A    between atoms: N_20  and  C_22
REMARK   10  A    between atoms: C_22  and  C_23
REMARK                            x       y       z     vdW  Elec       q    Type
REMARK                         _______ _______ _______ _____ _____    ______ ____
ROOT
ATOM      1  C   UNL     1      48.238   8.687  14.347  0.00  0.00    +0.000 C 
ENDROOT
BRANCH   1   2
ATOM      2  C   UNL     1      48.760   8.412  15.735  0.00  0.00    +0.000 A 
ATOM      3  C   UNL     1      48.105   8.928  16.860  0.00  0.00    +0.000 A 
ATOM      4  C   UNL     1      48.565   8.639  18.150  0.00  0.00    +0.000 A 
ATOM      5  C   UNL     1      49.686   7.820  18.341  0.00  0.00    +0.000 A 
ATOM      6  C   UNL     1      50.375   7.352  17.216  0.00  0.00    +0.000 A 
ATOM      7  C   UNL     1      49.923   7.652  15.926  0.00  0.00    +0.000 A 
BRANCH   5   8
ATOM      8  C   UNL     1      50.136   7.425  19.738  0.00  0.00    +0.000 C 
BRANCH   8   9
ATOM      9  N   UNL     1      50.584   6.019  19.839  0.00  0.00    +0.000 NA
ATOM     10  C   UNL     1      51.537   5.837  20.943  0.00  0.00    +0.000 C 
BRANCH   9  11
ATOM     11  C   UNL     1      49.421   5.126  20.062  0.00  0.00    +0.000 C 
BRANCH  11  12
ATOM     12  C   UNL     1      48.887   4.447  18.812  0.00  0.00    +0.000 A 
ATOM     13  C   UNL     1      49.614   3.426  18.200  0.00  0.00    +0.000 A 
ATOM     14  C   UNL     1      49.071   2.788  17.087  0.00  0.00    +0.000 A 
ATOM     15  C   UNL     1      47.831   3.191  16.609  0.00  0.00    +0.000 A 
ATOM     16  C   UNL     1      47.186   4.229  17.258  0.00  0.00    +0.000 A 
ATOM     17  N   UNL     1      47.682   4.864  18.344  0.00  0.00    +0.000 NA
ENDBRANCH  11  12
ENDBRANCH   9  11
ENDBRANCH   8   9
ENDBRANCH   5   8
ENDBRANCH   1   2
BRANCH   1  20
ATOM     18  C   UNL     1      47.678   6.556  13.235  0.00  0.00    +0.000 C 
ATOM     19  O   UNL     1      48.851   6.352  12.929  0.00  0.00    +0.000 OA
ATOM     20  N   UNL     1      47.306   7.671  13.928  0.00  0.00    +0.000 N 
ATOM     21  H   UNL     1      46.327   7.855  14.096  0.00  0.00    +0.000 HD
BRANCH  18  29
ATOM     22  C   UNL     1      44.560   6.917  11.816  0.00  0.00    +0.000 A 
ATOM     23  N   UNL     1      43.315   6.778  11.320  0.00  0.00    +0.000 NA
ATOM     24  C   UNL     1      42.781   5.556  11.290  0.00  0.00    +0.000 A 
ATOM     25  N   UNL     1      43.351   4.426  11.700  0.00  0.00    +0.000 NA
ATOM     26  C   UNL     1      44.596   4.606  12.183  0.00  0.00    +0.000 A 
ATOM     27  S   UNL     1      45.478   3.271  12.740  0.00  0.00    +0.000 S 
ATOM     28  C   UNL     1      46.801   4.252  13.154  0.00  0.00    +0.000 A 
ATOM     29  C   UNL     1      46.610   5.601  12.882  0.00  0.00    +0.000 A 
ATOM     30  C   UNL     1      45.287   5.809  12.286  0.00  0.00    +0.000 A 
BRANCH  22  32
ATOM     31  C   UNL     1      44.314   9.129  11.105  0.00  0.00    +0.000 C 
ATOM     32  O   UNL     1      45.122   8.175  11.793  0.00  0.00    +0.000 OA
ENDBRANCH  22  32
ENDBRANCH  18  29
ENDBRANCH   1  20
TORSDOF 8
ENDMDL
