MODEL 1
REMARK VINA RESULT:    -8.319      0.000      0.000
REMARK INTER + INTRA:         -11.443
REMARK INTER:                 -11.481
REMARK INTRA:                   0.037
REMARK UNBOUND:                 0.037
REMARK  Name = 
REMARK  7 active torsions:
REMARK  status: ('A' for Active; 'I' for Inactive)
REMARK    1  A    between atoms: N_1  and  C_2
REMARK    2  A    between atoms: C_2  and  C_3
REMARK    3  A    between atoms: C_6  and  C_7
REMARK    4  A    between atoms: C_7  and  O_8
REMARK    5  A    between atoms: O_8  and  C_9
REMARK    6  A    between atoms: C_12  and  C_13
REMARK    7  A    between atoms: C_17  and  N_18
REMARK                            x       y       z     vdW  Elec       q    Type
REMARK                         _______ _______ _______ _____ _____    ______ ____
ROOT
ATOM      1  C   UNL     1      44.913   5.290  11.986  0.00  0.00    +0.000 A 
ATOM      2  N   UNL     1      44.524   6.531  11.599  0.00  0.00    +0.000 NA
ATOM      3  C   UNL     1      45.247   7.586  12.054  0.00  0.00    +0.000 A 
ATOM      4  C   UNL     1      46.349   7.475  12.893  0.00  0.00    +0.000 A 
ATOM      5  C   UNL     1      46.723   6.190  13.300  0.00  0.00    +0.000 A 
ATOM      6  C   UNL     1      45.993   5.095  12.829  0.00  0.00    +0.000 A 
ENDROOT
BRANCH   4   7
ATOM      7  C   UNL     1      47.138   8.641  13.353  0.00  0.00    +0.000 C 
ATOM      8  N   UNL     1      47.233   8.897  14.691  0.00  0.00    +0.000 N 
ATOM      9  O   UNL     1      47.689   9.376  12.543  0.00  0.00    +0.000 OA
ATOM     10  H   UNL     1      46.798   8.380  15.439  0.00  0.00    +0.000 HD
ATOM     11  H   UNL     1      47.765   9.719  14.954  0.00  0.00    +0.000 HD
ENDBRANCH   4   7
BRANCH   6  12
ATOM     12  N   UNL     1      46.390   3.767  13.208  0.00  0.00    +0.000 N 
ATOM     13  O   UNL     1      45.648   2.833  12.875  0.00  0.00    +0.000 OA
ATOM     14  O   UNL     1      47.481   3.652  13.783  0.00  0.00    +0.000 OA
ENDBRANCH   6  12
BRANCH   1  15
ATOM     15  O   UNL     1      44.177   4.215  11.547  0.00  0.00    +0.000 OA
BRANCH  15  16
ATOM     16  C   UNL     1      43.789   4.325  10.174  0.00  0.00    +0.000 C 
BRANCH  16  20
ATOM     17  C   UNL     1      46.633   2.364   7.556  0.00  0.00    +0.000 A 
ATOM     18  C   UNL     1      45.853   1.624   8.456  0.00  0.00    +0.000 A 
ATOM     19  C   UNL     1      44.946   2.264   9.305  0.00  0.00    +0.000 A 
ATOM     20  C   UNL     1      44.809   3.659   9.280  0.00  0.00    +0.000 A 
ATOM     21  C   UNL     1      45.572   4.396   8.366  0.00  0.00    +0.000 A 
ATOM     22  C   UNL     1      46.480   3.756   7.518  0.00  0.00    +0.000 A 
BRANCH  17  23
ATOM     23  C   UNL     1      47.632   1.675   6.663  0.00  0.00    +0.000 C 
BRANCH  23  24
ATOM     24  N   UNL     1      48.714   2.570   6.268  0.00  0.00    +0.000 NA
ATOM     25  H   UNL     1      48.652   2.743   5.267  0.00  0.00    +0.000 HD
ATOM     26  H   UNL     1      49.602   2.094   6.425  0.00  0.00    +0.000 HD
ENDBRANCH  23  24
ENDBRANCH  17  23
ENDBRANCH  16  20
ENDBRANCH  15  16
ENDBRANCH   1  15
TORSDOF 7
ENDMDL
MODEL 2
REMARK VINA RESULT:    -7.864      1.630      3.210
REMARK INTER + INTRA:         -10.814
REMARK INTER:                 -10.349
REMARK INTRA:                  -0.465
REMARK UNBOUND:                 0.037
REMARK  Name = 
REMARK  7 active torsions:
REMARK  status: ('A' for Active; 'I' for Inactive)
REMARK    1  A    between atoms: N_1  and  C_2
REMARK    2  A    between atoms: C_2  and  C_3
REMARK    3  A    between atoms: C_6  and  C_7
REMARK    4  A    between atoms: C_7  and  O_8
REMARK    5  A    between atoms: O_8  and  C_9
REMARK    6  A    between atoms: C_12  and  C_13
REMARK    7  A    between atoms: C_17  and  N_18
REMARK                            x       y       z     vdW  Elec       q    Type
REMARK                         _______ _______ _______ _____ _____    ______ ____
ROOT
ATOM      1  C   UNL     1      45.408   5.256  11.897  0.00  0.00    +0.000 A 
ATOM      2  N   UNL     1      45.076   4.057  12.437  0.00  0.00    +0.000 NA
ATOM      3  C   UNL     1      45.726   3.673  13.565  0.00  0.00    +0.000 A 
ATOM      4  C   UNL     1      46.712   4.425  14.192  0.00  0.00    +0.000 A 
ATOM      5  C   UNL     1      47.059   5.648  13.610  0.00  0.00    +0.000 A 
ATOM      6  C   UNL     1      46.387   6.059  12.455  0.00  0.00    +0.000 A 
ENDROOT
BRANCH   4   7
ATOM      7  C   UNL     1      47.389   3.997  15.438  0.00  0.00    +0.000 C 
ATOM      8  N   UNL     1      47.471   4.866  16.488  0.00  0.00    +0.000 N 
ATOM      9  O   UNL     1      47.882   2.878  15.523  0.00  0.00    +0.000 OA
ATOM     10  H   UNL     1      47.130   5.815  16.515  0.00  0.00    +0.000 HD
ATOM     11  H   UNL     1      47.963   4.533  17.309  0.00  0.00    +0.000 HD
ENDBRANCH   4   7
BRANCH   6  12
ATOM     12  N   UNL     1      46.706   7.332  11.868  0.00  0.00    +0.000 N 
ATOM     13  O   UNL     1      45.902   8.256  12.041  0.00  0.00    +0.000 OA
ATOM     14  O   UNL     1      47.796   7.422  11.287  0.00  0.00    +0.000 OA
ENDBRANCH   6  12
BRANCH   1  15
ATOM     15  O   UNL     1      44.769   5.646  10.744  0.00  0.00    +0.000 OA
BRANCH  15  16
ATOM     16  C   UNL     1      44.022   4.589  10.133  0.00  0.00    +0.000 C 
BRANCH  16  20
ATOM     17  C   UNL     1      46.616   2.371   7.462  0.00  0.00    +0.000 A 
ATOM     18  C   UNL     1      46.538   3.769   7.395  0.00  0.00    +0.000 A 
ATOM     19  C   UNL     1      45.691   4.477   8.251  0.00  0.00    +0.000 A 
ATOM     20  C   UNL     1      44.895   3.800   9.186  0.00  0.00    +0.000 A 
ATOM     21  C   UNL     1      44.989   2.405   9.268  0.00  0.00    +0.000 A 
ATOM     22  C   UNL     1      45.835   1.698   8.409  0.00  0.00    +0.000 A 
BRANCH  17  23
ATOM     23  C   UNL     1      47.506   1.608   6.516  0.00  0.00    +0.000 C 
BRANCH  23  24
ATOM     24  N   UNL     1      48.715   2.355   6.186  0.00  0.00    +0.000 NA
ATOM     25  H   UNL     1      48.553   2.885   5.333  0.00  0.00    +0.000 HD
ATOM     26  H   UNL     1      49.459   1.691   5.976  0.00  0.00    +0.000 HD
ENDBRANCH  23  24
ENDBRANCH  17  23
ENDBRANCH  16  20
ENDBRANCH  15  16
ENDBRANCH   1  15
TORSDOF 7
ENDMDL
MODEL 3
REMARK VINA RESULT:    -7.693      1.964      2.143
REMARK INTER + INTRA:         -10.579
REMARK INTER:                 -10.176
REMARK INTRA:                  -0.403
REMARK UNBOUND:                 0.037
REMARK  Name = 
REMARK  7 active torsions:
REMARK  status: ('A' for Active; 'I' for Inactive)
REMARK    1  A    between atoms: N_1  and  C_2
REMARK    2  A    between atoms: C_2  and  C_3
REMARK    3  A    between atoms: C_6  and  C_7
REMARK    4  A    between atoms: C_7  and  O_8
REMARK    5  A    between atoms: O_8  and  C_9
REMARK    6  A    between atoms: C_12  and  C_13
REMARK    7  A    between atoms: C_17  and  N_18
REMARK                            x       y       z     vdW  Elec       q    Type
REMARK                         _______ _______ _______ _____ _____    ______ ____
ROOT
ATOM      1  C   UNL     1      44.815   5.198  11.470  0.00  0.00    +0.000 A 
ATOM      2  N   UNL     1      45.833   5.979  11.031  0.00  0.00    +0.000 NA
ATOM      3  C   UNL     1      46.825   6.273  11.909  0.00  0.00    +0.000 A 
ATOM      4  C   UNL     1      46.858   5.833  13.226  0.00  0.00    +0.000 A 
ATOM      5  C   UNL     1      45.790   5.046  13.671  0.00  0.00    +0.000 A 
ATOM      6  C   UNL     1      44.768   4.728  12.771  0.00  0.00    +0.000 A 
ENDROOT
BRANCH   4   7
ATOM      7  C   UNL     1      47.966   6.145  14.158  0.00  0.00    +0.000 C 
ATOM      8  N   UNL     1      47.830   5.844  15.483  0.00  0.00    +0.000 N 
ATOM      9  O   UNL     1      48.990   6.679  13.748  0.00  0.00    +0.000 OA
ATOM     10  H   UNL     1      47.025   5.435  15.931  0.00  0.00    +0.000 HD
ATOM     11  H   UNL     1      48.607   6.098  16.083  0.00  0.00    +0.000 HD
ENDBRANCH   4   7
BRANCH   6  12
ATOM     12  N   UNL     1      43.685   3.888  13.203  0.00  0.00    +0.000 N 
ATOM     13  O   UNL     1      42.767   4.424  13.838  0.00  0.00    +0.000 OA
ATOM     14  O   UNL     1      43.721   2.702  12.850  0.00  0.00    +0.000 OA
ENDBRANCH   6  12
BRANCH   1  15
ATOM     15  O   UNL     1      43.795   4.909  10.595  0.00  0.00    +0.000 OA
BRANCH  15  16
ATOM     16  C   UNL     1      44.161   5.105   9.225  0.00  0.00    +0.000 C 
BRANCH  16  20
ATOM     17  C   UNL     1      46.490   1.757   7.759  0.00  0.00    +0.000 A 
ATOM     18  C   UNL     1      45.458   1.565   8.689  0.00  0.00    +0.000 A 
ATOM     19  C   UNL     1      44.719   2.650   9.166  0.00  0.00    +0.000 A 
ATOM     20  C   UNL     1      45.004   3.953   8.732  0.00  0.00    +0.000 A 
ATOM     21  C   UNL     1      46.020   4.141   7.786  0.00  0.00    +0.000 A 
ATOM     22  C   UNL     1      46.760   3.056   7.311  0.00  0.00    +0.000 A 
BRANCH  17  23
ATOM     23  C   UNL     1      47.307   0.589   7.269  0.00  0.00    +0.000 C 
BRANCH  23  24
ATOM     24  N   UNL     1      46.753  -0.685   7.715  0.00  0.00    +0.000 NA
ATOM     25  H   UNL     1      46.978  -0.817   8.699  0.00  0.00    +0.000 HD
ATOM     26  H   UNL     1      47.221  -1.436   7.208  0.00  0.00    +0.000 HD
ENDBRANCH  23  24
ENDBRANCH  17  23
ENDBRANCH  16  20
ENDBRANCH  15  16
ENDBRANCH   1  15
TORSDOF 7
ENDMDL
MODEL 4
REMARK VINA RESULT:    -6.951      2.318      6.411
REMARK INTER + INTRA:          -9.555
REMARK INTER:                  -8.993
REMARK INTRA:                  -0.563
REMARK UNBOUND:                 0.037
REMARK  Name = 
REMARK  7 active torsions:
REMARK  status: ('A' for Active; 'I' for Inactive)
REMARK    1  A    between atoms: N_1  and  C_2
REMARK    2  A    between atoms: C_2  and  C_3
REMARK    3  A    between atoms: C_6  and  C_7
REMARK    4  A    between atoms: C_7  and  O_8
REMARK    5  A    between atoms: O_8  and  C_9
REMARK    6  A    between atoms: C_12  and  C_13
REMARK    7  A    between atoms: C_17  and  N_18
REMARK                            x       y       z     vdW  Elec       q    Type
REMARK                         _______ _______ _______ _____ _____    ______ ____
ROOT
ATOM      1  C   UNL     1      45.002   4.681  10.024  0.00  0.00    +0.000 A 
ATOM      2  N   UNL     1      45.642   5.117   8.911  0.00  0.00    +0.000 NA
ATOM      3  C   UNL     1      46.125   4.179   8.055  0.00  0.00    +0.000 A 
ATOM      4  C   UNL     1      46.011   2.809   8.253  0.00  0.00    +0.000 A 
ATOM      5  C   UNL     1      45.368   2.376   9.417  0.00  0.00    +0.000 A 
ATOM      6  C   UNL     1      44.857   3.333  10.299  0.00  0.00    +0.000 A 
ENDROOT
BRANCH   4   7
ATOM      7  C   UNL     1      46.523   1.806   7.291  0.00  0.00    +0.000 C 
ATOM      8  N   UNL     1      46.730   0.522   7.710  0.00  0.00    +0.000 N 
ATOM      9  O   UNL     1      46.770   2.125   6.134  0.00  0.00    +0.000 OA
ATOM     10  H   UNL     1      46.591   0.160   8.640  0.00  0.00    +0.000 HD
ATOM     11  H   UNL     1      47.102  -0.120   7.019  0.00  0.00    +0.000 HD
ENDBRANCH   4   7
BRANCH   6  12
ATOM     12  N   UNL     1      44.158   2.902  11.480  0.00  0.00    +0.000 N 
ATOM     13  O   UNL     1      42.970   2.578  11.353  0.00  0.00    +0.000 OA
ATOM     14  O   UNL     1      44.820   2.825  12.524  0.00  0.00    +0.000 OA
ENDBRANCH   6  12
BRANCH   1  15
ATOM     15  O   UNL     1      44.526   5.621  10.907  0.00  0.00    +0.000 OA
BRANCH  15  16
ATOM     16  C   UNL     1      45.296   6.827  10.909  0.00  0.00    +0.000 C 
BRANCH  16  20
ATOM     17  C   UNL     1      48.195   6.705  14.128  0.00  0.00    +0.000 A 
ATOM     18  C   UNL     1      47.162   5.760  14.052  0.00  0.00    +0.000 A 
ATOM     19  C   UNL     1      46.224   5.812  13.018  0.00  0.00    +0.000 A 
ATOM     20  C   UNL     1      46.293   6.819  12.044  0.00  0.00    +0.000 A 
ATOM     21  C   UNL     1      47.337   7.749  12.108  0.00  0.00    +0.000 A 
ATOM     22  C   UNL     1      48.274   7.698  13.143  0.00  0.00    +0.000 A 
BRANCH  17  23
ATOM     23  C   UNL     1      49.187   6.666  15.262  0.00  0.00    +0.000 C 
BRANCH  23  24
ATOM     24  N   UNL     1      50.531   7.021  14.819  0.00  0.00    +0.000 NA
ATOM     25  H   UNL     1      51.177   6.288  15.103  0.00  0.00    +0.000 HD
ATOM     26  H   UNL     1      50.820   7.867  15.309  0.00  0.00    +0.000 HD
ENDBRANCH  23  24
ENDBRANCH  17  23
ENDBRANCH  16  20
ENDBRANCH  15  16
ENDBRANCH   1  15
TORSDOF 7
ENDMDL
MODEL 5
REMARK VINA RESULT:    -6.808      4.182      7.359
REMARK INTER + INTRA:          -9.358
REMARK INTER:                  -8.761
REMARK INTRA:                  -0.597
REMARK UNBOUND:                 0.037
REMARK  Name = 
REMARK  7 active torsions:
REMARK  status: ('A' for Active; 'I' for Inactive)
REMARK    1  A    between atoms: N_1  and  C_2
REMARK    2  A    between atoms: C_2  and  C_3
REMARK    3  A    between atoms: C_6  and  C_7
REMARK    4  A    between atoms: C_7  and  O_8
REMARK    5  A    between atoms: O_8  and  C_9
REMARK    6  A    between atoms: C_12  and  C_13
REMARK    7  A    between atoms: C_17  and  N_18
REMARK                            x       y       z     vdW  Elec       q    Type
REMARK                         _______ _______ _______ _____ _____    ______ ____
ROOT
ATOM      1  C   UNL     1      46.885   5.039  13.835  0.00  0.00    +0.000 A 
ATOM      2  N   UNL     1      46.331   3.801  13.809  0.00  0.00    +0.000 NA
ATOM      3  C   UNL     1      45.454   3.524  12.810  0.00  0.00    +0.000 A 
ATOM      4  C   UNL     1      45.083   4.430  11.824  0.00  0.00    +0.000 A 
ATOM      5  C   UNL     1      45.645   5.709  11.878  0.00  0.00    +0.000 A 
ATOM      6  C   UNL     1      46.559   6.001  12.895  0.00  0.00    +0.000 A 
ENDROOT
BRANCH   4   7
ATOM      7  C   UNL     1      44.144   4.095  10.729  0.00  0.00    +0.000 C 
ATOM      8  N   UNL     1      44.269   4.726   9.524  0.00  0.00    +0.000 N 
ATOM      9  O   UNL     1      43.256   3.269  10.904  0.00  0.00    +0.000 OA
ATOM     10  H   UNL     1      44.939   5.439   9.282  0.00  0.00    +0.000 HD
ATOM     11  H   UNL     1      43.588   4.479   8.815  0.00  0.00    +0.000 HD
ENDBRANCH   4   7
BRANCH   6  12
ATOM     12  N   UNL     1      47.174   7.300  12.939  0.00  0.00    +0.000 N 
ATOM     13  O   UNL     1      48.252   7.440  12.347  0.00  0.00    +0.000 OA
ATOM     14  O   UNL     1      46.543   8.198  13.513  0.00  0.00    +0.000 OA
ENDBRANCH   6  12
BRANCH   1  15
ATOM     15  O   UNL     1      47.759   5.337  14.852  0.00  0.00    +0.000 OA
BRANCH  15  16
ATOM     16  C   UNL     1      47.440   4.670  16.078  0.00  0.00    +0.000 C 
BRANCH  16  20
ATOM     17  C   UNL     1      50.883   2.407  17.423  0.00  0.00    +0.000 A 
ATOM     18  C   UNL     1      49.815   1.775  16.770  0.00  0.00    +0.000 A 
ATOM     19  C   UNL     1      48.703   2.509  16.350  0.00  0.00    +0.000 A 
ATOM     20  C   UNL     1      48.630   3.890  16.583  0.00  0.00    +0.000 A 
ATOM     21  C   UNL     1      49.707   4.524  17.215  0.00  0.00    +0.000 A 
ATOM     22  C   UNL     1      50.818   3.790  17.638  0.00  0.00    +0.000 A 
BRANCH  17  23
ATOM     23  C   UNL     1      52.067   1.609  17.904  0.00  0.00    +0.000 C 
BRANCH  23  24
ATOM     24  N   UNL     1      51.733   0.201  18.089  0.00  0.00    +0.000 NA
ATOM     25  H   UNL     1      50.880  -0.007  17.575  0.00  0.00    +0.000 HD
ATOM     26  H   UNL     1      51.522   0.046  19.074  0.00  0.00    +0.000 HD
ENDBRANCH  23  24
ENDBRANCH  17  23
ENDBRANCH  16  20
ENDBRANCH  15  16
ENDBRANCH   1  15
TORSDOF 7
ENDMDL
MODEL 6
REMARK VINA RESULT:    -6.736      2.063      6.665
REMARK INTER + INTRA:          -9.258
REMARK INTER:                  -9.365
REMARK INTRA:                   0.108
REMARK UNBOUND:                 0.037
REMARK  Name = 
REMARK  7 active torsions:
REMARK  status: ('A' for Active; 'I' for Inactive)
REMARK    1  A    between atoms: N_1  and  C_2
REMARK    2  A    between atoms: C_2  and  C_3
REMARK    3  A    between atoms: C_6  and  C_7
REMARK    4  A    between atoms: C_7  and  O_8
REMARK    5  A    between atoms: O_8  and  C_9
REMARK    6  A    between atoms: C_12  and  C_13
REMARK    7  A    between atoms: C_17  and  N_18
REMARK                            x       y       z     vdW  Elec       q    Type
REMARK                         _______ _______ _______ _____ _____    ______ ____
ROOT
ATOM      1  C   UNL     1      44.803   4.513   9.916  0.00  0.00    +0.000 A 
ATOM      2  N   UNL     1      45.474   4.858   8.788  0.00  0.00    +0.000 NA
ATOM      3  C   UNL     1      46.037   3.860   8.060  0.00  0.00    +0.000 A 
ATOM      4  C   UNL     1      45.976   2.515   8.402  0.00  0.00    +0.000 A 
ATOM      5  C   UNL     1      45.301   2.177   9.580  0.00  0.00    +0.000 A 
ATOM      6  C   UNL     1      44.707   3.196  10.331  0.00  0.00    +0.000 A 
ENDROOT
BRANCH   4   7
ATOM      7  C   UNL     1      46.576   1.441   7.577  0.00  0.00    +0.000 C 
ATOM      8  N   UNL     1      47.155   1.760   6.382  0.00  0.00    +0.000 N 
ATOM      9  O   UNL     1      46.543   0.276   7.955  0.00  0.00    +0.000 OA
ATOM     10  H   UNL     1      47.211   2.675   5.962  0.00  0.00    +0.000 HD
ATOM     11  H   UNL     1      47.531   0.987   5.844  0.00  0.00    +0.000 HD
ENDBRANCH   4   7
BRANCH   6  12
ATOM     12  N   UNL     1      43.977   2.860  11.522  0.00  0.00    +0.000 N 
ATOM     13  O   UNL     1      42.760   2.662  11.407  0.00  0.00    +0.000 OA
ATOM     14  O   UNL     1      44.634   2.731  12.563  0.00  0.00    +0.000 OA
ENDBRANCH   6  12
BRANCH   1  15
ATOM     15  O   UNL     1      44.246   5.517  10.671  0.00  0.00    +0.000 OA
BRANCH  15  16
ATOM     16  C   UNL     1      44.858   5.656  11.957  0.00  0.00    +0.000 C 
BRANCH  16  20
ATOM     17  C   UNL     1      47.433   9.136  12.152  0.00  0.00    +0.000 A 
ATOM     18  C   UNL     1      46.063   9.237  12.431  0.00  0.00    +0.000 A 
ATOM     19  C   UNL     1      45.236   8.113  12.355  0.00  0.00    +0.000 A 
ATOM     20  C   UNL     1      45.761   6.866  11.987  0.00  0.00    +0.000 A 
ATOM     21  C   UNL     1      47.134   6.761  11.730  0.00  0.00    +0.000 A 
ATOM     22  C   UNL     1      47.959   7.886  11.804  0.00  0.00    +0.000 A 
BRANCH  17  23
ATOM     23  C   UNL     1      48.317  10.356  12.204  0.00  0.00    +0.000 C 
BRANCH  23  24
ATOM     24  N   UNL     1      47.976  11.226  13.324  0.00  0.00    +0.000 NA
ATOM     25  H   UNL     1      47.569  12.086  12.963  0.00  0.00    +0.000 HD
ATOM     26  H   UNL     1      48.837  11.492  13.801  0.00  0.00    +0.000 HD
ENDBRANCH  23  24
ENDBRANCH  17  23
ENDBRANCH  16  20
ENDBRANCH  15  16
ENDBRANCH   1  15
TORSDOF 7
ENDMDL
MODEL 7
REMARK VINA RESULT:    -6.593      4.028      7.882
REMARK INTER + INTRA:          -9.061
REMARK INTER:                  -8.226
REMARK INTRA:                  -0.835
REMARK UNBOUND:                 0.037
REMARK  Name = 
REMARK  7 active torsions:
REMARK  status: ('A' for Active; 'I' for Inactive)
REMARK    1  A    between atoms: N_1  and  C_2
REMARK    2  A    between atoms: C_2  and  C_3
REMARK    3  A    between atoms: C_6  and  C_7
REMARK    4  A    between atoms: C_7  and  O_8
REMARK    5  A    between atoms: O_8  and  C_9
REMARK    6  A    between atoms: C_12  and  C_13
REMARK    7  A    between atoms: C_17  and  N_18
REMARK                            x       y       z     vdW  Elec       q    Type
REMARK                         _______ _______ _______ _____ _____    ______ ____
ROOT
ATOM      1  C   UNL     1      47.460   5.966  13.805  0.00  0.00    +0.000 A 
ATOM      2  N   UNL     1      47.051   6.945  12.960  0.00  0.00    +0.000 NA
ATOM      3  C   UNL     1      45.793   6.858  12.457  0.00  0.00    +0.000 A 
ATOM      4  C   UNL     1      44.907   5.827  12.746  0.00  0.00    +0.000 A 
ATOM      5  C   UNL     1      45.351   4.813  13.600  0.00  0.00    +0.000 A 
ATOM      6  C   UNL     1      46.641   4.900  14.133  0.00  0.00    +0.000 A 
ENDROOT
BRANCH   4   7
ATOM      7  C   UNL     1      43.529   5.768  12.205  0.00  0.00    +0.000 C 
ATOM      8  N   UNL     1      43.236   6.427  11.045  0.00  0.00    +0.000 N 
ATOM      9  O   UNL     1      42.656   5.145  12.798  0.00  0.00    +0.000 OA
ATOM     10  H   UNL     1      43.865   6.992  10.496  0.00  0.00    +0.000 HD
ATOM     11  H   UNL     1      42.275   6.375  10.729  0.00  0.00    +0.000 HD
ENDBRANCH   4   7
BRANCH   6  12
ATOM     12  N   UNL     1      47.097   3.885  15.044  0.00  0.00    +0.000 N 
ATOM     13  O   UNL     1      46.779   4.004  16.234  0.00  0.00    +0.000 OA
ATOM     14  O   UNL     1      47.721   2.934  14.554  0.00  0.00    +0.000 OA
ENDBRANCH   6  12
BRANCH   1  15
ATOM     15  O   UNL     1      48.738   6.034  14.305  0.00  0.00    +0.000 OA
BRANCH  15  16
ATOM     16  C   UNL     1      48.911   7.089  15.257  0.00  0.00    +0.000 C 
BRANCH  16  20
ATOM     17  C   UNL     1      49.297   5.516  19.277  0.00  0.00    +0.000 A 
ATOM     18  C   UNL     1      50.014   4.955  18.211  0.00  0.00    +0.000 A 
ATOM     19  C   UNL     1      49.877   5.460  16.916  0.00  0.00    +0.000 A 
ATOM     20  C   UNL     1      49.009   6.530  16.657  0.00  0.00    +0.000 A 
ATOM     21  C   UNL     1      48.309   7.105  17.725  0.00  0.00    +0.000 A 
ATOM     22  C   UNL     1      48.445   6.598  19.020  0.00  0.00    +0.000 A 
BRANCH  17  23
ATOM     23  C   UNL     1      49.423   4.951  20.668  0.00  0.00    +0.000 C 
BRANCH  23  24
ATOM     24  N   UNL     1      48.404   3.942  20.938  0.00  0.00    +0.000 NA
ATOM     25  H   UNL     1      48.408   3.726  21.932  0.00  0.00    +0.000 HD
ATOM     26  H   UNL     1      48.664   3.083  20.454  0.00  0.00    +0.000 HD
ENDBRANCH  23  24
ENDBRANCH  17  23
ENDBRANCH  16  20
ENDBRANCH  15  16
ENDBRANCH   1  15
TORSDOF 7
ENDMDL
MODEL 8
REMARK VINA RESULT:    -6.475      3.998      5.674
REMARK INTER + INTRA:          -8.898
REMARK INTER:                  -8.339
REMARK INTRA:                  -0.560
REMARK UNBOUND:                 0.037
REMARK  Name = 
REMARK  7 active torsions:
REMARK  status: ('A' for Active; 'I' for Inactive)
REMARK    1  A    between atoms: N_1  and  C_2
REMARK    2  A    between atoms: C_2  and  C_3
REMARK    3  A    between atoms: C_6  and  C_7
REMARK    4  A    between atoms: C_7  and  O_8
REMARK    5  A    between atoms: O_8  and  C_9
REMARK    6  A    between atoms: C_12  and  C_13
REMARK    7  A    between atoms: C_17  and  N_18
REMARK                            x       y       z     vdW  Elec       q    Type
REMARK                         _______ _______ _______ _____ _____    ______ ____
ROOT
ATOM      1  C   UNL     1      48.359   5.808  16.138  0.00  0.00    +0.000 A 
ATOM      2  N   UNL     1      48.702   7.091  16.418  0.00  0.00    +0.000 NA
ATOM      3  C   UNL     1      48.684   7.477  17.719  0.00  0.00    +0.000 A 
ATOM      4  C   UNL     1      48.329   6.648  18.776  0.00  0.00    +0.000 A 
ATOM      5  C   UNL     1      47.956   5.335  18.469  0.00  0.00    +0.000 A 
ATOM      6  C   UNL     1      47.983   4.923  17.133  0.00  0.00    +0.000 A 
ENDROOT
BRANCH   4   7
ATOM      7  C   UNL     1      48.342   7.086  20.190  0.00  0.00    +0.000 C 
ATOM      8  N   UNL     1      47.413   6.583  21.056  0.00  0.00    +0.000 N 
ATOM      9  O   UNL     1      49.171   7.901  20.579  0.00  0.00    +0.000 OA
ATOM     10  H   UNL     1      46.672   5.936  20.837  0.00  0.00    +0.000 HD
ATOM     11  H   UNL     1      47.451   6.931  22.007  0.00  0.00    +0.000 HD
ENDBRANCH   4   7
BRANCH   6  12
ATOM     12  N   UNL     1      47.640   3.565  16.807  0.00  0.00    +0.000 N 
ATOM     13  O   UNL     1      48.540   2.842  16.360  0.00  0.00    +0.000 OA
ATOM     14  O   UNL     1      46.483   3.204  17.060  0.00  0.00    +0.000 OA
ENDBRANCH   6  12
BRANCH   1  15
ATOM     15  O   UNL     1      48.355   5.411  14.823  0.00  0.00    +0.000 OA
BRANCH  15  16
ATOM     16  C   UNL     1      47.643   6.311  13.968  0.00  0.00    +0.000 C 
BRANCH  16  20
ATOM     17  C   UNL     1      44.646   4.146  11.707  0.00  0.00    +0.000 A 
ATOM     18  C   UNL     1      45.473   3.485  12.625  0.00  0.00    +0.000 A 
ATOM     19  C   UNL     1      46.445   4.187  13.343  0.00  0.00    +0.000 A 
ATOM     20  C   UNL     1      46.618   5.565  13.147  0.00  0.00    +0.000 A 
ATOM     21  C   UNL     1      45.777   6.229  12.246  0.00  0.00    +0.000 A 
ATOM     22  C   UNL     1      44.807   5.526  11.527  0.00  0.00    +0.000 A 
BRANCH  17  23
ATOM     23  C   UNL     1      43.620   3.382  10.911  0.00  0.00    +0.000 C 
BRANCH  23  24
ATOM     24  N   UNL     1      43.079   2.255  11.663  0.00  0.00    +0.000 NA
ATOM     25  H   UNL     1      43.850   1.713  12.046  0.00  0.00    +0.000 HD
ATOM     26  H   UNL     1      42.587   1.640  11.016  0.00  0.00    +0.000 HD
ENDBRANCH  23  24
ENDBRANCH  17  23
ENDBRANCH  16  20
ENDBRANCH  15  16
ENDBRANCH   1  15
TORSDOF 7
ENDMDL
MODEL 9
REMARK VINA RESULT:    -6.414      3.608      7.586
REMARK INTER + INTRA:          -8.813
REMARK INTER:                  -8.054
REMARK INTRA:                  -0.760
REMARK UNBOUND:                 0.037
REMARK  Name = 
REMARK  7 active torsions:
REMARK  status: ('A' for Active; 'I' for Inactive)
REMARK    1  A    between atoms: N_1  and  C_2
REMARK    2  A    between atoms: C_2  and  C_3
REMARK    3  A    between atoms: C_6  and  C_7
REMARK    4  A    between atoms: C_7  and  O_8
REMARK    5  A    between atoms: O_8  and  C_9
REMARK    6  A    between atoms: C_12  and  C_13
REMARK    7  A    between atoms: C_17  and  N_18
REMARK                            x       y       z     vdW  Elec       q    Type
REMARK                         _______ _______ _______ _____ _____    ______ ____
ROOT
ATOM      1  C   UNL     1      47.144   5.728  12.885  0.00  0.00    +0.000 A 
ATOM      2  N   UNL     1      46.650   6.520  11.900  0.00  0.00    +0.000 NA
ATOM      3  C   UNL     1      45.361   6.324  11.522  0.00  0.00    +0.000 A 
ATOM      4  C   UNL     1      44.523   5.361  12.073  0.00  0.00    +0.000 A 
ATOM      5  C   UNL     1      45.054   4.538  13.071  0.00  0.00    +0.000 A 
ATOM      6  C   UNL     1      46.377   4.739  13.476  0.00  0.00    +0.000 A 
ENDROOT
BRANCH   4   7
ATOM      7  C   UNL     1      43.111   5.185  11.662  0.00  0.00    +0.000 C 
ATOM      8  N   UNL     1      42.257   6.248  11.728  0.00  0.00    +0.000 N 
ATOM      9  O   UNL     1      42.709   4.093  11.278  0.00  0.00    +0.000 OA
ATOM     10  H   UNL     1      42.473   7.177  12.055  0.00  0.00    +0.000 HD
ATOM     11  H   UNL     1      41.297   6.070  11.457  0.00  0.00    +0.000 HD
ENDBRANCH   4   7
BRANCH   6  12
ATOM     12  N   UNL     1      46.924   3.927  14.529  0.00  0.00    +0.000 N 
ATOM     13  O   UNL     1      46.720   4.292  15.694  0.00  0.00    +0.000 OA
ATOM     14  O   UNL     1      47.503   2.886  14.188  0.00  0.00    +0.000 OA
ENDBRANCH   6  12
BRANCH   1  15
ATOM     15  O   UNL     1      48.453   5.905  13.262  0.00  0.00    +0.000 OA
BRANCH  15  16
ATOM     16  C   UNL     1      48.790   7.277  13.489  0.00  0.00    +0.000 C 
BRANCH  16  20
ATOM     17  C   UNL     1      48.554   8.202  17.717  0.00  0.00    +0.000 A 
ATOM     18  C   UNL     1      48.171   9.142  16.751  0.00  0.00    +0.000 A 
ATOM     19  C   UNL     1      48.260   8.842  15.390  0.00  0.00    +0.000 A 
ATOM     20  C   UNL     1      48.746   7.597  14.965  0.00  0.00    +0.000 A 
ATOM     21  C   UNL     1      49.108   6.650  15.930  0.00  0.00    +0.000 A 
ATOM     22  C   UNL     1      49.020   6.951  17.291  0.00  0.00    +0.000 A 
BRANCH  17  23
ATOM     23  C   UNL     1      48.486   8.539  19.184  0.00  0.00    +0.000 C 
BRANCH  23  24
ATOM     24  N   UNL     1      47.837   7.483  19.954  0.00  0.00    +0.000 NA
ATOM     25  H   UNL     1      46.860   7.730  20.096  0.00  0.00    +0.000 HD
ATOM     26  H   UNL     1      48.264   7.449  20.879  0.00  0.00    +0.000 HD
ENDBRANCH  23  24
ENDBRANCH  17  23
ENDBRANCH  16  20
ENDBRANCH  15  16
ENDBRANCH   1  15
TORSDOF 7
ENDMDL
