MODEL 1
REMARK VINA RESULT:    -8.573      0.000      0.000
REMARK INTER + INTRA:         -11.338
REMARK INTER:                 -10.578
REMARK INTRA:                  -0.760
REMARK UNBOUND:                -0.760
REMARK  Name = 
REMARK  4 active torsions:
REMARK  status: ('A' for Active; 'I' for Inactive)
REMARK    1  A    between atoms: C_2  and  C_4
REMARK    2  A    between atoms: N_8  and  C_9
REMARK    3  A    between atoms: C_9  and  C_10
REMARK    4  A    between atoms: C_14  and  C_15
REMARK                            x       y       z     vdW  Elec       q    Type
REMARK                         _______ _______ _______ _____ _____    ______ ____
ROOT
ATOM      1  C   UNL     1      46.404   2.232   7.572  0.00  0.00    +0.000 A 
ATOM      2  C   UNL     1      45.824   1.840   8.771  0.00  0.00    +0.000 A 
ATOM      3  C   UNL     1      44.974   2.724   9.430  0.00  0.00    +0.000 A 
ATOM      4  C   UNL     1      44.723   3.983   8.897  0.00  0.00    +0.000 A 
ATOM      5  N   UNL     1      43.823   4.868   9.437  0.00  0.00    +0.000 N 
ATOM      6  N   UNL     1      45.314   4.386   7.753  0.00  0.00    +0.000 NA
ATOM      7  C   UNL     1      46.146   3.515   7.119  0.00  0.00    +0.000 A 
ATOM      8  H   UNL     1      43.834   5.748   8.935  0.00  0.00    +0.000 HD
ENDROOT
BRANCH   1  10
ATOM      9  N   UNL     1      48.329   1.890   6.144  0.00  0.00    +0.000 N 
ATOM     10  C   UNL     1      47.256   1.328   6.778  0.00  0.00    +0.000 C 
ATOM     11  O   UNL     1      47.038   0.124   6.727  0.00  0.00    +0.000 OA
ATOM     12  H   UNL     1      48.972   1.252   5.689  0.00  0.00    +0.000 HD
ATOM     13  H   UNL     1      48.674   2.812   6.372  0.00  0.00    +0.000 HD
ENDBRANCH   1  10
BRANCH   5  14
ATOM     14  C   UNL     1      43.490   4.924  10.845  0.00  0.00    +0.000 C 
BRANCH  14  15
ATOM     15  C   UNL     1      44.638   5.262  11.774  0.00  0.00    +0.000 A 
ATOM     16  C   UNL     1      44.856   4.412  12.868  0.00  0.00    +0.000 A 
ATOM     17  C   UNL     1      45.895   4.649  13.761  0.00  0.00    +0.000 A 
ATOM     18  C   UNL     1      46.741   5.741  13.570  0.00  0.00    +0.000 A 
ATOM     19  C   UNL     1      46.576   6.612  12.477  0.00  0.00    +0.000 A 
ATOM     20  C   UNL     1      45.501   6.358  11.599  0.00  0.00    +0.000 A 
BRANCH  19  21
ATOM     21  C   UNL     1      47.514   7.734  12.246  0.00  0.00    +0.000 A 
ATOM     22  C   UNL     1      48.848   7.532  11.868  0.00  0.00    +0.000 A 
ATOM     23  C   UNL     1      49.711   8.616  11.685  0.00  0.00    +0.000 A 
ATOM     24  C   UNL     1      49.212   9.890  11.874  0.00  0.00    +0.000 A 
ATOM     25  N   UNL     1      47.937  10.146  12.232  0.00  0.00    +0.000 NA
ATOM     26  C   UNL     1      47.133   9.070  12.413  0.00  0.00    +0.000 A 
ENDBRANCH  19  21
ENDBRANCH  14  15
ENDBRANCH   5  14
TORSDOF 4
ENDMDL
MODEL 2
REMARK VINA RESULT:    -8.034      1.726      2.348
REMARK INTER + INTRA:         -10.673
REMARK INTER:                 -10.341
REMARK INTRA:                  -0.332
REMARK UNBOUND:                -0.760
REMARK  Name = 
REMARK  4 active torsions:
REMARK  status: ('A' for Active; 'I' for Inactive)
REMARK    1  A    between atoms: C_2  and  C_4
REMARK    2  A    between atoms: N_8  and  C_9
REMARK    3  A    between atoms: C_9  and  C_10
REMARK    4  A    between atoms: C_14  and  C_15
REMARK                            x       y       z     vdW  Elec       q    Type
REMARK                         _______ _______ _______ _____ _____    ______ ____
ROOT
ATOM      1  C   UNL     1      46.679   2.463   7.119  0.00  0.00    +0.000 A 
ATOM      2  C   UNL     1      46.162   3.675   7.554  0.00  0.00    +0.000 A 
ATOM      3  C   UNL     1      45.406   3.705   8.723  0.00  0.00    +0.000 A 
ATOM      4  C   UNL     1      45.166   2.534   9.432  0.00  0.00    +0.000 A 
ATOM      5  N   UNL     1      44.514   2.501  10.640  0.00  0.00    +0.000 N 
ATOM      6  N   UNL     1      45.631   1.346   8.993  0.00  0.00    +0.000 NA
ATOM      7  C   UNL     1      46.365   1.327   7.848  0.00  0.00    +0.000 A 
ATOM      8  H   UNL     1      44.389   1.547  10.958  0.00  0.00    +0.000 HD
ENDROOT
BRANCH   1  10
ATOM      9  N   UNL     1      47.396   3.319   4.971  0.00  0.00    +0.000 N 
ATOM     10  C   UNL     1      47.549   2.359   5.932  0.00  0.00    +0.000 C 
ATOM     11  O   UNL     1      48.397   1.482   5.836  0.00  0.00    +0.000 OA
ATOM     12  H   UNL     1      48.065   3.308   4.209  0.00  0.00    +0.000 HD
ATOM     13  H   UNL     1      46.896   4.181   5.137  0.00  0.00    +0.000 HD
ENDBRANCH   1  10
BRANCH   5  14
ATOM     14  C   UNL     1      43.507   3.460  11.043  0.00  0.00    +0.000 C 
BRANCH  14  15
ATOM     15  C   UNL     1      44.012   4.863  11.307  0.00  0.00    +0.000 A 
ATOM     16  C   UNL     1      43.108   5.920  11.123  0.00  0.00    +0.000 A 
ATOM     17  C   UNL     1      43.492   7.237  11.353  0.00  0.00    +0.000 A 
ATOM     18  C   UNL     1      44.789   7.518  11.780  0.00  0.00    +0.000 A 
ATOM     19  C   UNL     1      45.728   6.492  11.996  0.00  0.00    +0.000 A 
ATOM     20  C   UNL     1      45.315   5.169  11.735  0.00  0.00    +0.000 A 
BRANCH  19  21
ATOM     21  C   UNL     1      47.084   6.793  12.507  0.00  0.00    +0.000 A 
ATOM     22  C   UNL     1      47.988   7.604  11.808  0.00  0.00    +0.000 A 
ATOM     23  C   UNL     1      49.270   7.844  12.311  0.00  0.00    +0.000 A 
ATOM     24  C   UNL     1      49.618   7.270  13.518  0.00  0.00    +0.000 A 
ATOM     25  N   UNL     1      48.790   6.487  14.237  0.00  0.00    +0.000 NA
ATOM     26  C   UNL     1      47.560   6.266  13.713  0.00  0.00    +0.000 A 
ENDBRANCH  19  21
ENDBRANCH  14  15
ENDBRANCH   5  14
TORSDOF 4
ENDMDL
MODEL 3
REMARK VINA RESULT:    -7.466      3.374      7.335
REMARK INTER + INTRA:          -9.972
REMARK INTER:                  -9.442
REMARK INTRA:                  -0.530
REMARK UNBOUND:                -0.760
REMARK  Name = 
REMARK  4 active torsions:
REMARK  status: ('A' for Active; 'I' for Inactive)
REMARK    1  A    between atoms: C_2  and  C_4
REMARK    2  A    between atoms: N_8  and  C_9
REMARK    3  A    between atoms: C_9  and  C_10
REMARK    4  A    between atoms: C_14  and  C_15
REMARK                            x       y       z     vdW  Elec       q    Type
REMARK                         _______ _______ _______ _____ _____    ______ ____
ROOT
ATOM      1  C   UNL     1      47.950   5.501  15.375  0.00  0.00    +0.000 A 
ATOM      2  C   UNL     1      46.952   4.713  14.820  0.00  0.00    +0.000 A 
ATOM      3  C   UNL     1      46.320   5.146  13.657  0.00  0.00    +0.000 A 
ATOM      4  C   UNL     1      46.680   6.354  13.073  0.00  0.00    +0.000 A 
ATOM      5  N   UNL     1      46.173   6.797  11.876  0.00  0.00    +0.000 N 
ATOM      6  N   UNL     1      47.622   7.144  13.629  0.00  0.00    +0.000 NA
ATOM      7  C   UNL     1      48.231   6.714  14.768  0.00  0.00    +0.000 A 
ATOM      8  H   UNL     1      46.517   7.725  11.658  0.00  0.00    +0.000 HD
ENDROOT
BRANCH   1  10
ATOM      9  N   UNL     1      48.016   4.447  17.555  0.00  0.00    +0.000 N 
ATOM     10  C   UNL     1      48.716   5.078  16.563  0.00  0.00    +0.000 C 
ATOM     11  O   UNL     1      49.926   5.245  16.636  0.00  0.00    +0.000 OA
ATOM     12  H   UNL     1      48.561   4.064  18.319  0.00  0.00    +0.000 HD
ATOM     13  H   UNL     1      47.089   4.075  17.413  0.00  0.00    +0.000 HD
ENDBRANCH   1  10
BRANCH   5  14
ATOM     14  C   UNL     1      44.855   6.458  11.381  0.00  0.00    +0.000 C 
BRANCH  14  15
ATOM     15  C   UNL     1      44.710   5.059  10.820  0.00  0.00    +0.000 A 
ATOM     16  C   UNL     1      43.758   4.219  11.417  0.00  0.00    +0.000 A 
ATOM     17  C   UNL     1      43.559   2.923  10.954  0.00  0.00    +0.000 A 
ATOM     18  C   UNL     1      44.306   2.446   9.877  0.00  0.00    +0.000 A 
ATOM     19  C   UNL     1      45.259   3.256   9.232  0.00  0.00    +0.000 A 
ATOM     20  C   UNL     1      45.453   4.559   9.737  0.00  0.00    +0.000 A 
BRANCH  19  21
ATOM     21  C   UNL     1      46.005   2.765   8.052  0.00  0.00    +0.000 A 
ATOM     22  C   UNL     1      46.261   3.571   6.935  0.00  0.00    +0.000 A 
ATOM     23  C   UNL     1      46.946   3.063   5.828  0.00  0.00    +0.000 A 
ATOM     24  C   UNL     1      47.374   1.751   5.868  0.00  0.00    +0.000 A 
ATOM     25  N   UNL     1      47.163   0.930   6.917  0.00  0.00    +0.000 NA
ATOM     26  C   UNL     1      46.484   1.453   7.967  0.00  0.00    +0.000 A 
ENDBRANCH  19  21
ENDBRANCH  14  15
ENDBRANCH   5  14
TORSDOF 4
ENDMDL
MODEL 4
REMARK VINA RESULT:    -7.260      2.073      3.126
REMARK INTER + INTRA:          -9.718
REMARK INTER:                  -9.065
REMARK INTRA:                  -0.653
REMARK UNBOUND:                -0.760
REMARK  Name = 
REMARK  4 active torsions:
REMARK  status: ('A' for Active; 'I' for Inactive)
REMARK    1  A    between atoms: C_2  and  C_4
REMARK    2  A    between atoms: N_8  and  C_9
REMARK    3  A    between atoms: C_9  and  C_10
REMARK    4  A    between atoms: C_14  and  C_15
REMARK                            x       y       z     vdW  Elec       q    Type
REMARK                         _______ _______ _______ _____ _____    ______ ____
ROOT
ATOM      1  C   UNL     1      46.325   2.691   7.447  0.00  0.00    +0.000 A 
ATOM      2  C   UNL     1      46.379   3.992   7.926  0.00  0.00    +0.000 A 
ATOM      3  C   UNL     1      45.563   4.351   8.996  0.00  0.00    +0.000 A 
ATOM      4  C   UNL     1      44.701   3.420   9.563  0.00  0.00    +0.000 A 
ATOM      5  N   UNL     1      43.941   3.672  10.678  0.00  0.00    +0.000 N 
ATOM      6  N   UNL     1      44.614   2.164   9.076  0.00  0.00    +0.000 NA
ATOM      7  C   UNL     1      45.413   1.825   8.028  0.00  0.00    +0.000 A 
ATOM      8  H   UNL     1      43.339   2.886  10.892  0.00  0.00    +0.000 HD
ENDROOT
BRANCH   1  10
ATOM      9  N   UNL     1      47.269   2.982   5.236  0.00  0.00    +0.000 N 
ATOM     10  C   UNL     1      47.208   2.214   6.366  0.00  0.00    +0.000 C 
ATOM     11  O   UNL     1      47.887   1.204   6.495  0.00  0.00    +0.000 OA
ATOM     12  H   UNL     1      47.955   2.710   4.541  0.00  0.00    +0.000 HD
ATOM     13  H   UNL     1      46.928   3.932   5.205  0.00  0.00    +0.000 HD
ENDBRANCH   1  10
BRANCH   5  14
ATOM     14  C   UNL     1      43.454   4.985  11.045  0.00  0.00    +0.000 C 
BRANCH  14  15
ATOM     15  C   UNL     1      44.454   5.879  11.748  0.00  0.00    +0.000 A 
ATOM     16  C   UNL     1      44.448   7.242  11.415  0.00  0.00    +0.000 A 
ATOM     17  C   UNL     1      45.330   8.129  12.023  0.00  0.00    +0.000 A 
ATOM     18  C   UNL     1      46.230   7.667  12.982  0.00  0.00    +0.000 A 
ATOM     19  C   UNL     1      46.263   6.313  13.364  0.00  0.00    +0.000 A 
ATOM     20  C   UNL     1      45.370   5.434  12.716  0.00  0.00    +0.000 A 
BRANCH  19  21
ATOM     21  C   UNL     1      47.179   5.841  14.426  0.00  0.00    +0.000 A 
ATOM     22  C   UNL     1      46.951   4.661  15.146  0.00  0.00    +0.000 A 
ATOM     23  C   UNL     1      47.826   4.262  16.161  0.00  0.00    +0.000 A 
ATOM     24  C   UNL     1      48.926   5.053  16.427  0.00  0.00    +0.000 A 
ATOM     25  N   UNL     1      49.200   6.195  15.763  0.00  0.00    +0.000 NA
ATOM     26  C   UNL     1      48.323   6.557  14.796  0.00  0.00    +0.000 A 
ENDBRANCH  19  21
ENDBRANCH  14  15
ENDBRANCH   5  14
TORSDOF 4
ENDMDL
MODEL 5
REMARK VINA RESULT:    -7.089      3.068      7.155
REMARK INTER + INTRA:          -9.507
REMARK INTER:                  -8.792
REMARK INTRA:                  -0.715
REMARK UNBOUND:                -0.760
REMARK  Name = 
REMARK  4 active torsions:
REMARK  status: ('A' for Active; 'I' for Inactive)
REMARK    1  A    between atoms: C_2  and  C_4
REMARK    2  A    between atoms: N_8  and  C_9
REMARK    3  A    between atoms: C_9  and  C_10
REMARK    4  A    between atoms: C_14  and  C_15
REMARK                            x       y       z     vdW  Elec       q    Type
REMARK                         _______ _______ _______ _____ _____    ______ ____
ROOT
ATOM      1  C   UNL     1      49.398   7.767  13.169  0.00  0.00    +0.000 A 
ATOM      2  C   UNL     1      48.764   8.127  11.988  0.00  0.00    +0.000 A 
ATOM      3  C   UNL     1      47.408   7.844  11.837  0.00  0.00    +0.000 A 
ATOM      4  C   UNL     1      46.711   7.200  12.852  0.00  0.00    +0.000 A 
ATOM      5  N   UNL     1      45.356   6.977  12.815  0.00  0.00    +0.000 N 
ATOM      6  N   UNL     1      47.330   6.811  13.986  0.00  0.00    +0.000 NA
ATOM      7  C   UNL     1      48.655   7.090  14.121  0.00  0.00    +0.000 A 
ATOM      8  H   UNL     1      45.055   6.441  13.620  0.00  0.00    +0.000 HD
ENDROOT
BRANCH   1  10
ATOM      9  N   UNL     1      51.486   8.757  12.445  0.00  0.00    +0.000 N 
ATOM     10  C   UNL     1      50.811   8.097  13.434  0.00  0.00    +0.000 C 
ATOM     11  O   UNL     1      51.339   7.832  14.506  0.00  0.00    +0.000 OA
ATOM     12  H   UNL     1      52.422   9.076  12.670  0.00  0.00    +0.000 HD
ATOM     13  H   UNL     1      51.016   9.206  11.672  0.00  0.00    +0.000 HD
ENDBRANCH   1  10
BRANCH   5  14
ATOM     14  C   UNL     1      44.599   6.799  11.594  0.00  0.00    +0.000 C 
BRANCH  14  15
ATOM     15  C   UNL     1      44.466   5.369  11.111  0.00  0.00    +0.000 A 
ATOM     16  C   UNL     1      43.531   4.551  11.763  0.00  0.00    +0.000 A 
ATOM     17  C   UNL     1      43.344   3.230  11.373  0.00  0.00    +0.000 A 
ATOM     18  C   UNL     1      44.086   2.704  10.316  0.00  0.00    +0.000 A 
ATOM     19  C   UNL     1      45.023   3.489   9.618  0.00  0.00    +0.000 A 
ATOM     20  C   UNL     1      45.205   4.820  10.049  0.00  0.00    +0.000 A 
BRANCH  19  21
ATOM     21  C   UNL     1      45.764   2.944   8.459  0.00  0.00    +0.000 A 
ATOM     22  C   UNL     1      46.101   3.726   7.346  0.00  0.00    +0.000 A 
ATOM     23  C   UNL     1      46.778   3.167   6.258  0.00  0.00    +0.000 A 
ATOM     24  C   UNL     1      47.116   1.829   6.314  0.00  0.00    +0.000 A 
ATOM     25  N   UNL     1      46.824   1.030   7.359  0.00  0.00    +0.000 NA
ATOM     26  C   UNL     1      46.155   1.602   8.390  0.00  0.00    +0.000 A 
ENDBRANCH  19  21
ENDBRANCH  14  15
ENDBRANCH   5  14
TORSDOF 4
ENDMDL
MODEL 6
REMARK VINA RESULT:    -6.736      4.539      7.963
REMARK INTER + INTRA:          -9.071
REMARK INTER:                  -8.586
REMARK INTRA:                  -0.485
REMARK UNBOUND:                -0.760
REMARK  Name = 
REMARK  4 active torsions:
REMARK  status: ('A' for Active; 'I' for Inactive)
REMARK    1  A    between atoms: C_2  and  C_4
REMARK    2  A    between atoms: N_8  and  C_9
REMARK    3  A    between atoms: C_9  and  C_10
REMARK    4  A    between atoms: C_14  and  C_15
REMARK                            x       y       z     vdW  Elec       q    Type
REMARK                         _______ _______ _______ _____ _____    ______ ____
ROOT
ATOM      1  C   UNL     1      49.284   4.542  17.354  0.00  0.00    +0.000 A 
ATOM      2  C   UNL     1      48.312   3.580  17.116  0.00  0.00    +0.000 A 
ATOM      3  C   UNL     1      47.413   3.774  16.070  0.00  0.00    +0.000 A 
ATOM      4  C   UNL     1      47.485   4.921  15.288  0.00  0.00    +0.000 A 
ATOM      5  N   UNL     1      46.699   5.134  14.183  0.00  0.00    +0.000 N 
ATOM      6  N   UNL     1      48.402   5.879  15.539  0.00  0.00    +0.000 NA
ATOM      7  C   UNL     1      49.273   5.681  16.566  0.00  0.00    +0.000 A 
ATOM      8  H   UNL     1      46.865   6.053  13.792  0.00  0.00    +0.000 HD
ENDROOT
BRANCH   1  10
ATOM      9  N   UNL     1      51.041   3.218  18.363  0.00  0.00    +0.000 N 
ATOM     10  C   UNL     1      50.316   4.376  18.394  0.00  0.00    +0.000 C 
ATOM     11  O   UNL     1      50.541   5.254  19.217  0.00  0.00    +0.000 OA
ATOM     12  H   UNL     1      51.819   3.153  19.011  0.00  0.00    +0.000 HD
ATOM     13  H   UNL     1      51.053   2.605  17.561  0.00  0.00    +0.000 HD
ENDBRANCH   1  10
BRANCH   5  14
ATOM     14  C   UNL     1      45.368   4.586  14.019  0.00  0.00    +0.000 C 
BRANCH  14  15
ATOM     15  C   UNL     1      44.814   4.629  12.610  0.00  0.00    +0.000 A 
ATOM     16  C   UNL     1      43.656   5.390  12.394  0.00  0.00    +0.000 A 
ATOM     17  C   UNL     1      43.091   5.486  11.127  0.00  0.00    +0.000 A 
ATOM     18  C   UNL     1      43.682   4.826  10.050  0.00  0.00    +0.000 A 
ATOM     19  C   UNL     1      44.854   4.065  10.211  0.00  0.00    +0.000 A 
ATOM     20  C   UNL     1      45.393   3.970  11.512  0.00  0.00    +0.000 A 
BRANCH  19  21
ATOM     21  C   UNL     1      45.510   3.417   9.054  0.00  0.00    +0.000 A 
ATOM     22  C   UNL     1      46.006   4.147   7.965  0.00  0.00    +0.000 A 
ATOM     23  C   UNL     1      46.595   3.496   6.877  0.00  0.00    +0.000 A 
ATOM     24  C   UNL     1      46.687   2.118   6.908  0.00  0.00    +0.000 A 
ATOM     25  N   UNL     1      46.234   1.365   7.930  0.00  0.00    +0.000 NA
ATOM     26  C   UNL     1      45.656   2.028   8.962  0.00  0.00    +0.000 A 
ENDBRANCH  19  21
ENDBRANCH  14  15
ENDBRANCH   5  14
TORSDOF 4
ENDMDL
MODEL 7
REMARK VINA RESULT:    -6.395      5.906      8.483
REMARK INTER + INTRA:          -8.651
REMARK INTER:                  -7.954
REMARK INTRA:                  -0.698
REMARK UNBOUND:                -0.760
REMARK  Name = 
REMARK  4 active torsions:
REMARK  status: ('A' for Active; 'I' for Inactive)
REMARK    1  A    between atoms: C_2  and  C_4
REMARK    2  A    between atoms: N_8  and  C_9
REMARK    3  A    between atoms: C_9  and  C_10
REMARK    4  A    between atoms: C_14  and  C_15
REMARK                            x       y       z     vdW  Elec       q    Type
REMARK                         _______ _______ _______ _____ _____    ______ ____
ROOT
ATOM      1  C   UNL     1      51.905   2.506  17.844  0.00  0.00    +0.000 A 
ATOM      2  C   UNL     1      51.247   3.649  18.275  0.00  0.00    +0.000 A 
ATOM      3  C   UNL     1      49.914   3.836  17.915  0.00  0.00    +0.000 A 
ATOM      4  C   UNL     1      49.263   2.895  17.127  0.00  0.00    +0.000 A 
ATOM      5  N   UNL     1      47.928   2.962  16.815  0.00  0.00    +0.000 N 
ATOM      6  N   UNL     1      49.909   1.801  16.671  0.00  0.00    +0.000 NA
ATOM      7  C   UNL     1      51.212   1.630  17.026  0.00  0.00    +0.000 A 
ATOM      8  H   UNL     1      47.665   2.215  16.182  0.00  0.00    +0.000 HD
ENDROOT
BRANCH   1  10
ATOM      9  N   UNL     1      53.624   2.437  19.548  0.00  0.00    +0.000 N 
ATOM     10  C   UNL     1      53.292   2.200  18.243  0.00  0.00    +0.000 C 
ATOM     11  O   UNL     1      54.092   1.716  17.453  0.00  0.00    +0.000 OA
ATOM     12  H   UNL     1      54.543   2.128  19.845  0.00  0.00    +0.000 HD
ATOM     13  H   UNL     1      52.931   2.589  20.267  0.00  0.00    +0.000 HD
ENDBRANCH   1  10
BRANCH   5  14
ATOM     14  C   UNL     1      47.184   4.200  16.707  0.00  0.00    +0.000 C 
BRANCH  14  15
ATOM     15  C   UNL     1      47.207   4.857  15.342  0.00  0.00    +0.000 A 
ATOM     16  C   UNL     1      48.108   5.915  15.150  0.00  0.00    +0.000 A 
ATOM     17  C   UNL     1      48.195   6.565  13.924  0.00  0.00    +0.000 A 
ATOM     18  C   UNL     1      47.385   6.161  12.863  0.00  0.00    +0.000 A 
ATOM     19  C   UNL     1      46.479   5.093  13.000  0.00  0.00    +0.000 A 
ATOM     20  C   UNL     1      46.398   4.466  14.261  0.00  0.00    +0.000 A 
BRANCH  19  21
ATOM     21  C   UNL     1      45.666   4.630  11.853  0.00  0.00    +0.000 A 
ATOM     22  C   UNL     1      45.636   5.310  10.628  0.00  0.00    +0.000 A 
ATOM     23  C   UNL     1      44.835   4.856   9.577  0.00  0.00    +0.000 A 
ATOM     24  C   UNL     1      44.083   3.714   9.772  0.00  0.00    +0.000 A 
ATOM     25  N   UNL     1      44.076   3.015  10.925  0.00  0.00    +0.000 NA
ATOM     26  C   UNL     1      44.854   3.492  11.927  0.00  0.00    +0.000 A 
ENDBRANCH  19  21
ENDBRANCH  14  15
ENDBRANCH   5  14
TORSDOF 4
ENDMDL
MODEL 8
REMARK VINA RESULT:    -6.267      2.993      4.596
REMARK INTER + INTRA:          -8.493
REMARK INTER:                  -7.873
REMARK INTRA:                  -0.620
REMARK UNBOUND:                -0.760
REMARK  Name = 
REMARK  4 active torsions:
REMARK  status: ('A' for Active; 'I' for Inactive)
REMARK    1  A    between atoms: C_2  and  C_4
REMARK    2  A    between atoms: N_8  and  C_9
REMARK    3  A    between atoms: C_9  and  C_10
REMARK    4  A    between atoms: C_14  and  C_15
REMARK                            x       y       z     vdW  Elec       q    Type
REMARK                         _______ _______ _______ _____ _____    ______ ____
ROOT
ATOM      1  C   UNL     1      44.616   4.371   9.812  0.00  0.00    +0.000 A 
ATOM      2  C   UNL     1      45.703   5.232   9.850  0.00  0.00    +0.000 A 
ATOM      3  C   UNL     1      45.695   6.291  10.755  0.00  0.00    +0.000 A 
ATOM      4  C   UNL     1      44.606   6.483  11.597  0.00  0.00    +0.000 A 
ATOM      5  N   UNL     1      44.568   7.442  12.579  0.00  0.00    +0.000 N 
ATOM      6  N   UNL     1      43.528   5.673  11.538  0.00  0.00    +0.000 NA
ATOM      7  C   UNL     1      43.545   4.645  10.647  0.00  0.00    +0.000 A 
ATOM      8  H   UNL     1      43.665   7.456  13.038  0.00  0.00    +0.000 HD
ENDROOT
BRANCH   1  10
ATOM      9  N   UNL     1      44.512   1.966   9.548  0.00  0.00    +0.000 N 
ATOM     10  C   UNL     1      44.581   3.186   8.934  0.00  0.00    +0.000 C 
ATOM     11  O   UNL     1      44.570   3.295   7.715  0.00  0.00    +0.000 OA
ATOM     12  H   UNL     1      44.381   1.163   8.944  0.00  0.00    +0.000 HD
ATOM     13  H   UNL     1      44.266   1.860  10.521  0.00  0.00    +0.000 HD
ENDBRANCH   1  10
BRANCH   5  14
ATOM     14  C   UNL     1      45.284   8.699  12.510  0.00  0.00    +0.000 C 
BRANCH  14  15
ATOM     15  C   UNL     1      46.775   8.615  12.763  0.00  0.00    +0.000 A 
ATOM     16  C   UNL     1      47.614   9.385  11.944  0.00  0.00    +0.000 A 
ATOM     17  C   UNL     1      48.993   9.369  12.118  0.00  0.00    +0.000 A 
ATOM     18  C   UNL     1      49.558   8.585  13.124  0.00  0.00    +0.000 A 
ATOM     19  C   UNL     1      48.759   7.810  13.984  0.00  0.00    +0.000 A 
ATOM     20  C   UNL     1      47.364   7.830  13.770  0.00  0.00    +0.000 A 
BRANCH  19  21
ATOM     21  C   UNL     1      49.360   7.028  15.087  0.00  0.00    +0.000 A 
ATOM     22  C   UNL     1      50.671   7.242  15.533  0.00  0.00    +0.000 A 
ATOM     23  C   UNL     1      51.212   6.464  16.561  0.00  0.00    +0.000 A 
ATOM     24  C   UNL     1      50.419   5.490  17.133  0.00  0.00    +0.000 A 
ATOM     25  N   UNL     1      49.150   5.243  16.751  0.00  0.00    +0.000 NA
ATOM     26  C   UNL     1      48.663   6.007  15.743  0.00  0.00    +0.000 A 
ENDBRANCH  19  21
ENDBRANCH  14  15
ENDBRANCH   5  14
TORSDOF 4
ENDMDL
MODEL 9
REMARK VINA RESULT:    -6.169      2.908      5.290
REMARK INTER + INTRA:          -8.372
REMARK INTER:                  -7.690
REMARK INTRA:                  -0.682
REMARK UNBOUND:                -0.760
REMARK  Name = 
REMARK  4 active torsions:
REMARK  status: ('A' for Active; 'I' for Inactive)
REMARK    1  A    between atoms: C_2  and  C_4
REMARK    2  A    between atoms: N_8  and  C_9
REMARK    3  A    between atoms: C_9  and  C_10
REMARK    4  A    between atoms: C_14  and  C_15
REMARK                            x       y       z     vdW  Elec       q    Type
REMARK                         _______ _______ _______ _____ _____    ______ ____
ROOT
ATOM      1  C   UNL     1      44.728   4.088  11.591  0.00  0.00    +0.000 A 
ATOM      2  C   UNL     1      44.917   5.292  10.927  0.00  0.00    +0.000 A 
ATOM      3  C   UNL     1      45.582   6.326  11.583  0.00  0.00    +0.000 A 
ATOM      4  C   UNL     1      46.036   6.152  12.885  0.00  0.00    +0.000 A 
ATOM      5  N   UNL     1      46.783   7.087  13.557  0.00  0.00    +0.000 N 
ATOM      6  N   UNL     1      45.821   4.997  13.550  0.00  0.00    +0.000 NA
ATOM      7  C   UNL     1      45.167   3.995  12.901  0.00  0.00    +0.000 A 
ATOM      8  H   UNL     1      46.959   6.793  14.511  0.00  0.00    +0.000 HD
ENDROOT
BRANCH   1  10
ATOM      9  N   UNL     1      44.784   2.352   9.903  0.00  0.00    +0.000 N 
ATOM     10  C   UNL     1      44.099   2.923  10.940  0.00  0.00    +0.000 C 
ATOM     11  O   UNL     1      43.037   2.464  11.340  0.00  0.00    +0.000 OA
ATOM     12  H   UNL     1      44.402   1.491   9.529  0.00  0.00    +0.000 HD
ATOM     13  H   UNL     1      45.759   2.545   9.723  0.00  0.00    +0.000 HD
ENDBRANCH   1  10
BRANCH   5  14
ATOM     14  C   UNL     1      46.697   8.513  13.321  0.00  0.00    +0.000 C 
BRANCH  14  15
ATOM     15  C   UNL     1      47.814   9.104  12.487  0.00  0.00    +0.000 A 
ATOM     16  C   UNL     1      47.608  10.380  11.940  0.00  0.00    +0.000 A 
ATOM     17  C   UNL     1      48.589  10.994  11.170  0.00  0.00    +0.000 A 
ATOM     18  C   UNL     1      49.801  10.344  10.940  0.00  0.00    +0.000 A 
ATOM     19  C   UNL     1      50.065   9.073  11.482  0.00  0.00    +0.000 A 
ATOM     20  C   UNL     1      49.042   8.466  12.242  0.00  0.00    +0.000 A 
BRANCH  19  21
ATOM     21  C   UNL     1      51.375   8.415  11.285  0.00  0.00    +0.000 A 
ATOM     22  C   UNL     1      51.601   7.477  10.269  0.00  0.00    +0.000 A 
ATOM     23  C   UNL     1      52.846   6.857  10.131  0.00  0.00    +0.000 A 
ATOM     24  C   UNL     1      53.851   7.202  11.014  0.00  0.00    +0.000 A 
ATOM     25  N   UNL     1      53.695   8.101  12.006  0.00  0.00    +0.000 NA
ATOM     26  C   UNL     1      52.471   8.672  12.117  0.00  0.00    +0.000 A 
ENDBRANCH  19  21
ENDBRANCH  14  15
ENDBRANCH   5  14
TORSDOF 4
ENDMDL
