MODEL 1
REMARK VINA RESULT:    -9.515      0.000      0.000
REMARK INTER + INTRA:         -13.139
REMARK INTER:                 -12.296
REMARK INTRA:                  -0.843
REMARK UNBOUND:                -0.843
REMARK  Name = 
REMARK  7 active torsions:
REMARK  status: ('A' for Active; 'I' for Inactive)
REMARK    1  A    between atoms: C_1  and  C_2
REMARK    2  A    between atoms: C_2  and  C_3
REMARK    3  A    between atoms: C_9  and  C_10
REMARK    4  A    between atoms: C_10  and  C_13
REMARK    5  A    between atoms: C_13  and  N_14
REMARK    6  A    between atoms: N_14  and  C_15
REMARK    7  A    between atoms: C_18  and  C_19
REMARK                            x       y       z     vdW  Elec       q    Type
REMARK                         _______ _______ _______ _____ _____    ______ ____
ROOT
ATOM      1  C   UNL     1      45.016   5.955  11.609  0.00  0.00    +0.000 C 
ATOM      2  F   UNL     1      44.543   7.132  12.123  0.00  0.00    +0.000 F 
ATOM      3  F   UNL     1      45.807   6.321  10.557  0.00  0.00    +0.000 F 
ENDROOT
BRANCH   1  12
ATOM      4  C   UNL     1      50.930   3.552  17.625  0.00  0.00    +0.000 C 
ATOM      5  C   UNL     1      49.675   4.320  18.017  0.00  0.00    +0.000 C 
ATOM      6  C   UNL     1      49.493   4.445  19.520  0.00  0.00    +0.000 C 
ATOM      7  C   UNL     1      48.419   3.947  17.231  0.00  0.00    +0.000 C 
ATOM      8  C   UNL     1      48.631   5.304  16.595  0.00  0.00    +0.000 C 
ATOM      9  N   UNL     1      47.922   5.909  15.619  0.00  0.00    +0.000 N 
ATOM     10  C   UNL     1      47.263   5.203  14.600  0.00  0.00    +0.000 A 
ATOM     11  C   UNL     1      46.520   5.896  13.644  0.00  0.00    +0.000 A 
ATOM     12  C   UNL     1      45.817   5.189  12.650  0.00  0.00    +0.000 A 
ATOM     13  C   UNL     1      45.891   3.790  12.676  0.00  0.00    +0.000 A 
ATOM     14  C   UNL     1      46.640   3.180  13.653  0.00  0.00    +0.000 A 
ATOM     15  N   UNL     1      47.307   3.857  14.600  0.00  0.00    +0.000 NA
ATOM     16  N   UNL     1      49.620   5.640  17.342  0.00  0.00    +0.000 NA
ATOM     17  H   UNL     1      48.341   6.774  15.303  0.00  0.00    +0.000 HD
ENDBRANCH   1  12
BRANCH   1  18
ATOM     18  C   UNL     1      43.799   5.157  11.062  0.00  0.00    +0.000 C 
BRANCH  18  19
ATOM     19  N   UNL     1      43.770   4.981   9.605  0.00  0.00    +0.000 N 
ATOM     20  H   UNL     1      42.868   5.165   9.170  0.00  0.00    +0.000 HD
BRANCH  19  21
ATOM     21  C   UNL     1      44.503   3.954   9.011  0.00  0.00    +0.000 A 
ATOM     22  C   UNL     1      44.433   2.612   9.403  0.00  0.00    +0.000 A 
ATOM     23  C   UNL     1      45.277   1.643   8.840  0.00  0.00    +0.000 A 
ATOM     24  C   UNL     1      46.229   2.007   7.885  0.00  0.00    +0.000 A 
ATOM     25  C   UNL     1      46.335   3.346   7.507  0.00  0.00    +0.000 A 
ATOM     26  C   UNL     1      45.482   4.304   8.069  0.00  0.00    +0.000 A 
BRANCH  24  27
ATOM     27  C   UNL     1      47.127   0.954   7.345  0.00  0.00    +0.000 C 
ATOM     28  N   UNL     1      46.865  -0.340   7.698  0.00  0.00    +0.000 N 
ATOM     29  O   UNL     1      48.086   1.230   6.638  0.00  0.00    +0.000 OA
ATOM     30  H   UNL     1      46.203  -0.598   8.415  0.00  0.00    +0.000 HD
ATOM     31  H   UNL     1      47.533  -1.037   7.394  0.00  0.00    +0.000 HD
ENDBRANCH  24  27
ENDBRANCH  19  21
ENDBRANCH  18  19
ENDBRANCH   1  18
TORSDOF 5
ENDMDL
MODEL 2
REMARK VINA RESULT:    -8.878      2.862      3.925
REMARK INTER + INTRA:         -12.317
REMARK INTER:                 -11.650
REMARK INTRA:                  -0.667
REMARK UNBOUND:                -0.843
REMARK  Name = 
REMARK  7 active torsions:
REMARK  status: ('A' for Active; 'I' for Inactive)
REMARK    1  A    between atoms: C_1  and  C_2
REMARK    2  A    between atoms: C_2  and  C_3
REMARK    3  A    between atoms: C_9  and  C_10
REMARK    4  A    between atoms: C_10  and  C_13
REMARK    5  A    between atoms: C_13  and  N_14
REMARK    6  A    between atoms: N_14  and  C_15
REMARK    7  A    between atoms: C_18  and  C_19
REMARK                            x       y       z     vdW  Elec       q    Type
REMARK                         _______ _______ _______ _____ _____    ______ ____
ROOT
ATOM      1  C   UNL     1      43.442   4.654  12.637  0.00  0.00    +0.000 C 
ATOM      2  F   UNL     1      43.111   3.715  13.575  0.00  0.00    +0.000 F 
ATOM      3  F   UNL     1      42.645   5.728  12.913  0.00  0.00    +0.000 F 
ENDROOT
BRANCH   1  12
ATOM      4  C   UNL     1      51.345   8.251  11.391  0.00  0.00    +0.000 C 
ATOM      5  C   UNL     1      50.308   8.919  12.284  0.00  0.00    +0.000 C 
ATOM      6  C   UNL     1      50.850  10.120  13.039  0.00  0.00    +0.000 C 
ATOM      7  C   UNL     1      49.450   7.957  13.105  0.00  0.00    +0.000 C 
ATOM      8  C   UNL     1      48.369   8.372  12.130  0.00  0.00    +0.000 C 
ATOM      9  N   UNL     1      47.090   7.952  12.045  0.00  0.00    +0.000 N 
ATOM     10  C   UNL     1      46.682   6.659  12.409  0.00  0.00    +0.000 A 
ATOM     11  C   UNL     1      45.334   6.308  12.326  0.00  0.00    +0.000 A 
ATOM     12  C   UNL     1      44.913   5.029  12.737  0.00  0.00    +0.000 A 
ATOM     13  C   UNL     1      45.889   4.153  13.230  0.00  0.00    +0.000 A 
ATOM     14  C   UNL     1      47.196   4.574  13.285  0.00  0.00    +0.000 A 
ATOM     15  N   UNL     1      47.594   5.795  12.895  0.00  0.00    +0.000 NA
ATOM     16  N   UNL     1      49.079   9.253  11.522  0.00  0.00    +0.000 NA
ATOM     17  H   UNL     1      46.608   8.312  11.232  0.00  0.00    +0.000 HD
ENDBRANCH   1  12
BRANCH   1  18
ATOM     18  C   UNL     1      43.048   4.088  11.243  0.00  0.00    +0.000 C 
BRANCH  18  19
ATOM     19  N   UNL     1      43.743   4.694  10.102  0.00  0.00    +0.000 N 
ATOM     20  H   UNL     1      43.171   5.317   9.534  0.00  0.00    +0.000 HD
BRANCH  19  21
ATOM     21  C   UNL     1      44.686   3.957   9.386  0.00  0.00    +0.000 A 
ATOM     22  C   UNL     1      45.582   4.515   8.465  0.00  0.00    +0.000 A 
ATOM     23  C   UNL     1      46.432   3.707   7.694  0.00  0.00    +0.000 A 
ATOM     24  C   UNL     1      46.383   2.316   7.816  0.00  0.00    +0.000 A 
ATOM     25  C   UNL     1      45.473   1.743   8.705  0.00  0.00    +0.000 A 
ATOM     26  C   UNL     1      44.635   2.559   9.475  0.00  0.00    +0.000 A 
BRANCH  24  27
ATOM     27  C   UNL     1      47.274   1.500   6.952  0.00  0.00    +0.000 C 
ATOM     28  N   UNL     1      48.379   2.111   6.430  0.00  0.00    +0.000 N 
ATOM     29  O   UNL     1      47.017   0.334   6.687  0.00  0.00    +0.000 OA
ATOM     30  H   UNL     1      48.536   3.107   6.472  0.00  0.00    +0.000 HD
ATOM     31  H   UNL     1      48.931   1.570   5.776  0.00  0.00    +0.000 HD
ENDBRANCH  24  27
ENDBRANCH  19  21
ENDBRANCH  18  19
ENDBRANCH   1  18
TORSDOF 5
ENDMDL
MODEL 3
REMARK VINA RESULT:    -8.877      3.387      4.187
REMARK INTER + INTRA:         -12.315
REMARK INTER:                 -11.538
REMARK INTRA:                  -0.777
REMARK UNBOUND:                -0.843
REMARK  Name = 
REMARK  7 active torsions:
REMARK  status: ('A' for Active; 'I' for Inactive)
REMARK    1  A    between atoms: C_1  and  C_2
REMARK    2  A    between atoms: C_2  and  C_3
REMARK    3  A    between atoms: C_9  and  C_10
REMARK    4  A    between atoms: C_10  and  C_13
REMARK    5  A    between atoms: C_13  and  N_14
REMARK    6  A    between atoms: N_14  and  C_15
REMARK    7  A    between atoms: C_18  and  C_19
REMARK                            x       y       z     vdW  Elec       q    Type
REMARK                         _______ _______ _______ _____ _____    ______ ____
ROOT
ATOM      1  C   UNL     1      44.245   4.292  12.509  0.00  0.00    +0.000 C 
ATOM      2  F   UNL     1      45.066   3.197  12.530  0.00  0.00    +0.000 F 
ATOM      3  F   UNL     1      43.552   4.237  13.685  0.00  0.00    +0.000 F 
ENDROOT
BRANCH   1  12
ATOM      4  C   UNL     1      50.440  10.450  13.320  0.00  0.00    +0.000 C 
ATOM      5  C   UNL     1      50.510   9.402  12.217  0.00  0.00    +0.000 C 
ATOM      6  C   UNL     1      51.624   9.658  11.217  0.00  0.00    +0.000 C 
ATOM      7  C   UNL     1      49.162   9.009  11.615  0.00  0.00    +0.000 C 
ATOM      8  C   UNL     1      49.401   7.722  12.374  0.00  0.00    +0.000 C 
ATOM      9  N   UNL     1      48.610   6.633  12.477  0.00  0.00    +0.000 N 
ATOM     10  C   UNL     1      47.208   6.697  12.432  0.00  0.00    +0.000 A 
ATOM     11  C   UNL     1      46.458   5.523  12.511  0.00  0.00    +0.000 A 
ATOM     12  C   UNL     1      45.054   5.577  12.415  0.00  0.00    +0.000 A 
ATOM     13  C   UNL     1      44.466   6.835  12.232  0.00  0.00    +0.000 A 
ATOM     14  C   UNL     1      45.273   7.945  12.159  0.00  0.00    +0.000 A 
ATOM     15  N   UNL     1      46.611   7.889  12.248  0.00  0.00    +0.000 NA
ATOM     16  N   UNL     1      50.578   8.031  12.781  0.00  0.00    +0.000 NA
ATOM     17  H   UNL     1      48.961   5.950  13.136  0.00  0.00    +0.000 HD
ENDBRANCH   1  12
BRANCH   1  18
ATOM     18  C   UNL     1      43.245   4.109  11.333  0.00  0.00    +0.000 C 
BRANCH  18  19
ATOM     19  N   UNL     1      43.697   4.637  10.040  0.00  0.00    +0.000 N 
ATOM     20  H   UNL     1      43.001   5.181   9.533  0.00  0.00    +0.000 HD
BRANCH  19  21
ATOM     21  C   UNL     1      44.541   3.877   9.231  0.00  0.00    +0.000 A 
ATOM     22  C   UNL     1      44.651   2.483   9.304  0.00  0.00    +0.000 A 
ATOM     23  C   UNL     1      45.598   1.785   8.540  0.00  0.00    +0.000 A 
ATOM     24  C   UNL     1      46.475   2.478   7.701  0.00  0.00    +0.000 A 
ATOM     25  C   UNL     1      46.402   3.870   7.642  0.00  0.00    +0.000 A 
ATOM     26  C   UNL     1      45.447   4.556   8.403  0.00  0.00    +0.000 A 
BRANCH  24  27
ATOM     27  C   UNL     1      47.488   1.701   6.940  0.00  0.00    +0.000 C 
ATOM     28  N   UNL     1      48.548   2.388   6.419  0.00  0.00    +0.000 N 
ATOM     29  O   UNL     1      47.366   0.498   6.756  0.00  0.00    +0.000 OA
ATOM     30  H   UNL     1      48.598   3.395   6.391  0.00  0.00    +0.000 HD
ATOM     31  H   UNL     1      49.184   1.863   5.833  0.00  0.00    +0.000 HD
ENDBRANCH  24  27
ENDBRANCH  19  21
ENDBRANCH  18  19
ENDBRANCH   1  18
TORSDOF 5
ENDMDL
MODEL 4
REMARK VINA RESULT:    -6.757      3.819      6.445
REMARK INTER + INTRA:          -9.576
REMARK INTER:                  -9.148
REMARK INTRA:                  -0.428
REMARK UNBOUND:                -0.843
REMARK  Name = 
REMARK  7 active torsions:
REMARK  status: ('A' for Active; 'I' for Inactive)
REMARK    1  A    between atoms: C_1  and  C_2
REMARK    2  A    between atoms: C_2  and  C_3
REMARK    3  A    between atoms: C_9  and  C_10
REMARK    4  A    between atoms: C_10  and  C_13
REMARK    5  A    between atoms: C_13  and  N_14
REMARK    6  A    between atoms: N_14  and  C_15
REMARK    7  A    between atoms: C_18  and  C_19
REMARK                            x       y       z     vdW  Elec       q    Type
REMARK                         _______ _______ _______ _____ _____    ______ ____
ROOT
ATOM      1  C   UNL     1      47.915   4.086  17.184  0.00  0.00    +0.000 C 
ATOM      2  F   UNL     1      47.165   2.945  17.273  0.00  0.00    +0.000 F 
ATOM      3  F   UNL     1      47.422   4.912  18.154  0.00  0.00    +0.000 F 
ENDROOT
BRANCH   1  12
ATOM      4  C   UNL     1      55.511   0.357  19.497  0.00  0.00    +0.000 C 
ATOM      5  C   UNL     1      54.862   0.055  18.153  0.00  0.00    +0.000 C 
ATOM      6  C   UNL     1      55.741  -0.779  17.237  0.00  0.00    +0.000 C 
ATOM      7  C   UNL     1      54.164   1.243  17.493  0.00  0.00    +0.000 C 
ATOM      8  C   UNL     1      52.909   0.489  17.876  0.00  0.00    +0.000 C 
ATOM      9  N   UNL     1      51.617   0.836  17.698  0.00  0.00    +0.000 N 
ATOM     10  C   UNL     1      51.175   2.169  17.698  0.00  0.00    +0.000 A 
ATOM     11  C   UNL     1      49.827   2.452  17.474  0.00  0.00    +0.000 A 
ATOM     12  C   UNL     1      49.388   3.788  17.422  0.00  0.00    +0.000 A 
ATOM     13  C   UNL     1      50.349   4.793  17.593  0.00  0.00    +0.000 A 
ATOM     14  C   UNL     1      51.659   4.434  17.805  0.00  0.00    +0.000 A 
ATOM     15  N   UNL     1      52.074   3.159  17.851  0.00  0.00    +0.000 NA
ATOM     16  N   UNL     1      53.518  -0.547  18.329  0.00  0.00    +0.000 NA
ATOM     17  H   UNL     1      50.971   0.198  18.144  0.00  0.00    +0.000 HD
ENDBRANCH   1  12
BRANCH   1  18
ATOM     18  C   UNL     1      47.636   4.727  15.796  0.00  0.00    +0.000 C 
BRANCH  18  19
ATOM     19  N   UNL     1      47.169   3.798  14.760  0.00  0.00    +0.000 N 
ATOM     20  H   UNL     1      47.851   3.095  14.477  0.00  0.00    +0.000 HD
BRANCH  19  21
ATOM     21  C   UNL     1      46.343   4.252  13.733  0.00  0.00    +0.000 A 
ATOM     22  C   UNL     1      45.883   5.570  13.623  0.00  0.00    +0.000 A 
ATOM     23  C   UNL     1      44.965   5.941  12.628  0.00  0.00    +0.000 A 
ATOM     24  C   UNL     1      44.471   4.987  11.736  0.00  0.00    +0.000 A 
ATOM     25  C   UNL     1      44.894   3.662  11.853  0.00  0.00    +0.000 A 
ATOM     26  C   UNL     1      45.816   3.305  12.844  0.00  0.00    +0.000 A 
BRANCH  24  27
ATOM     27  C   UNL     1      43.471   5.417  10.723  0.00  0.00    +0.000 C 
ATOM     28  N   UNL     1      42.637   6.446  11.060  0.00  0.00    +0.000 N 
ATOM     29  O   UNL     1      43.371   4.854   9.642  0.00  0.00    +0.000 OA
ATOM     30  H   UNL     1      42.561   6.818  11.994  0.00  0.00    +0.000 HD
ATOM     31  H   UNL     1      41.906   6.672  10.396  0.00  0.00    +0.000 HD
ENDBRANCH  24  27
ENDBRANCH  19  21
ENDBRANCH  18  19
ENDBRANCH   1  18
TORSDOF 5
ENDMDL
MODEL 5
REMARK VINA RESULT:    -6.531      3.630      8.240
REMARK INTER + INTRA:          -9.283
REMARK INTER:                  -8.400
REMARK INTRA:                  -0.882
REMARK UNBOUND:                -0.843
REMARK  Name = 
REMARK  7 active torsions:
REMARK  status: ('A' for Active; 'I' for Inactive)
REMARK    1  A    between atoms: C_1  and  C_2
REMARK    2  A    between atoms: C_2  and  C_3
REMARK    3  A    between atoms: C_9  and  C_10
REMARK    4  A    between atoms: C_10  and  C_13
REMARK    5  A    between atoms: C_13  and  N_14
REMARK    6  A    between atoms: N_14  and  C_15
REMARK    7  A    between atoms: C_18  and  C_19
REMARK                            x       y       z     vdW  Elec       q    Type
REMARK                         _______ _______ _______ _____ _____    ______ ____
ROOT
ATOM      1  C   UNL     1      50.133   8.516  15.385  0.00  0.00    +0.000 C 
ATOM      2  F   UNL     1      51.370   7.935  15.457  0.00  0.00    +0.000 F 
ATOM      3  F   UNL     1      50.375   9.834  15.124  0.00  0.00    +0.000 F 
ENDROOT
BRANCH   1  12
ATOM      4  C   UNL     1      45.096   3.139  10.624  0.00  0.00    +0.000 C 
ATOM      5  C   UNL     1      44.482   4.151  11.582  0.00  0.00    +0.000 C 
ATOM      6  C   UNL     1      42.969   4.237  11.475  0.00  0.00    +0.000 C 
ATOM      7  C   UNL     1      45.213   5.490  11.661  0.00  0.00    +0.000 C 
ATOM      8  C   UNL     1      45.633   4.977  13.022  0.00  0.00    +0.000 C 
ATOM      9  N   UNL     1      46.435   5.554  13.941  0.00  0.00    +0.000 N 
ATOM     10  C   UNL     1      47.499   6.406  13.603  0.00  0.00    +0.000 A 
ATOM     11  C   UNL     1      48.265   6.992  14.611  0.00  0.00    +0.000 A 
ATOM     12  C   UNL     1      49.300   7.887  14.279  0.00  0.00    +0.000 A 
ATOM     13  C   UNL     1      49.510   8.157  12.920  0.00  0.00    +0.000 A 
ATOM     14  C   UNL     1      48.711   7.543  11.986  0.00  0.00    +0.000 A 
ATOM     15  N   UNL     1      47.723   6.693  12.307  0.00  0.00    +0.000 NA
ATOM     16  N   UNL     1      44.925   3.907  12.977  0.00  0.00    +0.000 NA
ATOM     17  H   UNL     1      46.638   4.947  14.725  0.00  0.00    +0.000 HD
ENDBRANCH   1  12
BRANCH   1  18
ATOM     18  C   UNL     1      49.475   8.400  16.789  0.00  0.00    +0.000 C 
BRANCH  18  19
ATOM     19  N   UNL     1      50.254   7.655  17.785  0.00  0.00    +0.000 N 
ATOM     20  H   UNL     1      51.108   8.118  18.093  0.00  0.00    +0.000 HD
BRANCH  19  21
ATOM     21  C   UNL     1      50.342   6.266  17.709  0.00  0.00    +0.000 A 
ATOM     22  C   UNL     1      51.548   5.560  17.625  0.00  0.00    +0.000 A 
ATOM     23  C   UNL     1      51.568   4.169  17.439  0.00  0.00    +0.000 A 
ATOM     24  C   UNL     1      50.372   3.460  17.309  0.00  0.00    +0.000 A 
ATOM     25  C   UNL     1      49.161   4.152  17.356  0.00  0.00    +0.000 A 
ATOM     26  C   UNL     1      49.153   5.539  17.551  0.00  0.00    +0.000 A 
BRANCH  24  27
ATOM     27  C   UNL     1      50.442   1.994  17.074  0.00  0.00    +0.000 C 
ATOM     28  N   UNL     1      51.239   1.260  17.907  0.00  0.00    +0.000 N 
ATOM     29  O   UNL     1      49.837   1.463  16.153  0.00  0.00    +0.000 OA
ATOM     30  H   UNL     1      51.890   1.671  18.559  0.00  0.00    +0.000 HD
ATOM     31  H   UNL     1      51.345   0.278  17.684  0.00  0.00    +0.000 HD
ENDBRANCH  24  27
ENDBRANCH  19  21
ENDBRANCH  18  19
ENDBRANCH   1  18
TORSDOF 5
ENDMDL
