MODEL 1
REMARK VINA RESULT:    -7.683      0.000      0.000
REMARK INTER + INTRA:          -9.959
REMARK INTER:                  -9.479
REMARK INTRA:                  -0.479
REMARK UNBOUND:                -0.479
REMARK  Name = 
REMARK  4 active torsions:
REMARK  status: ('A' for Active; 'I' for Inactive)
REMARK    1  A    between atoms: C_2  and  C_4
REMARK    2  A    between atoms: C_7  and  O_8
REMARK    3  A    between atoms: O_8  and  C_9
REMARK    4  A    between atoms: C_9  and  C_10
REMARK                            x       y       z     vdW  Elec       q    Type
REMARK                         _______ _______ _______ _____ _____    ______ ____
ROOT
ATOM      1  C   UNL     1      46.304   4.737  13.217  0.00  0.00    +0.000 A 
ATOM      2  C   UNL     1      46.246   5.636  12.160  0.00  0.00    +0.000 A 
ATOM      3  C   UNL     1      45.495   5.286  11.039  0.00  0.00    +0.000 A 
ATOM      4  C   UNL     1      44.842   4.055  11.004  0.00  0.00    +0.000 A 
ATOM      5  C   UNL     1      44.927   3.245  12.132  0.00  0.00    +0.000 A 
ATOM      6  N   UNL     1      45.652   3.542  13.233  0.00  0.00    +0.000 NA
ENDROOT
BRANCH   1   8
ATOM      7  N   UNL     1      46.777   4.361  15.560  0.00  0.00    +0.000 N 
ATOM      8  C   UNL     1      47.129   5.045  14.429  0.00  0.00    +0.000 C 
ATOM      9  O   UNL     1      48.056   5.844  14.412  0.00  0.00    +0.000 OA
ATOM     10  H   UNL     1      47.291   4.509  16.416  0.00  0.00    +0.000 HD
ATOM     11  H   UNL     1      46.013   3.695  15.521  0.00  0.00    +0.000 HD
ENDBRANCH   1   8
BRANCH   4  12
ATOM     12  O   UNL     1      44.175   3.751   9.851  0.00  0.00    +0.000 OA
BRANCH  12  13
ATOM     13  C   UNL     1      44.396   2.421   9.370  0.00  0.00    +0.000 C 
BRANCH  13  14
ATOM     14  C   UNL     1      45.502   2.429   8.349  0.00  0.00    +0.000 A 
ATOM     15  C   UNL     1      46.288   1.285   8.153  0.00  0.00    +0.000 A 
ATOM     16  C   UNL     1      47.299   1.276   7.193  0.00  0.00    +0.000 A 
ATOM     17  C   UNL     1      47.534   2.411   6.421  0.00  0.00    +0.000 A 
ATOM     18  C   UNL     1      46.761   3.556   6.609  0.00  0.00    +0.000 A 
ATOM     19  C   UNL     1      45.749   3.567   7.570  0.00  0.00    +0.000 A 
ENDBRANCH  13  14
ENDBRANCH  12  13
ENDBRANCH   4  12
TORSDOF 4
ENDMDL
MODEL 2
REMARK VINA RESULT:    -7.412      2.807      5.887
REMARK INTER + INTRA:          -9.625
REMARK INTER:                  -9.093
REMARK INTRA:                  -0.532
REMARK UNBOUND:                -0.479
REMARK  Name = 
REMARK  4 active torsions:
REMARK  status: ('A' for Active; 'I' for Inactive)
REMARK    1  A    between atoms: C_2  and  C_4
REMARK    2  A    between atoms: C_7  and  O_8
REMARK    3  A    between atoms: O_8  and  C_9
REMARK    4  A    between atoms: C_9  and  C_10
REMARK                            x       y       z     vdW  Elec       q    Type
REMARK                         _______ _______ _______ _____ _____    ______ ____
ROOT
ATOM      1  C   UNL     1      46.385   2.265   7.860  0.00  0.00    +0.000 A 
ATOM      2  C   UNL     1      46.348   3.639   7.658  0.00  0.00    +0.000 A 
ATOM      3  C   UNL     1      45.435   4.388   8.400  0.00  0.00    +0.000 A 
ATOM      4  C   UNL     1      44.588   3.746   9.302  0.00  0.00    +0.000 A 
ATOM      5  C   UNL     1      44.735   2.371   9.461  0.00  0.00    +0.000 A 
ATOM      6  N   UNL     1      45.598   1.608   8.756  0.00  0.00    +0.000 NA
ENDROOT
BRANCH   1   8
ATOM      7  N   UNL     1      48.415   2.054   6.561  0.00  0.00    +0.000 N 
ATOM      8  C   UNL     1      47.317   1.408   7.060  0.00  0.00    +0.000 C 
ATOM      9  O   UNL     1      47.121   0.215   6.870  0.00  0.00    +0.000 OA
ATOM     10  H   UNL     1      49.094   1.541   6.017  0.00  0.00    +0.000 HD
ATOM     11  H   UNL     1      48.546   3.040   6.761  0.00  0.00    +0.000 HD
ENDBRANCH   1   8
BRANCH   4  12
ATOM     12  O   UNL     1      43.678   4.533   9.950  0.00  0.00    +0.000 OA
BRANCH  12  13
ATOM     13  C   UNL     1      43.591   4.303  11.360  0.00  0.00    +0.000 C 
BRANCH  13  14
ATOM     14  C   UNL     1      44.797   4.887  12.044  0.00  0.00    +0.000 A 
ATOM     15  C   UNL     1      45.577   4.093  12.897  0.00  0.00    +0.000 A 
ATOM     16  C   UNL     1      46.709   4.621  13.516  0.00  0.00    +0.000 A 
ATOM     17  C   UNL     1      47.071   5.946  13.291  0.00  0.00    +0.000 A 
ATOM     18  C   UNL     1      46.301   6.747  12.448  0.00  0.00    +0.000 A 
ATOM     19  C   UNL     1      45.167   6.221  11.827  0.00  0.00    +0.000 A 
ENDBRANCH  13  14
ENDBRANCH  12  13
ENDBRANCH   4  12
TORSDOF 4
ENDMDL
MODEL 3
REMARK VINA RESULT:    -7.142      1.200      1.893
REMARK INTER + INTRA:          -9.292
REMARK INTER:                  -8.824
REMARK INTRA:                  -0.467
REMARK UNBOUND:                -0.479
REMARK  Name = 
REMARK  4 active torsions:
REMARK  status: ('A' for Active; 'I' for Inactive)
REMARK    1  A    between atoms: C_2  and  C_4
REMARK    2  A    between atoms: C_7  and  O_8
REMARK    3  A    between atoms: O_8  and  C_9
REMARK    4  A    between atoms: C_9  and  C_10
REMARK                            x       y       z     vdW  Elec       q    Type
REMARK                         _______ _______ _______ _____ _____    ______ ____
ROOT
ATOM      1  C   UNL     1      46.565   4.988  13.222  0.00  0.00    +0.000 A 
ATOM      2  C   UNL     1      46.178   3.654  13.182  0.00  0.00    +0.000 A 
ATOM      3  C   UNL     1      45.382   3.233  12.117  0.00  0.00    +0.000 A 
ATOM      4  C   UNL     1      44.992   4.151  11.142  0.00  0.00    +0.000 A 
ATOM      5  C   UNL     1      45.469   5.453  11.252  0.00  0.00    +0.000 A 
ATOM      6  N   UNL     1      46.232   5.904  12.272  0.00  0.00    +0.000 NA
ENDROOT
BRANCH   1   8
ATOM      7  N   UNL     1      47.613   6.852  14.354  0.00  0.00    +0.000 N 
ATOM      8  C   UNL     1      47.385   5.503  14.365  0.00  0.00    +0.000 C 
ATOM      9  O   UNL     1      47.816   4.776  15.251  0.00  0.00    +0.000 OA
ATOM     10  H   UNL     1      48.152   7.275  15.096  0.00  0.00    +0.000 HD
ATOM     11  H   UNL     1      47.219   7.417  13.609  0.00  0.00    +0.000 HD
ENDBRANCH   1   8
BRANCH   4  12
ATOM     12  O   UNL     1      44.163   3.683  10.162  0.00  0.00    +0.000 OA
BRANCH  12  13
ATOM     13  C   UNL     1      44.490   4.134   8.844  0.00  0.00    +0.000 C 
BRANCH  13  14
ATOM     14  C   UNL     1      45.497   3.203   8.224  0.00  0.00    +0.000 A 
ATOM     15  C   UNL     1      46.450   3.695   7.321  0.00  0.00    +0.000 A 
ATOM     16  C   UNL     1      47.400   2.843   6.761  0.00  0.00    +0.000 A 
ATOM     17  C   UNL     1      47.407   1.492   7.097  0.00  0.00    +0.000 A 
ATOM     18  C   UNL     1      46.462   0.989   7.991  0.00  0.00    +0.000 A 
ATOM     19  C   UNL     1      45.509   1.841   8.552  0.00  0.00    +0.000 A 
ENDBRANCH  13  14
ENDBRANCH  12  13
ENDBRANCH   4  12
TORSDOF 4
ENDMDL
MODEL 4
REMARK VINA RESULT:    -6.908      1.908      2.058
REMARK INTER + INTRA:          -9.003
REMARK INTER:                  -8.630
REMARK INTRA:                  -0.373
REMARK UNBOUND:                -0.479
REMARK  Name = 
REMARK  4 active torsions:
REMARK  status: ('A' for Active; 'I' for Inactive)
REMARK    1  A    between atoms: C_2  and  C_4
REMARK    2  A    between atoms: C_7  and  O_8
REMARK    3  A    between atoms: O_8  and  C_9
REMARK    4  A    between atoms: C_9  and  C_10
REMARK                            x       y       z     vdW  Elec       q    Type
REMARK                         _______ _______ _______ _____ _____    ______ ____
ROOT
ATOM      1  C   UNL     1      45.593   6.839  12.348  0.00  0.00    +0.000 A 
ATOM      2  C   UNL     1      45.868   6.698  10.994  0.00  0.00    +0.000 A 
ATOM      3  C   UNL     1      45.615   5.464  10.397  0.00  0.00    +0.000 A 
ATOM      4  C   UNL     1      45.111   4.416  11.167  0.00  0.00    +0.000 A 
ATOM      5  C   UNL     1      44.828   4.674  12.505  0.00  0.00    +0.000 A 
ATOM      6  N   UNL     1      45.068   5.851  13.124  0.00  0.00    +0.000 NA
ENDROOT
BRANCH   1   8
ATOM      7  N   UNL     1      46.938   8.093  13.921  0.00  0.00    +0.000 N 
ATOM      8  C   UNL     1      45.884   8.131  13.049  0.00  0.00    +0.000 C 
ATOM      9  O   UNL     1      45.236   9.151  12.854  0.00  0.00    +0.000 OA
ATOM     10  H   UNL     1      47.201   8.927  14.426  0.00  0.00    +0.000 HD
ATOM     11  H   UNL     1      47.458   7.230  14.036  0.00  0.00    +0.000 HD
ENDBRANCH   1   8
BRANCH   4  12
ATOM     12  O   UNL     1      44.944   3.218  10.531  0.00  0.00    +0.000 OA
BRANCH  12  13
ATOM     13  C   UNL     1      44.510   3.322   9.172  0.00  0.00    +0.000 C 
BRANCH  13  14
ATOM     14  C   UNL     1      45.564   2.755   8.259  0.00  0.00    +0.000 A 
ATOM     15  C   UNL     1      45.977   1.422   8.401  0.00  0.00    +0.000 A 
ATOM     16  C   UNL     1      46.935   0.883   7.545  0.00  0.00    +0.000 A 
ATOM     17  C   UNL     1      47.491   1.670   6.539  0.00  0.00    +0.000 A 
ATOM     18  C   UNL     1      47.091   2.998   6.390  0.00  0.00    +0.000 A 
ATOM     19  C   UNL     1      46.132   3.540   7.247  0.00  0.00    +0.000 A 
ENDBRANCH  13  14
ENDBRANCH  12  13
ENDBRANCH   4  12
TORSDOF 4
ENDMDL
MODEL 5
REMARK VINA RESULT:    -6.191      1.779      2.481
REMARK INTER + INTRA:          -8.118
REMARK INTER:                  -7.662
REMARK INTRA:                  -0.456
REMARK UNBOUND:                -0.479
REMARK  Name = 
REMARK  4 active torsions:
REMARK  status: ('A' for Active; 'I' for Inactive)
REMARK    1  A    between atoms: C_2  and  C_4
REMARK    2  A    between atoms: C_7  and  O_8
REMARK    3  A    between atoms: O_8  and  C_9
REMARK    4  A    between atoms: C_9  and  C_10
REMARK                            x       y       z     vdW  Elec       q    Type
REMARK                         _______ _______ _______ _____ _____    ______ ____
ROOT
ATOM      1  C   UNL     1      47.760   6.269  13.786  0.00  0.00    +0.000 A 
ATOM      2  C   UNL     1      47.185   6.827  12.652  0.00  0.00    +0.000 A 
ATOM      3  C   UNL     1      46.187   6.105  11.998  0.00  0.00    +0.000 A 
ATOM      4  C   UNL     1      45.809   4.855  12.485  0.00  0.00    +0.000 A 
ATOM      5  C   UNL     1      46.417   4.404  13.653  0.00  0.00    +0.000 A 
ATOM      6  N   UNL     1      47.393   5.067  14.311  0.00  0.00    +0.000 NA
ENDROOT
BRANCH   1   8
ATOM      7  N   UNL     1      48.971   8.318  14.222  0.00  0.00    +0.000 N 
ATOM      8  C   UNL     1      48.864   6.983  14.504  0.00  0.00    +0.000 C 
ATOM      9  O   UNL     1      49.614   6.421  15.292  0.00  0.00    +0.000 OA
ATOM     10  H   UNL     1      49.687   8.869  14.673  0.00  0.00    +0.000 HD
ATOM     11  H   UNL     1      48.315   8.744  13.577  0.00  0.00    +0.000 HD
ENDBRANCH   1   8
BRANCH   4  12
ATOM     12  O   UNL     1      44.870   4.176  11.761  0.00  0.00    +0.000 OA
BRANCH  12  13
ATOM     13  C   UNL     1      44.599   4.733  10.471  0.00  0.00    +0.000 C 
BRANCH  13  14
ATOM     14  C   UNL     1      45.232   3.877   9.406  0.00  0.00    +0.000 A 
ATOM     15  C   UNL     1      45.870   4.474   8.310  0.00  0.00    +0.000 A 
ATOM     16  C   UNL     1      46.478   3.689   7.332  0.00  0.00    +0.000 A 
ATOM     17  C   UNL     1      46.454   2.301   7.439  0.00  0.00    +0.000 A 
ATOM     18  C   UNL     1      45.819   1.696   8.524  0.00  0.00    +0.000 A 
ATOM     19  C   UNL     1      45.209   2.480   9.504  0.00  0.00    +0.000 A 
ENDBRANCH  13  14
ENDBRANCH  12  13
ENDBRANCH   4  12
TORSDOF 4
ENDMDL
MODEL 6
REMARK VINA RESULT:    -6.136      2.064      2.457
REMARK INTER + INTRA:          -8.050
REMARK INTER:                  -7.575
REMARK INTRA:                  -0.475
REMARK UNBOUND:                -0.479
REMARK  Name = 
REMARK  4 active torsions:
REMARK  status: ('A' for Active; 'I' for Inactive)
REMARK    1  A    between atoms: C_2  and  C_4
REMARK    2  A    between atoms: C_7  and  O_8
REMARK    3  A    between atoms: O_8  and  C_9
REMARK    4  A    between atoms: C_9  and  C_10
REMARK                            x       y       z     vdW  Elec       q    Type
REMARK                         _______ _______ _______ _____ _____    ______ ____
ROOT
ATOM      1  C   UNL     1      47.261   6.735  12.775  0.00  0.00    +0.000 A 
ATOM      2  C   UNL     1      47.129   5.440  13.259  0.00  0.00    +0.000 A 
ATOM      3  C   UNL     1      46.100   4.650  12.750  0.00  0.00    +0.000 A 
ATOM      4  C   UNL     1      45.235   5.177  11.792  0.00  0.00    +0.000 A 
ATOM      5  C   UNL     1      45.479   6.471  11.342  0.00  0.00    +0.000 A 
ATOM      6  N   UNL     1      46.458   7.273  11.816  0.00  0.00    +0.000 NA
ENDROOT
BRANCH   1   8
ATOM      7  N   UNL     1      49.589   7.116  13.316  0.00  0.00    +0.000 N 
ATOM      8  C   UNL     1      48.325   7.641  13.317  0.00  0.00    +0.000 C 
ATOM      9  O   UNL     1      48.088   8.770  13.724  0.00  0.00    +0.000 OA
ATOM     10  H   UNL     1      50.361   7.670  13.659  0.00  0.00    +0.000 HD
ATOM     11  H   UNL     1      49.740   6.182  12.951  0.00  0.00    +0.000 HD
ENDBRANCH   1   8
BRANCH   4  12
ATOM     12  O   UNL     1      44.212   4.369  11.383  0.00  0.00    +0.000 OA
BRANCH  12  13
ATOM     13  C   UNL     1      43.862   4.507  10.002  0.00  0.00    +0.000 C 
BRANCH  13  14
ATOM     14  C   UNL     1      44.829   3.727   9.153  0.00  0.00    +0.000 A 
ATOM     15  C   UNL     1      44.922   2.335   9.290  0.00  0.00    +0.000 A 
ATOM     16  C   UNL     1      45.799   1.603   8.491  0.00  0.00    +0.000 A 
ATOM     17  C   UNL     1      46.590   2.254   7.549  0.00  0.00    +0.000 A 
ATOM     18  C   UNL     1      46.509   3.638   7.406  0.00  0.00    +0.000 A 
ATOM     19  C   UNL     1      45.632   4.374   8.205  0.00  0.00    +0.000 A 
ENDBRANCH  13  14
ENDBRANCH  12  13
ENDBRANCH   4  12
TORSDOF 4
ENDMDL
MODEL 7
REMARK VINA RESULT:    -5.508      3.315      6.345
REMARK INTER + INTRA:          -7.275
REMARK INTER:                  -6.849
REMARK INTRA:                  -0.426
REMARK UNBOUND:                -0.479
REMARK  Name = 
REMARK  4 active torsions:
REMARK  status: ('A' for Active; 'I' for Inactive)
REMARK    1  A    between atoms: C_2  and  C_4
REMARK    2  A    between atoms: C_7  and  O_8
REMARK    3  A    between atoms: O_8  and  C_9
REMARK    4  A    between atoms: C_9  and  C_10
REMARK                            x       y       z     vdW  Elec       q    Type
REMARK                         _______ _______ _______ _____ _____    ______ ____
ROOT
ATOM      1  C   UNL     1      44.874   3.822  11.574  0.00  0.00    +0.000 A 
ATOM      2  C   UNL     1      45.209   4.921  10.793  0.00  0.00    +0.000 A 
ATOM      3  C   UNL     1      45.999   5.917  11.366  0.00  0.00    +0.000 A 
ATOM      4  C   UNL     1      46.415   5.791  12.690  0.00  0.00    +0.000 A 
ATOM      5  C   UNL     1      46.061   4.631  13.372  0.00  0.00    +0.000 A 
ATOM      6  N   UNL     1      45.289   3.648  12.858  0.00  0.00    +0.000 NA
ENDROOT
BRANCH   1   8
ATOM      7  N   UNL     1      44.432   2.175   9.857  0.00  0.00    +0.000 N 
ATOM      8  C   UNL     1      43.993   2.743  11.022  0.00  0.00    +0.000 C 
ATOM      9  O   UNL     1      42.959   2.386  11.572  0.00  0.00    +0.000 OA
ATOM     10  H   UNL     1      43.896   1.435   9.427  0.00  0.00    +0.000 HD
ATOM     11  H   UNL     1      45.305   2.491   9.448  0.00  0.00    +0.000 HD
ENDBRANCH   1   8
BRANCH   4  12
ATOM     12  O   UNL     1      47.135   6.832  13.205  0.00  0.00    +0.000 OA
BRANCH  12  13
ATOM     13  C   UNL     1      48.524   6.820  12.863  0.00  0.00    +0.000 C 
BRANCH  13  14
ATOM     14  C   UNL     1      48.901   8.132  12.228  0.00  0.00    +0.000 A 
ATOM     15  C   UNL     1      47.955   9.161  12.122  0.00  0.00    +0.000 A 
ATOM     16  C   UNL     1      48.303  10.386  11.557  0.00  0.00    +0.000 A 
ATOM     17  C   UNL     1      49.598  10.595  11.090  0.00  0.00    +0.000 A 
ATOM     18  C   UNL     1      50.547   9.578  11.187  0.00  0.00    +0.000 A 
ATOM     19  C   UNL     1      50.201   8.349  11.752  0.00  0.00    +0.000 A 
ENDBRANCH  13  14
ENDBRANCH  12  13
ENDBRANCH   4  12
TORSDOF 4
ENDMDL
MODEL 8
REMARK VINA RESULT:    -5.408      4.700      7.166
REMARK INTER + INTRA:          -7.153
REMARK INTER:                  -6.749
REMARK INTRA:                  -0.404
REMARK UNBOUND:                -0.479
REMARK  Name = 
REMARK  4 active torsions:
REMARK  status: ('A' for Active; 'I' for Inactive)
REMARK    1  A    between atoms: C_2  and  C_4
REMARK    2  A    between atoms: C_7  and  O_8
REMARK    3  A    between atoms: O_8  and  C_9
REMARK    4  A    between atoms: C_9  and  C_10
REMARK                            x       y       z     vdW  Elec       q    Type
REMARK                         _______ _______ _______ _____ _____    ______ ____
ROOT
ATOM      1  C   UNL     1      45.551   6.765  12.542  0.00  0.00    +0.000 A 
ATOM      2  C   UNL     1      46.914   6.780  12.808  0.00  0.00    +0.000 A 
ATOM      3  C   UNL     1      47.456   5.712  13.522  0.00  0.00    +0.000 A 
ATOM      4  C   UNL     1      46.625   4.679  13.953  0.00  0.00    +0.000 A 
ATOM      5  C   UNL     1      45.281   4.738  13.598  0.00  0.00    +0.000 A 
ATOM      6  N   UNL     1      44.715   5.759  12.917  0.00  0.00    +0.000 NA
ENDROOT
BRANCH   1   8
ATOM      7  N   UNL     1      43.765   7.593  11.135  0.00  0.00    +0.000 N 
ATOM      8  C   UNL     1      44.910   7.908  11.815  0.00  0.00    +0.000 C 
ATOM      9  O   UNL     1      45.368   9.043  11.830  0.00  0.00    +0.000 OA
ATOM     10  H   UNL     1      43.271   8.312  10.626  0.00  0.00    +0.000 HD
ATOM     11  H   UNL     1      43.412   6.642  11.166  0.00  0.00    +0.000 HD
ENDBRANCH   1   8
BRANCH   4  12
ATOM     12  O   UNL     1      47.211   3.696  14.699  0.00  0.00    +0.000 OA
BRANCH  12  13
ATOM     13  C   UNL     1      47.175   3.920  16.112  0.00  0.00    +0.000 C 
BRANCH  13  14
ATOM     14  C   UNL     1      48.549   3.716  16.692  0.00  0.00    +0.000 A 
ATOM     15  C   UNL     1      49.075   2.423  16.820  0.00  0.00    +0.000 A 
ATOM     16  C   UNL     1      50.355   2.227  17.335  0.00  0.00    +0.000 A 
ATOM     17  C   UNL     1      51.121   3.321  17.729  0.00  0.00    +0.000 A 
ATOM     18  C   UNL     1      50.607   4.612  17.611  0.00  0.00    +0.000 A 
ATOM     19  C   UNL     1      49.325   4.810  17.096  0.00  0.00    +0.000 A 
ENDBRANCH  13  14
ENDBRANCH  12  13
ENDBRANCH   4  12
TORSDOF 4
ENDMDL
MODEL 9
REMARK VINA RESULT:    -5.197      3.785      7.453
REMARK INTER + INTRA:          -6.892
REMARK INTER:                  -6.594
REMARK INTRA:                  -0.298
REMARK UNBOUND:                -0.479
REMARK  Name = 
REMARK  4 active torsions:
REMARK  status: ('A' for Active; 'I' for Inactive)
REMARK    1  A    between atoms: C_2  and  C_4
REMARK    2  A    between atoms: C_7  and  O_8
REMARK    3  A    between atoms: O_8  and  C_9
REMARK    4  A    between atoms: C_9  and  C_10
REMARK                            x       y       z     vdW  Elec       q    Type
REMARK                         _______ _______ _______ _____ _____    ______ ____
ROOT
ATOM      1  C   UNL     1      44.867   5.391  11.832  0.00  0.00    +0.000 A 
ATOM      2  C   UNL     1      45.233   4.267  12.560  0.00  0.00    +0.000 A 
ATOM      3  C   UNL     1      46.377   4.341  13.354  0.00  0.00    +0.000 A 
ATOM      4  C   UNL     1      47.119   5.521  13.385  0.00  0.00    +0.000 A 
ATOM      5  C   UNL     1      46.643   6.604  12.652  0.00  0.00    +0.000 A 
ATOM      6  N   UNL     1      45.547   6.571  11.863  0.00  0.00    +0.000 NA
ENDROOT
BRANCH   1   8
ATOM      7  N   UNL     1      43.880   4.767   9.712  0.00  0.00    +0.000 N 
ATOM      8  C   UNL     1      43.670   5.353  10.931  0.00  0.00    +0.000 C 
ATOM      9  O   UNL     1      42.581   5.803  11.259  0.00  0.00    +0.000 OA
ATOM     10  H   UNL     1      43.119   4.697   9.052  0.00  0.00    +0.000 HD
ATOM     11  H   UNL     1      44.796   4.391   9.492  0.00  0.00    +0.000 HD
ENDBRANCH   1   8
BRANCH   4  12
ATOM     12  O   UNL     1      48.260   5.504  14.135  0.00  0.00    +0.000 OA
BRANCH  12  13
ATOM     13  C   UNL     1      48.143   6.143  15.410  0.00  0.00    +0.000 C 
BRANCH  13  14
ATOM     14  C   UNL     1      48.284   5.119  16.505  0.00  0.00    +0.000 A 
ATOM     15  C   UNL     1      47.313   4.120  16.665  0.00  0.00    +0.000 A 
ATOM     16  C   UNL     1      47.449   3.155  17.661  0.00  0.00    +0.000 A 
ATOM     17  C   UNL     1      48.555   3.179  18.508  0.00  0.00    +0.000 A 
ATOM     18  C   UNL     1      49.525   4.170  18.361  0.00  0.00    +0.000 A 
ATOM     19  C   UNL     1      49.391   5.138  17.364  0.00  0.00    +0.000 A 
ENDBRANCH  13  14
ENDBRANCH  12  13
ENDBRANCH   4  12
TORSDOF 4
ENDMDL
