MODEL 1
REMARK VINA RESULT:    -7.535      0.000      0.000
REMARK INTER + INTRA:          -9.828
REMARK INTER:                  -9.517
REMARK INTRA:                  -0.311
REMARK UNBOUND:                -0.311
REMARK  Name = 
REMARK  5 active torsions:
REMARK  status: ('A' for Active; 'I' for Inactive)
REMARK    1  A    between atoms: N_1  and  C_2
REMARK    2  A    between atoms: C_2  and  C_3
REMARK    3  A    between atoms: C_6  and  C_7
REMARK    4  A    between atoms: C_7  and  N_8
REMARK    5  A    between atoms: C_13  and  C_14
REMARK                            x       y       z     vdW  Elec       q    Type
REMARK                         _______ _______ _______ _____ _____    ______ ____
ROOT
ATOM      1  N   UNL     1      44.005   4.349  10.652  0.00  0.00    +0.000 N 
ATOM      2  C   UNL     1      43.503   3.212  11.230  0.00  0.00    +0.000 A 
ATOM      3  C   UNL     1      44.001   2.131  10.538  0.00  0.00    +0.000 A 
ATOM      4  C   UNL     1      44.851   2.627   9.513  0.00  0.00    +0.000 A 
ATOM      5  C   UNL     1      45.581   2.014   8.471  0.00  0.00    +0.000 A 
ATOM      6  C   UNL     1      46.334   2.806   7.589  0.00  0.00    +0.000 A 
ATOM      7  C   UNL     1      46.411   4.189   7.795  0.00  0.00    +0.000 A 
ATOM      8  C   UNL     1      45.714   4.813   8.833  0.00  0.00    +0.000 A 
ATOM      9  C   UNL     1      44.902   4.016   9.655  0.00  0.00    +0.000 A 
ENDROOT
BRANCH   6  10
ATOM     10  C   UNL     1      47.052   2.249   6.406  0.00  0.00    +0.000 C 
ATOM     11  N   UNL     1      47.205   3.033   5.297  0.00  0.00    +0.000 N 
ATOM     12  O   UNL     1      47.523   1.116   6.414  0.00  0.00    +0.000 OA
ATOM     13  H   UNL     1      46.888   3.984   5.208  0.00  0.00    +0.000 HD
ATOM     14  H   UNL     1      47.735   2.636   4.533  0.00  0.00    +0.000 HD
ENDBRANCH   6  10
BRANCH   1  15
ATOM     15  C   UNL     1      43.601   5.699  11.017  0.00  0.00    +0.000 C 
BRANCH  15  19
ATOM     16  C   UNL     1      47.051   7.252  13.291  0.00  0.00    +0.000 C 
ATOM     17  C   UNL     1      45.920   8.226  12.934  0.00  0.00    +0.000 C 
ATOM     18  C   UNL     1      44.997   7.683  11.848  0.00  0.00    +0.000 C 
ATOM     19  C   UNL     1      44.404   6.306  12.194  0.00  0.00    +0.000 C 
ATOM     20  C   UNL     1      45.506   5.322  12.620  0.00  0.00    +0.000 C 
ATOM     21  C   UNL     1      46.441   5.897  13.684  0.00  0.00    +0.000 C 
BRANCH  16  22
ATOM     22  C   UNL     1      48.100   7.094  12.171  0.00  0.00    +0.000 C 
BRANCH  22  23
ATOM     23  N   UNL     1      49.374   6.605  12.686  0.00  0.00    +0.000 NA
ATOM     24  H   UNL     1      50.043   6.514  11.922  0.00  0.00    +0.000 HD
ATOM     25  H   UNL     1      49.255   5.671  13.075  0.00  0.00    +0.000 HD
ENDBRANCH  22  23
ENDBRANCH  16  22
ENDBRANCH  15  19
ENDBRANCH   1  15
TORSDOF 5
ENDMDL
MODEL 2
REMARK VINA RESULT:    -6.096      2.920      5.021
REMARK INTER + INTRA:          -8.010
REMARK INTER:                  -7.576
REMARK INTRA:                  -0.435
REMARK UNBOUND:                -0.311
REMARK  Name = 
REMARK  5 active torsions:
REMARK  status: ('A' for Active; 'I' for Inactive)
REMARK    1  A    between atoms: N_1  and  C_2
REMARK    2  A    between atoms: C_2  and  C_3
REMARK    3  A    between atoms: C_6  and  C_7
REMARK    4  A    between atoms: C_7  and  N_8
REMARK    5  A    between atoms: C_13  and  C_14
REMARK                            x       y       z     vdW  Elec       q    Type
REMARK                         _______ _______ _______ _____ _____    ______ ____
ROOT
ATOM      1  N   UNL     1      47.280   6.895  13.109  0.00  0.00    +0.000 N 
ATOM      2  C   UNL     1      47.687   6.298  14.275  0.00  0.00    +0.000 A 
ATOM      3  C   UNL     1      47.153   5.030  14.310  0.00  0.00    +0.000 A 
ATOM      4  C   UNL     1      46.409   4.840  13.113  0.00  0.00    +0.000 A 
ATOM      5  C   UNL     1      45.607   3.787  12.620  0.00  0.00    +0.000 A 
ATOM      6  C   UNL     1      44.976   3.918  11.373  0.00  0.00    +0.000 A 
ATOM      7  C   UNL     1      45.206   5.061  10.598  0.00  0.00    +0.000 A 
ATOM      8  C   UNL     1      46.013   6.105  11.057  0.00  0.00    +0.000 A 
ATOM      9  C   UNL     1      46.570   5.993  12.340  0.00  0.00    +0.000 A 
ENDROOT
BRANCH   6  10
ATOM     10  C   UNL     1      44.035   2.897  10.826  0.00  0.00    +0.000 C 
ATOM     11  N   UNL     1      44.418   2.160   9.741  0.00  0.00    +0.000 N 
ATOM     12  O   UNL     1      42.940   2.692  11.340  0.00  0.00    +0.000 OA
ATOM     13  H   UNL     1      45.307   2.229   9.275  0.00  0.00    +0.000 HD
ATOM     14  H   UNL     1      43.771   1.448   9.428  0.00  0.00    +0.000 HD
ENDBRANCH   6  10
BRANCH   1  15
ATOM     15  C   UNL     1      47.529   8.289  12.775  0.00  0.00    +0.000 C 
BRANCH  15  19
ATOM     16  C   UNL     1      51.595   9.032  11.229  0.00  0.00    +0.000 C 
ATOM     17  C   UNL     1      50.947   7.672  10.938  0.00  0.00    +0.000 C 
ATOM     18  C   UNL     1      49.736   7.396  11.825  0.00  0.00    +0.000 C 
ATOM     19  C   UNL     1      48.671   8.503  11.752  0.00  0.00    +0.000 C 
ATOM     20  C   UNL     1      49.300   9.889  11.974  0.00  0.00    +0.000 C 
ATOM     21  C   UNL     1      50.531  10.134  11.102  0.00  0.00    +0.000 C 
BRANCH  16  22
ATOM     22  C   UNL     1      52.308   9.092  12.597  0.00  0.00    +0.000 C 
BRANCH  22  23
ATOM     23  N   UNL     1      53.153   7.924  12.821  0.00  0.00    +0.000 NA
ATOM     24  H   UNL     1      52.734   7.326  13.531  0.00  0.00    +0.000 HD
ATOM     25  H   UNL     1      54.057   8.216  13.187  0.00  0.00    +0.000 HD
ENDBRANCH  22  23
ENDBRANCH  16  22
ENDBRANCH  15  19
ENDBRANCH   1  15
TORSDOF 5
ENDMDL
MODEL 3
REMARK VINA RESULT:    -6.068      3.709      5.857
REMARK INTER + INTRA:          -7.976
REMARK INTER:                  -7.397
REMARK INTRA:                  -0.579
REMARK UNBOUND:                -0.311
REMARK  Name = 
REMARK  5 active torsions:
REMARK  status: ('A' for Active; 'I' for Inactive)
REMARK    1  A    between atoms: N_1  and  C_2
REMARK    2  A    between atoms: C_2  and  C_3
REMARK    3  A    between atoms: C_6  and  C_7
REMARK    4  A    between atoms: C_7  and  N_8
REMARK    5  A    between atoms: C_13  and  C_14
REMARK                            x       y       z     vdW  Elec       q    Type
REMARK                         _______ _______ _______ _____ _____    ______ ____
ROOT
ATOM      1  N   UNL     1      47.629   6.925  13.750  0.00  0.00    +0.000 N 
ATOM      2  C   UNL     1      48.432   7.604  12.869  0.00  0.00    +0.000 A 
ATOM      3  C   UNL     1      47.980   7.340  11.596  0.00  0.00    +0.000 A 
ATOM      4  C   UNL     1      46.851   6.483  11.706  0.00  0.00    +0.000 A 
ATOM      5  C   UNL     1      46.020   5.841  10.762  0.00  0.00    +0.000 A 
ATOM      6  C   UNL     1      44.966   5.024  11.204  0.00  0.00    +0.000 A 
ATOM      7  C   UNL     1      44.707   4.911  12.575  0.00  0.00    +0.000 A 
ATOM      8  C   UNL     1      45.504   5.556  13.525  0.00  0.00    +0.000 A 
ATOM      9  C   UNL     1      46.601   6.303  13.068  0.00  0.00    +0.000 A 
ENDROOT
BRANCH   6  10
ATOM     10  C   UNL     1      44.106   4.233  10.277  0.00  0.00    +0.000 C 
ATOM     11  N   UNL     1      44.162   4.496   8.937  0.00  0.00    +0.000 N 
ATOM     12  O   UNL     1      43.369   3.341  10.687  0.00  0.00    +0.000 OA
ATOM     13  H   UNL     1      44.760   5.179   8.502  0.00  0.00    +0.000 HD
ATOM     14  H   UNL     1      43.597   3.909   8.338  0.00  0.00    +0.000 HD
ENDBRANCH   6  10
BRANCH   1  15
ATOM     15  C   UNL     1      47.872   6.844  15.182  0.00  0.00    +0.000 C 
BRANCH  15  19
ATOM     16  C   UNL     1      49.295   3.655  17.881  0.00  0.00    +0.000 C 
ATOM     17  C   UNL     1      48.245   3.293  16.822  0.00  0.00    +0.000 C 
ATOM     18  C   UNL     1      47.566   4.522  16.224  0.00  0.00    +0.000 C 
ATOM     19  C   UNL     1      48.563   5.536  15.638  0.00  0.00    +0.000 C 
ATOM     20  C   UNL     1      49.670   5.871  16.653  0.00  0.00    +0.000 C 
ATOM     21  C   UNL     1      50.314   4.628  17.266  0.00  0.00    +0.000 C 
BRANCH  16  22
ATOM     22  C   UNL     1      48.687   4.223  19.180  0.00  0.00    +0.000 C 
BRANCH  22  23
ATOM     23  N   UNL     1      48.340   3.166  20.124  0.00  0.00    +0.000 NA
ATOM     24  H   UNL     1      47.681   2.520  19.692  0.00  0.00    +0.000 HD
ATOM     25  H   UNL     1      47.863   3.566  20.930  0.00  0.00    +0.000 HD
ENDBRANCH  22  23
ENDBRANCH  16  22
ENDBRANCH  15  19
ENDBRANCH   1  15
TORSDOF 5
ENDMDL
MODEL 4
REMARK VINA RESULT:    -5.914      4.936      8.594
REMARK INTER + INTRA:          -7.781
REMARK INTER:                  -7.406
REMARK INTRA:                  -0.375
REMARK UNBOUND:                -0.311
REMARK  Name = 
REMARK  5 active torsions:
REMARK  status: ('A' for Active; 'I' for Inactive)
REMARK    1  A    between atoms: N_1  and  C_2
REMARK    2  A    between atoms: C_2  and  C_3
REMARK    3  A    between atoms: C_6  and  C_7
REMARK    4  A    between atoms: C_7  and  N_8
REMARK    5  A    between atoms: C_13  and  C_14
REMARK                            x       y       z     vdW  Elec       q    Type
REMARK                         _______ _______ _______ _____ _____    ______ ____
ROOT
ATOM      1  N   UNL     1      47.598   5.232  14.706  0.00  0.00    +0.000 N 
ATOM      2  C   UNL     1      48.155   6.418  14.300  0.00  0.00    +0.000 A 
ATOM      3  C   UNL     1      48.767   6.993  15.391  0.00  0.00    +0.000 A 
ATOM      4  C   UNL     1      48.592   6.117  16.497  0.00  0.00    +0.000 A 
ATOM      5  C   UNL     1      48.939   6.193  17.864  0.00  0.00    +0.000 A 
ATOM      6  C   UNL     1      48.603   5.138  18.727  0.00  0.00    +0.000 A 
ATOM      7  C   UNL     1      47.989   3.991  18.210  0.00  0.00    +0.000 A 
ATOM      8  C   UNL     1      47.656   3.886  16.857  0.00  0.00    +0.000 A 
ATOM      9  C   UNL     1      47.928   4.983  16.025  0.00  0.00    +0.000 A 
ENDROOT
BRANCH   6  10
ATOM     10  C   UNL     1      48.844   5.182  20.199  0.00  0.00    +0.000 C 
ATOM     11  N   UNL     1      48.591   4.065  20.943  0.00  0.00    +0.000 N 
ATOM     12  O   UNL     1      49.281   6.188  20.748  0.00  0.00    +0.000 OA
ATOM     13  H   UNL     1      48.267   3.183  20.579  0.00  0.00    +0.000 HD
ATOM     14  H   UNL     1      48.808   4.120  21.929  0.00  0.00    +0.000 HD
ENDBRANCH   6  10
BRANCH   1  15
ATOM     15  C   UNL     1      46.748   4.399  13.869  0.00  0.00    +0.000 C 
BRANCH  15  19
ATOM     16  C   UNL     1      43.571   5.324  10.948  0.00  0.00    +0.000 C 
ATOM     17  C   UNL     1      43.158   5.005  12.391  0.00  0.00    +0.000 C 
ATOM     18  C   UNL     1      44.277   4.342  13.190  0.00  0.00    +0.000 C 
ATOM     19  C   UNL     1      45.580   5.159  13.193  0.00  0.00    +0.000 C 
ATOM     20  C   UNL     1      45.988   5.552  11.763  0.00  0.00    +0.000 C 
ATOM     21  C   UNL     1      44.846   6.183  10.968  0.00  0.00    +0.000 C 
BRANCH  16  22
ATOM     22  C   UNL     1      43.752   4.068  10.070  0.00  0.00    +0.000 C 
BRANCH  22  23
ATOM     23  N   UNL     1      44.121   4.411   8.701  0.00  0.00    +0.000 NA
ATOM     24  H   UNL     1      44.971   3.915   8.437  0.00  0.00    +0.000 HD
ATOM     25  H   UNL     1      44.337   5.404   8.639  0.00  0.00    +0.000 HD
ENDBRANCH  22  23
ENDBRANCH  16  22
ENDBRANCH  15  19
ENDBRANCH   1  15
TORSDOF 5
ENDMDL
MODEL 5
REMARK VINA RESULT:    -5.871      3.234      6.957
REMARK INTER + INTRA:          -7.727
REMARK INTER:                  -7.129
REMARK INTRA:                  -0.598
REMARK UNBOUND:                -0.311
REMARK  Name = 
REMARK  5 active torsions:
REMARK  status: ('A' for Active; 'I' for Inactive)
REMARK    1  A    between atoms: N_1  and  C_2
REMARK    2  A    between atoms: C_2  and  C_3
REMARK    3  A    between atoms: C_6  and  C_7
REMARK    4  A    between atoms: C_7  and  N_8
REMARK    5  A    between atoms: C_13  and  C_14
REMARK                            x       y       z     vdW  Elec       q    Type
REMARK                         _______ _______ _______ _____ _____    ______ ____
ROOT
ATOM      1  N   UNL     1      46.086   6.911  12.240  0.00  0.00    +0.000 N 
ATOM      2  C   UNL     1      44.991   7.695  12.501  0.00  0.00    +0.000 A 
ATOM      3  C   UNL     1      45.405   9.008  12.515  0.00  0.00    +0.000 A 
ATOM      4  C   UNL     1      46.798   9.026  12.235  0.00  0.00    +0.000 A 
ATOM      5  C   UNL     1      47.767  10.052  12.175  0.00  0.00    +0.000 A 
ATOM      6  C   UNL     1      49.102   9.733  11.880  0.00  0.00    +0.000 A 
ATOM      7  C   UNL     1      49.446   8.410  11.579  0.00  0.00    +0.000 A 
ATOM      8  C   UNL     1      48.499   7.382  11.611  0.00  0.00    +0.000 A 
ATOM      9  C   UNL     1      47.186   7.707  11.986  0.00  0.00    +0.000 A 
ENDROOT
BRANCH   6  10
ATOM     10  C   UNL     1      50.202  10.740  11.895  0.00  0.00    +0.000 C 
ATOM     11  N   UNL     1      50.455  11.425  13.050  0.00  0.00    +0.000 N 
ATOM     12  O   UNL     1      50.894  10.951  10.904  0.00  0.00    +0.000 OA
ATOM     13  H   UNL     1      49.969  11.296  13.922  0.00  0.00    +0.000 HD
ATOM     14  H   UNL     1      51.237  12.066  13.033  0.00  0.00    +0.000 HD
ENDBRANCH   6  10
BRANCH   1  15
ATOM     15  C   UNL     1      46.078   5.457  12.279  0.00  0.00    +0.000 C 
BRANCH  15  19
ATOM     16  C   UNL     1      44.444   2.807   9.150  0.00  0.00    +0.000 C 
ATOM     17  C   UNL     1      43.967   2.603  10.594  0.00  0.00    +0.000 C 
ATOM     18  C   UNL     1      44.864   3.298  11.613  0.00  0.00    +0.000 C 
ATOM     19  C   UNL     1      45.041   4.801  11.334  0.00  0.00    +0.000 C 
ATOM     20  C   UNL     1      45.455   5.046   9.874  0.00  0.00    +0.000 C 
ATOM     21  C   UNL     1      44.566   4.314   8.869  0.00  0.00    +0.000 C 
BRANCH  16  22
ATOM     22  C   UNL     1      45.758   2.066   8.826  0.00  0.00    +0.000 C 
BRANCH  22  23
ATOM     23  N   UNL     1      46.287   2.443   7.520  0.00  0.00    +0.000 NA
ATOM     24  H   UNL     1      45.579   2.954   6.996  0.00  0.00    +0.000 HD
ATOM     25  H   UNL     1      46.498   1.607   6.978  0.00  0.00    +0.000 HD
ENDBRANCH  22  23
ENDBRANCH  16  22
ENDBRANCH  15  19
ENDBRANCH   1  15
TORSDOF 5
ENDMDL
MODEL 6
REMARK VINA RESULT:    -5.862      3.385      5.420
REMARK INTER + INTRA:          -7.715
REMARK INTER:                  -7.093
REMARK INTRA:                  -0.622
REMARK UNBOUND:                -0.311
REMARK  Name = 
REMARK  5 active torsions:
REMARK  status: ('A' for Active; 'I' for Inactive)
REMARK    1  A    between atoms: N_1  and  C_2
REMARK    2  A    between atoms: C_2  and  C_3
REMARK    3  A    between atoms: C_6  and  C_7
REMARK    4  A    between atoms: C_7  and  N_8
REMARK    5  A    between atoms: C_13  and  C_14
REMARK                            x       y       z     vdW  Elec       q    Type
REMARK                         _______ _______ _______ _____ _____    ______ ____
ROOT
ATOM      1  N   UNL     1      46.219   8.287  12.500  0.00  0.00    +0.000 N 
ATOM      2  C   UNL     1      45.311   9.123  11.902  0.00  0.00    +0.000 A 
ATOM      3  C   UNL     1      44.296   8.346  11.390  0.00  0.00    +0.000 A 
ATOM      4  C   UNL     1      44.587   6.991  11.704  0.00  0.00    +0.000 A 
ATOM      5  C   UNL     1      43.959   5.763  11.398  0.00  0.00    +0.000 A 
ATOM      6  C   UNL     1      44.521   4.561  11.856  0.00  0.00    +0.000 A 
ATOM      7  C   UNL     1      45.659   4.595  12.670  0.00  0.00    +0.000 A 
ATOM      8  C   UNL     1      46.285   5.800  13.002  0.00  0.00    +0.000 A 
ATOM      9  C   UNL     1      45.756   6.986  12.470  0.00  0.00    +0.000 A 
ENDROOT
BRANCH   6  10
ATOM     10  C   UNL     1      43.977   3.219  11.495  0.00  0.00    +0.000 C 
ATOM     11  N   UNL     1      43.738   2.314  12.490  0.00  0.00    +0.000 N 
ATOM     12  O   UNL     1      43.721   2.921  10.333  0.00  0.00    +0.000 OA
ATOM     13  H   UNL     1      43.880   2.478  13.473  0.00  0.00    +0.000 HD
ATOM     14  H   UNL     1      43.329   1.432  12.210  0.00  0.00    +0.000 HD
ENDBRANCH   6  10
BRANCH   1  15
ATOM     15  C   UNL     1      47.500   8.722  13.037  0.00  0.00    +0.000 C 
BRANCH  15  19
ATOM     16  C   UNL     1      51.582   9.027  11.388  0.00  0.00    +0.000 C 
ATOM     17  C   UNL     1      50.782   7.747  11.111  0.00  0.00    +0.000 C 
ATOM     18  C   UNL     1      49.572   7.600  12.028  0.00  0.00    +0.000 C 
ATOM     19  C   UNL     1      48.632   8.816  11.986  0.00  0.00    +0.000 C 
ATOM     20  C   UNL     1      49.414  10.125  12.194  0.00  0.00    +0.000 C 
ATOM     21  C   UNL     1      50.641  10.238  11.291  0.00  0.00    +0.000 C 
BRANCH  16  22
ATOM     22  C   UNL     1      52.332   9.002  12.736  0.00  0.00    +0.000 C 
BRANCH  22  23
ATOM     23  N   UNL     1      53.214   7.846  12.846  0.00  0.00    +0.000 NA
ATOM     24  H   UNL     1      53.617   7.807  13.781  0.00  0.00    +0.000 HD
ATOM     25  H   UNL     1      53.995   7.944  12.201  0.00  0.00    +0.000 HD
ENDBRANCH  22  23
ENDBRANCH  16  22
ENDBRANCH  15  19
ENDBRANCH   1  15
TORSDOF 5
ENDMDL
MODEL 7
REMARK VINA RESULT:    -5.860      3.653      5.893
REMARK INTER + INTRA:          -7.713
REMARK INTER:                  -7.160
REMARK INTRA:                  -0.553
REMARK UNBOUND:                -0.311
REMARK  Name = 
REMARK  5 active torsions:
REMARK  status: ('A' for Active; 'I' for Inactive)
REMARK    1  A    between atoms: N_1  and  C_2
REMARK    2  A    between atoms: C_2  and  C_3
REMARK    3  A    between atoms: C_6  and  C_7
REMARK    4  A    between atoms: C_7  and  N_8
REMARK    5  A    between atoms: C_13  and  C_14
REMARK                            x       y       z     vdW  Elec       q    Type
REMARK                         _______ _______ _______ _____ _____    ______ ____
ROOT
ATOM      1  N   UNL     1      47.585   7.218  13.724  0.00  0.00    +0.000 N 
ATOM      2  C   UNL     1      47.126   8.507  13.622  0.00  0.00    +0.000 A 
ATOM      3  C   UNL     1      45.958   8.483  12.893  0.00  0.00    +0.000 A 
ATOM      4  C   UNL     1      45.687   7.129  12.554  0.00  0.00    +0.000 A 
ATOM      5  C   UNL     1      44.685   6.500  11.783  0.00  0.00    +0.000 A 
ATOM      6  C   UNL     1      44.704   5.105  11.621  0.00  0.00    +0.000 A 
ATOM      7  C   UNL     1      45.675   4.346  12.284  0.00  0.00    +0.000 A 
ATOM      8  C   UNL     1      46.663   4.946  13.070  0.00  0.00    +0.000 A 
ATOM      9  C   UNL     1      46.677   6.347  13.154  0.00  0.00    +0.000 A 
ENDROOT
BRANCH   6  10
ATOM     10  C   UNL     1      43.744   4.374  10.744  0.00  0.00    +0.000 C 
ATOM     11  N   UNL     1      43.741   4.638   9.404  0.00  0.00    +0.000 N 
ATOM     12  O   UNL     1      42.975   3.531  11.195  0.00  0.00    +0.000 OA
ATOM     13  H   UNL     1      44.357   5.283   8.935  0.00  0.00    +0.000 HD
ATOM     14  H   UNL     1      43.107   4.091   8.837  0.00  0.00    +0.000 HD
ENDBRANCH   6  10
BRANCH   1  15
ATOM     15  C   UNL     1      48.867   6.851  14.306  0.00  0.00    +0.000 C 
BRANCH  15  19
ATOM     16  C   UNL     1      49.755   5.250  18.322  0.00  0.00    +0.000 C 
ATOM     17  C   UNL     1      50.281   6.647  17.966  0.00  0.00    +0.000 C 
ATOM     18  C   UNL     1      50.246   6.924  16.466  0.00  0.00    +0.000 C 
ATOM     19  C   UNL     1      48.851   6.724  15.849  0.00  0.00    +0.000 C 
ATOM     20  C   UNL     1      48.265   5.357  16.242  0.00  0.00    +0.000 C 
ATOM     21  C   UNL     1      48.341   5.083  17.744  0.00  0.00    +0.000 C 
BRANCH  16  22
ATOM     22  C   UNL     1      50.688   4.108  17.867  0.00  0.00    +0.000 C 
BRANCH  22  23
ATOM     23  N   UNL     1      50.109   2.796  18.131  0.00  0.00    +0.000 NA
ATOM     24  H   UNL     1      50.164   2.588  19.127  0.00  0.00    +0.000 HD
ATOM     25  H   UNL     1      50.652   2.077  17.658  0.00  0.00    +0.000 HD
ENDBRANCH  22  23
ENDBRANCH  16  22
ENDBRANCH  15  19
ENDBRANCH   1  15
TORSDOF 5
ENDMDL
MODEL 8
REMARK VINA RESULT:    -5.420      4.663      6.454
REMARK INTER + INTRA:          -7.157
REMARK INTER:                  -6.532
REMARK INTRA:                  -0.625
REMARK UNBOUND:                -0.311
REMARK  Name = 
REMARK  5 active torsions:
REMARK  status: ('A' for Active; 'I' for Inactive)
REMARK    1  A    between atoms: N_1  and  C_2
REMARK    2  A    between atoms: C_2  and  C_3
REMARK    3  A    between atoms: C_6  and  C_7
REMARK    4  A    between atoms: C_7  and  N_8
REMARK    5  A    between atoms: C_13  and  C_14
REMARK                            x       y       z     vdW  Elec       q    Type
REMARK                         _______ _______ _______ _____ _____    ______ ____
ROOT
ATOM      1  N   UNL     1      46.174   4.912  13.486  0.00  0.00    +0.000 N 
ATOM      2  C   UNL     1      44.868   4.527  13.322  0.00  0.00    +0.000 A 
ATOM      3  C   UNL     1      44.171   5.602  12.818  0.00  0.00    +0.000 A 
ATOM      4  C   UNL     1      45.090   6.675  12.653  0.00  0.00    +0.000 A 
ATOM      5  C   UNL     1      44.954   8.018  12.240  0.00  0.00    +0.000 A 
ATOM      6  C   UNL     1      46.084   8.851  12.196  0.00  0.00    +0.000 A 
ATOM      7  C   UNL     1      47.345   8.321  12.496  0.00  0.00    +0.000 A 
ATOM      8  C   UNL     1      47.504   6.988  12.886  0.00  0.00    +0.000 A 
ATOM      9  C   UNL     1      46.354   6.193  13.001  0.00  0.00    +0.000 A 
ENDROOT
BRANCH   6  10
ATOM     10  C   UNL     1      46.012  10.304  11.868  0.00  0.00    +0.000 C 
ATOM     11  N   UNL     1      46.910  11.157  12.444  0.00  0.00    +0.000 N 
ATOM     12  O   UNL     1      45.182  10.744  11.079  0.00  0.00    +0.000 OA
ATOM     13  H   UNL     1      47.650  10.887  13.072  0.00  0.00    +0.000 HD
ATOM     14  H   UNL     1      46.857  12.127  12.162  0.00  0.00    +0.000 HD
ENDBRANCH   6  10
BRANCH   1  15
ATOM     15  C   UNL     1      47.193   4.093  14.125  0.00  0.00    +0.000 C 
BRANCH  15  19
ATOM     16  C   UNL     1      48.923   4.221  18.183  0.00  0.00    +0.000 C 
ATOM     17  C   UNL     1      48.346   5.518  17.600  0.00  0.00    +0.000 C 
ATOM     18  C   UNL     1      48.136   5.442  16.091  0.00  0.00    +0.000 C 
ATOM     19  C   UNL     1      47.263   4.249  15.664  0.00  0.00    +0.000 C 
ATOM     20  C   UNL     1      47.777   2.939  16.286  0.00  0.00    +0.000 C 
ATOM     21  C   UNL     1      48.014   3.046  17.792  0.00  0.00    +0.000 C 
BRANCH  16  22
ATOM     22  C   UNL     1      50.388   3.962  17.772  0.00  0.00    +0.000 C 
BRANCH  22  23
ATOM     23  N   UNL     1      51.234   5.125  18.013  0.00  0.00    +0.000 NA
ATOM     24  H   UNL     1      51.611   5.088  18.959  0.00  0.00    +0.000 HD
ATOM     25  H   UNL     1      50.676   5.975  17.960  0.00  0.00    +0.000 HD
ENDBRANCH  22  23
ENDBRANCH  16  22
ENDBRANCH  15  19
ENDBRANCH   1  15
TORSDOF 5
ENDMDL
MODEL 9
REMARK VINA RESULT:    -5.404      4.137      8.073
REMARK INTER + INTRA:          -7.137
REMARK INTER:                  -6.487
REMARK INTRA:                  -0.650
REMARK UNBOUND:                -0.311
REMARK  Name = 
REMARK  5 active torsions:
REMARK  status: ('A' for Active; 'I' for Inactive)
REMARK    1  A    between atoms: N_1  and  C_2
REMARK    2  A    between atoms: C_2  and  C_3
REMARK    3  A    between atoms: C_6  and  C_7
REMARK    4  A    between atoms: C_7  and  N_8
REMARK    5  A    between atoms: C_13  and  C_14
REMARK                            x       y       z     vdW  Elec       q    Type
REMARK                         _______ _______ _______ _____ _____    ______ ____
ROOT
ATOM      1  N   UNL     1      47.352   7.511  12.613  0.00  0.00    +0.000 N 
ATOM      2  C   UNL     1      47.146   8.796  12.181  0.00  0.00    +0.000 A 
ATOM      3  C   UNL     1      47.509   9.648  13.199  0.00  0.00    +0.000 A 
ATOM      4  C   UNL     1      47.970   8.854  14.285  0.00  0.00    +0.000 A 
ATOM      5  C   UNL     1      48.409   9.153  15.594  0.00  0.00    +0.000 A 
ATOM      6  C   UNL     1      48.794   8.112  16.453  0.00  0.00    +0.000 A 
ATOM      7  C   UNL     1      48.806   6.794  15.981  0.00  0.00    +0.000 A 
ATOM      8  C   UNL     1      48.396   6.478  14.683  0.00  0.00    +0.000 A 
ATOM      9  C   UNL     1      47.939   7.522  13.864  0.00  0.00    +0.000 A 
ENDROOT
BRANCH   6  10
ATOM     10  C   UNL     1      49.174   8.332  17.879  0.00  0.00    +0.000 C 
ATOM     11  N   UNL     1      49.485   9.597  18.292  0.00  0.00    +0.000 N 
ATOM     12  O   UNL     1      49.193   7.411  18.689  0.00  0.00    +0.000 OA
ATOM     13  H   UNL     1      49.462  10.421  17.713  0.00  0.00    +0.000 HD
ATOM     14  H   UNL     1      49.694   9.713  19.275  0.00  0.00    +0.000 HD
ENDBRANCH   6  10
BRANCH   1  15
ATOM     15  C   UNL     1      46.958   6.325  11.868  0.00  0.00    +0.000 C 
BRANCH  15  19
ATOM     16  C   UNL     1      43.027   4.319  11.867  0.00  0.00    +0.000 C 
ATOM     17  C   UNL     1      43.280   5.417  12.909  0.00  0.00    +0.000 C 
ATOM     18  C   UNL     1      44.760   5.756  13.058  0.00  0.00    +0.000 C 
ATOM     19  C   UNL     1      45.427   6.142  11.727  0.00  0.00    +0.000 C 
ATOM     20  C   UNL     1      45.138   5.093  10.640  0.00  0.00    +0.000 C 
ATOM     21  C   UNL     1      43.654   4.741  10.529  0.00  0.00    +0.000 C 
BRANCH  16  22
ATOM     22  C   UNL     1      43.526   2.927  12.308  0.00  0.00    +0.000 C 
BRANCH  22  23
ATOM     23  N   UNL     1      43.360   1.931  11.255  0.00  0.00    +0.000 NA
ATOM     24  H   UNL     1      43.449   0.995  11.648  0.00  0.00    +0.000 HD
ATOM     25  H   UNL     1      44.106   2.026  10.569  0.00  0.00    +0.000 HD
ENDBRANCH  22  23
ENDBRANCH  16  22
ENDBRANCH  15  19
ENDBRANCH   1  15
TORSDOF 5
ENDMDL
