MODEL 1
REMARK VINA RESULT:    -8.612      0.000      0.000
REMARK INTER + INTRA:         -13.973
REMARK INTER:                 -12.640
REMARK INTRA:                  -1.333
REMARK UNBOUND:                -1.333
REMARK  Name = 
REMARK  8 active torsions:
REMARK  status: ('A' for Active; 'I' for Inactive)
REMARK    1  A    between atoms: C_2  and  C_3
REMARK    2  A    between atoms: C_3  and  N_4
REMARK    3  A    between atoms: C_5  and  C_7
REMARK    4  A    between atoms: N_17  and  C_18
REMARK    5  A    between atoms: C_18  and  C_19
REMARK    6  A    between atoms: C_22  and  C_23
REMARK    7  A    between atoms: C_23  and  N_24
REMARK    8  A    between atoms: C_25  and  C_27
REMARK                            x       y       z     vdW  Elec       q    Type
REMARK                         _______ _______ _______ _____ _____    ______ ____
ROOT
ATOM      1  O   UNL     1      47.155   5.223  17.552  0.00  0.00    +0.000 OA
ATOM      2  C   UNL     1      47.520   4.250  16.896  0.00  0.00    +0.000 C 
ATOM      3  N   UNL     1      47.672   4.267  15.529  0.00  0.00    +0.000 N 
ATOM      4  H   UNL     1      47.818   3.386  15.047  0.00  0.00    +0.000 HD
ENDROOT
BRANCH   2   5
ATOM      5  C   UNL     1      47.772   2.886  17.541  0.00  0.00    +0.000 C 
BRANCH   5   6
ATOM      6  N   UNL     1      49.172   2.716  17.872  0.00  0.00    +0.000 N 
ATOM      7  C   UNL     1      50.056   2.117  17.008  0.00  0.00    +0.000 C 
ATOM      8  O   UNL     1      49.711   1.732  15.897  0.00  0.00    +0.000 OA
ATOM      9  H   UNL     1      49.415   2.803  18.854  0.00  0.00    +0.000 HD
BRANCH   7  10
ATOM     10  C   UNL     1      51.448   2.008  17.467  0.00  0.00    +0.000 A 
ATOM     11  C   UNL     1      52.021   0.759  17.663  0.00  0.00    +0.000 A 
ATOM     12  S   UNL     1      53.635   0.826  18.214  0.00  0.00    +0.000 S 
ATOM     13  C   UNL     1      53.617   2.528  18.235  0.00  0.00    +0.000 A 
ATOM     14  N   UNL     1      54.699   3.240  18.650  0.00  0.00    +0.000 NA
ATOM     15  C   UNL     1      54.537   4.521  18.628  0.00  0.00    +0.000 A 
ATOM     16  N   UNL     1      53.392   5.154  18.220  0.00  0.00    +0.000 N 
ATOM     17  C   UNL     1      52.291   4.478  17.763  0.00  0.00    +0.000 A 
ATOM     18  O   UNL     1      51.306   5.074  17.332  0.00  0.00    +0.000 OA
ATOM     19  C   UNL     1      52.407   3.035  17.796  0.00  0.00    +0.000 A 
ATOM     20  H   UNL     1      53.334   6.162  18.200  0.00  0.00    +0.000 HD
ENDBRANCH   7  10
ENDBRANCH   5   6
ENDBRANCH   2   5
BRANCH   3  21
ATOM     21  C   UNL     1      47.451   5.457  14.735  0.00  0.00    +0.000 C 
BRANCH  21  22
ATOM     22  C   UNL     1      46.453   5.200  13.633  0.00  0.00    +0.000 A 
ATOM     23  C   UNL     1      46.125   3.890  13.262  0.00  0.00    +0.000 A 
ATOM     24  C   UNL     1      45.236   3.646  12.207  0.00  0.00    +0.000 A 
ATOM     25  C   UNL     1      44.664   4.705  11.491  0.00  0.00    +0.000 A 
ATOM     26  C   UNL     1      44.965   6.017  11.883  0.00  0.00    +0.000 A 
ATOM     27  C   UNL     1      45.859   6.261  12.935  0.00  0.00    +0.000 A 
BRANCH  25  28
ATOM     28  C   UNL     1      43.799   4.432  10.287  0.00  0.00    +0.000 C 
BRANCH  28  29
ATOM     29  N   UNL     1      44.394   3.523   9.337  0.00  0.00    +0.000 N 
ATOM     30  C   UNL     1      45.325   3.986   8.429  0.00  0.00    +0.000 C 
ATOM     31  O   UNL     1      45.737   5.145   8.434  0.00  0.00    +0.000 OA
ATOM     32  H   UNL     1      44.009   2.594   9.195  0.00  0.00    +0.000 HD
BRANCH  30  33
ATOM     33  C   UNL     1      45.871   2.916   7.467  0.00  0.00    +0.000 C 
ATOM     34  C   UNL     1      46.158   1.609   8.192  0.00  0.00    +0.000 C 
ATOM     35  C   UNL     1      47.238   0.986   7.348  0.00  0.00    +0.000 C 
ATOM     36  C   UNL     1      47.998   2.191   6.842  0.00  0.00    +0.000 C 
ATOM     37  O   UNL     1      47.083   3.296   6.801  0.00  0.00    +0.000 OA
ENDBRANCH  30  33
ENDBRANCH  28  29
ENDBRANCH  25  28
ENDBRANCH  21  22
ENDBRANCH   3  21
TORSDOF 8
ENDMDL
MODEL 2
REMARK VINA RESULT:    -7.763      2.130      2.976
REMARK INTER + INTRA:         -12.727
REMARK INTER:                 -12.191
REMARK INTRA:                  -0.537
REMARK UNBOUND:                -1.333
REMARK  Name = 
REMARK  8 active torsions:
REMARK  status: ('A' for Active; 'I' for Inactive)
REMARK    1  A    between atoms: C_2  and  C_3
REMARK    2  A    between atoms: C_3  and  N_4
REMARK    3  A    between atoms: C_5  and  C_7
REMARK    4  A    between atoms: N_17  and  C_18
REMARK    5  A    between atoms: C_18  and  C_19
REMARK    6  A    between atoms: C_22  and  C_23
REMARK    7  A    between atoms: C_23  and  N_24
REMARK    8  A    between atoms: C_25  and  C_27
REMARK                            x       y       z     vdW  Elec       q    Type
REMARK                         _______ _______ _______ _____ _____    ______ ____
ROOT
ATOM      1  O   UNL     1      49.406   6.531  14.645  0.00  0.00    +0.000 OA
ATOM      2  C   UNL     1      48.702   7.250  15.351  0.00  0.00    +0.000 C 
ATOM      3  N   UNL     1      47.995   8.329  14.875  0.00  0.00    +0.000 N 
ATOM      4  H   UNL     1      47.572   8.965  15.543  0.00  0.00    +0.000 HD
ENDROOT
BRANCH   2   5
ATOM      5  C   UNL     1      48.605   7.053  16.866  0.00  0.00    +0.000 C 
BRANCH   5   6
ATOM      6  N   UNL     1      49.736   6.300  17.368  0.00  0.00    +0.000 N 
ATOM      7  C   UNL     1      49.653   4.956  17.638  0.00  0.00    +0.000 C 
ATOM      8  O   UNL     1      48.627   4.320  17.429  0.00  0.00    +0.000 OA
ATOM      9  H   UNL     1      50.496   6.844  17.766  0.00  0.00    +0.000 HD
BRANCH   7  10
ATOM     10  C   UNL     1      50.874   4.313  18.143  0.00  0.00    +0.000 A 
ATOM     11  C   UNL     1      51.732   5.009  18.982  0.00  0.00    +0.000 A 
ATOM     12  S   UNL     1      53.106   4.111  19.453  0.00  0.00    +0.000 S 
ATOM     13  C   UNL     1      52.613   2.768  18.530  0.00  0.00    +0.000 A 
ATOM     14  N   UNL     1      53.373   1.641  18.464  0.00  0.00    +0.000 NA
ATOM     15  C   UNL     1      52.884   0.710  17.715  0.00  0.00    +0.000 A 
ATOM     16  N   UNL     1      51.699   0.801  17.033  0.00  0.00    +0.000 N 
ATOM     17  C   UNL     1      50.886   1.902  17.098  0.00  0.00    +0.000 A 
ATOM     18  O   UNL     1      49.793   1.926  16.537  0.00  0.00    +0.000 OA
ATOM     19  C   UNL     1      51.402   2.992  17.901  0.00  0.00    +0.000 A 
ATOM     20  H   UNL     1      51.354   0.027  16.483  0.00  0.00    +0.000 HD
ENDBRANCH   7  10
ENDBRANCH   5   6
ENDBRANCH   2   5
BRANCH   3  21
ATOM     21  C   UNL     1      47.984   8.697  13.474  0.00  0.00    +0.000 C 
BRANCH  21  22
ATOM     22  C   UNL     1      46.930   7.927  12.717  0.00  0.00    +0.000 A 
ATOM     23  C   UNL     1      45.571   8.212  12.902  0.00  0.00    +0.000 A 
ATOM     24  C   UNL     1      44.587   7.468  12.238  0.00  0.00    +0.000 A 
ATOM     25  C   UNL     1      44.937   6.414  11.384  0.00  0.00    +0.000 A 
ATOM     26  C   UNL     1      46.298   6.151  11.172  0.00  0.00    +0.000 A 
ATOM     27  C   UNL     1      47.283   6.891  11.841  0.00  0.00    +0.000 A 
BRANCH  25  28
ATOM     28  C   UNL     1      43.872   5.549  10.764  0.00  0.00    +0.000 C 
BRANCH  28  29
ATOM     29  N   UNL     1      44.298   4.870   9.564  0.00  0.00    +0.000 N 
ATOM     30  C   UNL     1      44.601   3.524   9.605  0.00  0.00    +0.000 C 
ATOM     31  O   UNL     1      44.455   2.840  10.616  0.00  0.00    +0.000 OA
ATOM     32  H   UNL     1      44.562   5.394   8.736  0.00  0.00    +0.000 HD
BRANCH  30  33
ATOM     33  C   UNL     1      45.053   2.927   8.260  0.00  0.00    +0.000 C 
ATOM     34  C   UNL     1      46.007   1.758   8.461  0.00  0.00    +0.000 C 
ATOM     35  C   UNL     1      46.819   1.762   7.193  0.00  0.00    +0.000 C 
ATOM     36  C   UNL     1      46.887   3.234   6.851  0.00  0.00    +0.000 C 
ATOM     37  O   UNL     1      45.720   3.863   7.401  0.00  0.00    +0.000 OA
ENDBRANCH  30  33
ENDBRANCH  28  29
ENDBRANCH  25  28
ENDBRANCH  21  22
ENDBRANCH   3  21
TORSDOF 8
ENDMDL
MODEL 3
REMARK VINA RESULT:    -7.696      3.148      4.476
REMARK INTER + INTRA:         -12.629
REMARK INTER:                 -11.283
REMARK INTRA:                  -1.346
REMARK UNBOUND:                -1.333
REMARK  Name = 
REMARK  8 active torsions:
REMARK  status: ('A' for Active; 'I' for Inactive)
REMARK    1  A    between atoms: C_2  and  C_3
REMARK    2  A    between atoms: C_3  and  N_4
REMARK    3  A    between atoms: C_5  and  C_7
REMARK    4  A    between atoms: N_17  and  C_18
REMARK    5  A    between atoms: C_18  and  C_19
REMARK    6  A    between atoms: C_22  and  C_23
REMARK    7  A    between atoms: C_23  and  N_24
REMARK    8  A    between atoms: C_25  and  C_27
REMARK                            x       y       z     vdW  Elec       q    Type
REMARK                         _______ _______ _______ _____ _____    ______ ____
ROOT
ATOM      1  O   UNL     1      49.470  10.112  15.007  0.00  0.00    +0.000 OA
ATOM      2  C   UNL     1      48.414   9.678  15.461  0.00  0.00    +0.000 C 
ATOM      3  N   UNL     1      47.401   9.169  14.682  0.00  0.00    +0.000 N 
ATOM      4  H   UNL     1      46.503   8.984  15.115  0.00  0.00    +0.000 HD
ENDROOT
BRANCH   2   5
ATOM      5  C   UNL     1      48.090   9.734  16.956  0.00  0.00    +0.000 C 
BRANCH   5   6
ATOM      6  N   UNL     1      48.026   8.404  17.525  0.00  0.00    +0.000 N 
ATOM      7  C   UNL     1      49.061   7.875  18.257  0.00  0.00    +0.000 C 
ATOM      8  O   UNL     1      50.075   8.519  18.497  0.00  0.00    +0.000 OA
ATOM      9  H   UNL     1      47.318   7.784  17.141  0.00  0.00    +0.000 HD
BRANCH   7  10
ATOM     10  C   UNL     1      48.867   6.515  18.778  0.00  0.00    +0.000 A 
ATOM     11  C   UNL     1      49.015   6.261  20.135  0.00  0.00    +0.000 A 
ATOM     12  S   UNL     1      48.770   4.624  20.555  0.00  0.00    +0.000 S 
ATOM     13  C   UNL     1      48.482   4.193  18.933  0.00  0.00    +0.000 A 
ATOM     14  N   UNL     1      48.235   2.902  18.580  0.00  0.00    +0.000 NA
ATOM     15  C   UNL     1      48.051   2.720  17.315  0.00  0.00    +0.000 A 
ATOM     16  N   UNL     1      48.085   3.714  16.373  0.00  0.00    +0.000 N 
ATOM     17  C   UNL     1      48.296   5.032  16.687  0.00  0.00    +0.000 A 
ATOM     18  O   UNL     1      48.244   5.911  15.830  0.00  0.00    +0.000 OA
ATOM     19  C   UNL     1      48.540   5.288  18.091  0.00  0.00    +0.000 A 
ATOM     20  H   UNL     1      47.906   3.514  15.398  0.00  0.00    +0.000 HD
ENDBRANCH   7  10
ENDBRANCH   5   6
ENDBRANCH   2   5
BRANCH   3  21
ATOM     21  C   UNL     1      47.506   9.061  13.242  0.00  0.00    +0.000 C 
BRANCH  21  22
ATOM     22  C   UNL     1      46.471   8.112  12.689  0.00  0.00    +0.000 A 
ATOM     23  C   UNL     1      46.644   6.726  12.802  0.00  0.00    +0.000 A 
ATOM     24  C   UNL     1      45.711   5.841  12.249  0.00  0.00    +0.000 A 
ATOM     25  C   UNL     1      44.590   6.318  11.559  0.00  0.00    +0.000 A 
ATOM     26  C   UNL     1      44.397   7.705  11.474  0.00  0.00    +0.000 A 
ATOM     27  C   UNL     1      45.335   8.592  12.023  0.00  0.00    +0.000 A 
BRANCH  25  28
ATOM     28  C   UNL     1      43.653   5.360  10.870  0.00  0.00    +0.000 C 
BRANCH  28  29
ATOM     29  N   UNL     1      44.194   4.782   9.664  0.00  0.00    +0.000 N 
ATOM     30  C   UNL     1      44.299   3.410   9.545  0.00  0.00    +0.000 C 
ATOM     31  O   UNL     1      43.879   2.635  10.403  0.00  0.00    +0.000 OA
ATOM     32  H   UNL     1      44.672   5.358   8.980  0.00  0.00    +0.000 HD
BRANCH  30  33
ATOM     33  C   UNL     1      44.903   2.926   8.215  0.00  0.00    +0.000 C 
ATOM     34  C   UNL     1      45.922   1.817   8.435  0.00  0.00    +0.000 C 
ATOM     35  C   UNL     1      46.832   1.953   7.243  0.00  0.00    +0.000 C 
ATOM     36  C   UNL     1      46.816   3.443   6.985  0.00  0.00    +0.000 C 
ATOM     37  O   UNL     1      45.565   3.955   7.466  0.00  0.00    +0.000 OA
ENDBRANCH  30  33
ENDBRANCH  28  29
ENDBRANCH  25  28
ENDBRANCH  21  22
ENDBRANCH   3  21
TORSDOF 8
ENDMDL
MODEL 4
REMARK VINA RESULT:    -7.532      1.320      2.036
REMARK INTER + INTRA:         -12.388
REMARK INTER:                 -11.469
REMARK INTRA:                  -0.919
REMARK UNBOUND:                -1.333
REMARK  Name = 
REMARK  8 active torsions:
REMARK  status: ('A' for Active; 'I' for Inactive)
REMARK    1  A    between atoms: C_2  and  C_3
REMARK    2  A    between atoms: C_3  and  N_4
REMARK    3  A    between atoms: C_5  and  C_7
REMARK    4  A    between atoms: N_17  and  C_18
REMARK    5  A    between atoms: C_18  and  C_19
REMARK    6  A    between atoms: C_22  and  C_23
REMARK    7  A    between atoms: C_23  and  N_24
REMARK    8  A    between atoms: C_25  and  C_27
REMARK                            x       y       z     vdW  Elec       q    Type
REMARK                         _______ _______ _______ _____ _____    ______ ____
ROOT
ATOM      1  O   UNL     1      47.338   5.455  17.301  0.00  0.00    +0.000 OA
ATOM      2  C   UNL     1      47.807   4.573  16.585  0.00  0.00    +0.000 C 
ATOM      3  N   UNL     1      47.908   4.677  15.217  0.00  0.00    +0.000 N 
ATOM      4  H   UNL     1      48.153   3.848  14.685  0.00  0.00    +0.000 HD
ENDROOT
BRANCH   2   5
ATOM      5  C   UNL     1      48.261   3.225  17.149  0.00  0.00    +0.000 C 
BRANCH   5   6
ATOM      6  N   UNL     1      49.706   3.129  17.171  0.00  0.00    +0.000 N 
ATOM      7  C   UNL     1      50.461   3.739  18.142  0.00  0.00    +0.000 C 
ATOM      8  O   UNL     1      49.945   4.365  19.061  0.00  0.00    +0.000 OA
ATOM      9  H   UNL     1      50.149   2.831  16.307  0.00  0.00    +0.000 HD
BRANCH   7  10
ATOM     10  C   UNL     1      51.917   3.562  18.048  0.00  0.00    +0.000 A 
ATOM     11  C   UNL     1      52.761   4.657  18.162  0.00  0.00    +0.000 A 
ATOM     12  S   UNL     1      54.415   4.265  18.010  0.00  0.00    +0.000 S 
ATOM     13  C   UNL     1      54.059   2.619  17.760  0.00  0.00    +0.000 A 
ATOM     14  N   UNL     1      55.046   1.712  17.526  0.00  0.00    +0.000 NA
ATOM     15  C   UNL     1      54.629   0.504  17.339  0.00  0.00    +0.000 A 
ATOM     16  N   UNL     1      53.313   0.122  17.374  0.00  0.00    +0.000 N 
ATOM     17  C   UNL     1      52.290   0.994  17.640  0.00  0.00    +0.000 A 
ATOM     18  O   UNL     1      51.128   0.608  17.739  0.00  0.00    +0.000 OA
ATOM     19  C   UNL     1      52.700   2.370  17.826  0.00  0.00    +0.000 A 
ATOM     20  H   UNL     1      53.050  -0.846  17.246  0.00  0.00    +0.000 HD
ENDBRANCH   7  10
ENDBRANCH   5   6
ENDBRANCH   2   5
BRANCH   3  21
ATOM     21  C   UNL     1      47.503   5.864  14.493  0.00  0.00    +0.000 C 
BRANCH  21  22
ATOM     22  C   UNL     1      46.466   5.538  13.447  0.00  0.00    +0.000 A 
ATOM     23  C   UNL     1      45.983   4.230  13.307  0.00  0.00    +0.000 A 
ATOM     24  C   UNL     1      45.057   3.913  12.306  0.00  0.00    +0.000 A 
ATOM     25  C   UNL     1      44.601   4.890  11.413  0.00  0.00    +0.000 A 
ATOM     26  C   UNL     1      45.057   6.206  11.573  0.00  0.00    +0.000 A 
ATOM     27  C   UNL     1      45.989   6.524  12.572  0.00  0.00    +0.000 A 
BRANCH  25  28
ATOM     28  C   UNL     1      43.693   4.516  10.271  0.00  0.00    +0.000 C 
BRANCH  28  29
ATOM     29  N   UNL     1      44.273   3.565   9.353  0.00  0.00    +0.000 N 
ATOM     30  C   UNL     1      45.235   3.976   8.452  0.00  0.00    +0.000 C 
ATOM     31  O   UNL     1      45.686   5.119   8.437  0.00  0.00    +0.000 OA
ATOM     32  H   UNL     1      43.861   2.647   9.225  0.00  0.00    +0.000 HD
BRANCH  30  33
ATOM     33  C   UNL     1      45.762   2.865   7.525  0.00  0.00    +0.000 C 
ATOM     34  C   UNL     1      45.970   1.560   8.281  0.00  0.00    +0.000 C 
ATOM     35  C   UNL     1      47.046   0.875   7.481  0.00  0.00    +0.000 C 
ATOM     36  C   UNL     1      47.873   2.037   6.978  0.00  0.00    +0.000 C 
ATOM     37  O   UNL     1      47.010   3.180   6.890  0.00  0.00    +0.000 OA
ENDBRANCH  30  33
ENDBRANCH  28  29
ENDBRANCH  25  28
ENDBRANCH  21  22
ENDBRANCH   3  21
TORSDOF 8
ENDMDL
MODEL 5
REMARK VINA RESULT:    -7.442      2.543      3.633
REMARK INTER + INTRA:         -12.256
REMARK INTER:                 -11.325
REMARK INTRA:                  -0.931
REMARK UNBOUND:                -1.333
REMARK  Name = 
REMARK  8 active torsions:
REMARK  status: ('A' for Active; 'I' for Inactive)
REMARK    1  A    between atoms: C_2  and  C_3
REMARK    2  A    between atoms: C_3  and  N_4
REMARK    3  A    between atoms: C_5  and  C_7
REMARK    4  A    between atoms: N_17  and  C_18
REMARK    5  A    between atoms: C_18  and  C_19
REMARK    6  A    between atoms: C_22  and  C_23
REMARK    7  A    between atoms: C_23  and  N_24
REMARK    8  A    between atoms: C_25  and  C_27
REMARK                            x       y       z     vdW  Elec       q    Type
REMARK                         _______ _______ _______ _____ _____    ______ ____
ROOT
ATOM      1  O   UNL     1      49.232   9.933  14.557  0.00  0.00    +0.000 OA
ATOM      2  C   UNL     1      48.463   9.163  15.131  0.00  0.00    +0.000 C 
ATOM      3  N   UNL     1      47.230   8.808  14.636  0.00  0.00    +0.000 N 
ATOM      4  H   UNL     1      46.593   8.301  15.241  0.00  0.00    +0.000 HD
ENDROOT
BRANCH   2   5
ATOM      5  C   UNL     1      48.782   8.576  16.507  0.00  0.00    +0.000 C 
BRANCH   5   6
ATOM      6  N   UNL     1      48.834   7.130  16.459  0.00  0.00    +0.000 N 
ATOM      7  C   UNL     1      49.068   6.372  17.580  0.00  0.00    +0.000 C 
ATOM      8  O   UNL     1      49.205   6.883  18.686  0.00  0.00    +0.000 OA
ATOM      9  H   UNL     1      48.964   6.716  15.540  0.00  0.00    +0.000 HD
BRANCH   7  10
ATOM     10  C   UNL     1      49.096   4.915  17.392  0.00  0.00    +0.000 A 
ATOM     11  C   UNL     1      47.925   4.226  17.111  0.00  0.00    +0.000 A 
ATOM     12  S   UNL     1      48.146   2.541  16.944  0.00  0.00    +0.000 S 
ATOM     13  C   UNL     1      49.812   2.671  17.266  0.00  0.00    +0.000 A 
ATOM     14  N   UNL     1      50.609   1.569  17.311  0.00  0.00    +0.000 NA
ATOM     15  C   UNL     1      51.847   1.816  17.582  0.00  0.00    +0.000 A 
ATOM     16  N   UNL     1      52.361   3.067  17.805  0.00  0.00    +0.000 N 
ATOM     17  C   UNL     1      51.603   4.207  17.736  0.00  0.00    +0.000 A 
ATOM     18  O   UNL     1      52.105   5.320  17.865  0.00  0.00    +0.000 OA
ATOM     19  C   UNL     1      50.197   3.984  17.466  0.00  0.00    +0.000 A 
ATOM     20  H   UNL     1      53.346   3.200  17.986  0.00  0.00    +0.000 HD
ENDBRANCH   7  10
ENDBRANCH   5   6
ENDBRANCH   2   5
BRANCH   3  21
ATOM     21  C   UNL     1      46.736   9.284  13.360  0.00  0.00    +0.000 C 
BRANCH  21  22
ATOM     22  C   UNL     1      45.928   8.221  12.658  0.00  0.00    +0.000 A 
ATOM     23  C   UNL     1      44.902   8.577  11.772  0.00  0.00    +0.000 A 
ATOM     24  C   UNL     1      44.117   7.595  11.155  0.00  0.00    +0.000 A 
ATOM     25  C   UNL     1      44.330   6.236  11.417  0.00  0.00    +0.000 A 
ATOM     26  C   UNL     1      45.378   5.877  12.276  0.00  0.00    +0.000 A 
ATOM     27  C   UNL     1      46.161   6.860  12.899  0.00  0.00    +0.000 A 
BRANCH  25  28
ATOM     28  C   UNL     1      43.409   5.194  10.837  0.00  0.00    +0.000 C 
BRANCH  28  29
ATOM     29  N   UNL     1      43.881   4.625   9.598  0.00  0.00    +0.000 N 
ATOM     30  C   UNL     1      44.656   3.482   9.615  0.00  0.00    +0.000 C 
ATOM     31  O   UNL     1      44.911   2.869  10.650  0.00  0.00    +0.000 OA
ATOM     32  H   UNL     1      43.817   5.145   8.729  0.00  0.00    +0.000 HD
BRANCH  30  33
ATOM     33  C   UNL     1      45.101   2.988   8.227  0.00  0.00    +0.000 C 
ATOM     34  C   UNL     1      46.025   1.783   8.335  0.00  0.00    +0.000 C 
ATOM     35  C   UNL     1      46.844   1.873   7.075  0.00  0.00    +0.000 C 
ATOM     36  C   UNL     1      46.949   3.365   6.856  0.00  0.00    +0.000 C 
ATOM     37  O   UNL     1      45.795   3.975   7.452  0.00  0.00    +0.000 OA
ENDBRANCH  30  33
ENDBRANCH  28  29
ENDBRANCH  25  28
ENDBRANCH  21  22
ENDBRANCH   3  21
TORSDOF 8
ENDMDL
MODEL 6
REMARK VINA RESULT:    -7.423      2.887      4.490
REMARK INTER + INTRA:         -12.227
REMARK INTER:                 -10.619
REMARK INTRA:                  -1.608
REMARK UNBOUND:                -1.333
REMARK  Name = 
REMARK  8 active torsions:
REMARK  status: ('A' for Active; 'I' for Inactive)
REMARK    1  A    between atoms: C_2  and  C_3
REMARK    2  A    between atoms: C_3  and  N_4
REMARK    3  A    between atoms: C_5  and  C_7
REMARK    4  A    between atoms: N_17  and  C_18
REMARK    5  A    between atoms: C_18  and  C_19
REMARK    6  A    between atoms: C_22  and  C_23
REMARK    7  A    between atoms: C_23  and  N_24
REMARK    8  A    between atoms: C_25  and  C_27
REMARK                            x       y       z     vdW  Elec       q    Type
REMARK                         _______ _______ _______ _____ _____    ______ ____
ROOT
ATOM      1  O   UNL     1      51.082   9.764  12.572  0.00  0.00    +0.000 OA
ATOM      2  C   UNL     1      50.807   9.227  13.643  0.00  0.00    +0.000 C 
ATOM      3  N   UNL     1      49.540   9.201  14.179  0.00  0.00    +0.000 N 
ATOM      4  H   UNL     1      49.425   8.884  15.136  0.00  0.00    +0.000 HD
ENDROOT
BRANCH   2   5
ATOM      5  C   UNL     1      51.879   8.593  14.532  0.00  0.00    +0.000 C 
BRANCH   5   6
ATOM      6  N   UNL     1      51.392   7.376  15.149  0.00  0.00    +0.000 N 
ATOM      7  C   UNL     1      51.758   7.009  16.421  0.00  0.00    +0.000 C 
ATOM      8  O   UNL     1      52.485   7.715  17.111  0.00  0.00    +0.000 OA
ATOM      9  H   UNL     1      51.000   6.680  14.522  0.00  0.00    +0.000 HD
BRANCH   7  10
ATOM     10  C   UNL     1      51.193   5.752  16.928  0.00  0.00    +0.000 A 
ATOM     11  C   UNL     1      52.022   4.792  17.492  0.00  0.00    +0.000 A 
ATOM     12  S   UNL     1      51.195   3.391  18.008  0.00  0.00    +0.000 S 
ATOM     13  C   UNL     1      49.701   4.007  17.473  0.00  0.00    +0.000 A 
ATOM     14  N   UNL     1      48.557   3.279  17.585  0.00  0.00    +0.000 NA
ATOM     15  C   UNL     1      47.503   3.866  17.123  0.00  0.00    +0.000 A 
ATOM     16  N   UNL     1      47.490   5.118  16.566  0.00  0.00    +0.000 N 
ATOM     17  C   UNL     1      48.611   5.899  16.464  0.00  0.00    +0.000 A 
ATOM     18  O   UNL     1      48.555   7.047  16.030  0.00  0.00    +0.000 OA
ATOM     19  C   UNL     1      49.830   5.277  16.939  0.00  0.00    +0.000 A 
ATOM     20  H   UNL     1      46.627   5.536  16.246  0.00  0.00    +0.000 HD
ENDBRANCH   7  10
ENDBRANCH   5   6
ENDBRANCH   2   5
BRANCH   3  21
ATOM     21  C   UNL     1      48.396   9.775  13.502  0.00  0.00    +0.000 C 
BRANCH  21  22
ATOM     22  C   UNL     1      47.487   8.700  12.961  0.00  0.00    +0.000 A 
ATOM     23  C   UNL     1      46.100   8.895  12.919  0.00  0.00    +0.000 A 
ATOM     24  C   UNL     1      45.248   7.882  12.463  0.00  0.00    +0.000 A 
ATOM     25  C   UNL     1      45.759   6.646  12.049  0.00  0.00    +0.000 A 
ATOM     26  C   UNL     1      47.149   6.461  12.056  0.00  0.00    +0.000 A 
ATOM     27  C   UNL     1      48.002   7.473  12.519  0.00  0.00    +0.000 A 
BRANCH  25  28
ATOM     28  C   UNL     1      44.828   5.524  11.667  0.00  0.00    +0.000 C 
BRANCH  28  29
ATOM     29  N   UNL     1      45.128   4.929  10.387  0.00  0.00    +0.000 N 
ATOM     30  C   UNL     1      44.400   3.843   9.944  0.00  0.00    +0.000 C 
ATOM     31  O   UNL     1      43.440   3.389  10.565  0.00  0.00    +0.000 OA
ATOM     32  H   UNL     1      45.979   5.168   9.888  0.00  0.00    +0.000 HD
BRANCH  30  33
ATOM     33  C   UNL     1      44.829   3.299   8.570  0.00  0.00    +0.000 C 
ATOM     34  C   UNL     1      45.722   2.074   8.708  0.00  0.00    +0.000 C 
ATOM     35  C   UNL     1      46.540   2.108   7.445  0.00  0.00    +0.000 C 
ATOM     36  C   UNL     1      46.684   3.591   7.185  0.00  0.00    +0.000 C 
ATOM     37  O   UNL     1      45.547   4.246   7.767  0.00  0.00    +0.000 OA
ENDBRANCH  30  33
ENDBRANCH  28  29
ENDBRANCH  25  28
ENDBRANCH  21  22
ENDBRANCH   3  21
TORSDOF 8
ENDMDL
MODEL 7
REMARK VINA RESULT:    -7.340      1.875      2.416
REMARK INTER + INTRA:         -12.106
REMARK INTER:                 -11.908
REMARK INTRA:                  -0.198
REMARK UNBOUND:                -1.333
REMARK  Name = 
REMARK  8 active torsions:
REMARK  status: ('A' for Active; 'I' for Inactive)
REMARK    1  A    between atoms: C_2  and  C_3
REMARK    2  A    between atoms: C_3  and  N_4
REMARK    3  A    between atoms: C_5  and  C_7
REMARK    4  A    between atoms: N_17  and  C_18
REMARK    5  A    between atoms: C_18  and  C_19
REMARK    6  A    between atoms: C_22  and  C_23
REMARK    7  A    between atoms: C_23  and  N_24
REMARK    8  A    between atoms: C_25  and  C_27
REMARK                            x       y       z     vdW  Elec       q    Type
REMARK                         _______ _______ _______ _____ _____    ______ ____
ROOT
ATOM      1  O   UNL     1      47.778   3.427  14.778  0.00  0.00    +0.000 OA
ATOM      2  C   UNL     1      47.497   4.273  15.624  0.00  0.00    +0.000 C 
ATOM      3  N   UNL     1      47.500   5.627  15.379  0.00  0.00    +0.000 N 
ATOM      4  H   UNL     1      47.417   6.262  16.165  0.00  0.00    +0.000 HD
ENDROOT
BRANCH   2   5
ATOM      5  C   UNL     1      47.185   3.898  17.074  0.00  0.00    +0.000 C 
BRANCH   5   6
ATOM      6  N   UNL     1      48.392   3.856  17.874  0.00  0.00    +0.000 N 
ATOM      7  C   UNL     1      48.974   4.996  18.371  0.00  0.00    +0.000 C 
ATOM      8  O   UNL     1      48.478   6.103  18.195  0.00  0.00    +0.000 OA
ATOM      9  H   UNL     1      48.935   2.999  17.824  0.00  0.00    +0.000 HD
BRANCH   7  10
ATOM     10  C   UNL     1      50.196   4.814  19.167  0.00  0.00    +0.000 A 
ATOM     11  C   UNL     1      50.365   5.512  20.355  0.00  0.00    +0.000 A 
ATOM     12  S   UNL     1      51.849   5.190  21.133  0.00  0.00    +0.000 S 
ATOM     13  C   UNL     1      52.330   4.123  19.897  0.00  0.00    +0.000 A 
ATOM     14  N   UNL     1      53.544   3.510  19.927  0.00  0.00    +0.000 NA
ATOM     15  C   UNL     1      53.781   2.742  18.916  0.00  0.00    +0.000 A 
ATOM     16  N   UNL     1      52.908   2.525  17.882  0.00  0.00    +0.000 N 
ATOM     17  C   UNL     1      51.662   3.094  17.828  0.00  0.00    +0.000 A 
ATOM     18  O   UNL     1      50.872   2.822  16.928  0.00  0.00    +0.000 OA
ATOM     19  C   UNL     1      51.357   3.992  18.923  0.00  0.00    +0.000 A 
ATOM     20  H   UNL     1      53.139   1.890  17.131  0.00  0.00    +0.000 HD
ENDBRANCH   7  10
ENDBRANCH   5   6
ENDBRANCH   2   5
BRANCH   3  21
ATOM     21  C   UNL     1      47.799   6.181  14.075  0.00  0.00    +0.000 C 
BRANCH  21  22
ATOM     22  C   UNL     1      46.672   5.930  13.104  0.00  0.00    +0.000 A 
ATOM     23  C   UNL     1      45.526   5.234  13.508  0.00  0.00    +0.000 A 
ATOM     24  C   UNL     1      44.499   4.955  12.598  0.00  0.00    +0.000 A 
ATOM     25  C   UNL     1      44.598   5.355  11.260  0.00  0.00    +0.000 A 
ATOM     26  C   UNL     1      45.729   6.082  10.861  0.00  0.00    +0.000 A 
ATOM     27  C   UNL     1      46.760   6.356  11.771  0.00  0.00    +0.000 A 
BRANCH  25  28
ATOM     28  C   UNL     1      43.541   4.954  10.263  0.00  0.00    +0.000 C 
BRANCH  28  29
ATOM     29  N   UNL     1      44.072   4.362   9.059  0.00  0.00    +0.000 N 
ATOM     30  C   UNL     1      44.755   3.164   9.123  0.00  0.00    +0.000 C 
ATOM     31  O   UNL     1      44.877   2.524  10.166  0.00  0.00    +0.000 OA
ATOM     32  H   UNL     1      44.119   4.893   8.196  0.00  0.00    +0.000 HD
BRANCH  30  33
ATOM     33  C   UNL     1      45.277   2.649   7.770  0.00  0.00    +0.000 C 
ATOM     34  C   UNL     1      46.324   1.560   7.953  0.00  0.00    +0.000 C 
ATOM     35  C   UNL     1      47.152   1.673   6.701  0.00  0.00    +0.000 C 
ATOM     36  C   UNL     1      47.099   3.155   6.403  0.00  0.00    +0.000 C 
ATOM     37  O   UNL     1      45.875   3.665   6.951  0.00  0.00    +0.000 OA
ENDBRANCH  30  33
ENDBRANCH  28  29
ENDBRANCH  25  28
ENDBRANCH  21  22
ENDBRANCH   3  21
TORSDOF 8
ENDMDL
MODEL 8
REMARK VINA RESULT:    -7.055      4.793      8.253
REMARK INTER + INTRA:         -11.688
REMARK INTER:                 -10.334
REMARK INTRA:                  -1.354
REMARK UNBOUND:                -1.333
REMARK  Name = 
REMARK  8 active torsions:
REMARK  status: ('A' for Active; 'I' for Inactive)
REMARK    1  A    between atoms: C_2  and  C_3
REMARK    2  A    between atoms: C_3  and  N_4
REMARK    3  A    between atoms: C_5  and  C_7
REMARK    4  A    between atoms: N_17  and  C_18
REMARK    5  A    between atoms: C_18  and  C_19
REMARK    6  A    between atoms: C_22  and  C_23
REMARK    7  A    between atoms: C_23  and  N_24
REMARK    8  A    between atoms: C_25  and  C_27
REMARK                            x       y       z     vdW  Elec       q    Type
REMARK                         _______ _______ _______ _____ _____    ______ ____
ROOT
ATOM      1  O   UNL     1      49.663   2.981  16.731  0.00  0.00    +0.000 OA
ATOM      2  C   UNL     1      48.798   3.837  16.905  0.00  0.00    +0.000 C 
ATOM      3  N   UNL     1      49.058   5.095  17.393  0.00  0.00    +0.000 N 
ATOM      4  H   UNL     1      48.275   5.683  17.660  0.00  0.00    +0.000 HD
ENDROOT
BRANCH   2   5
ATOM      5  C   UNL     1      47.315   3.551  16.659  0.00  0.00    +0.000 C 
BRANCH   5   6
ATOM      6  N   UNL     1      46.756   4.481  15.699  0.00  0.00    +0.000 N 
ATOM      7  C   UNL     1      46.779   4.233  14.348  0.00  0.00    +0.000 C 
ATOM      8  O   UNL     1      47.238   3.192  13.892  0.00  0.00    +0.000 OA
ATOM      9  H   UNL     1      46.599   5.428  16.030  0.00  0.00    +0.000 HD
BRANCH   7  10
ATOM     10  C   UNL     1      46.179   5.258  13.483  0.00  0.00    +0.000 A 
ATOM     11  C   UNL     1      46.849   6.450  13.247  0.00  0.00    +0.000 A 
ATOM     12  S   UNL     1      45.993   7.527  12.236  0.00  0.00    +0.000 S 
ATOM     13  C   UNL     1      44.685   6.447  12.099  0.00  0.00    +0.000 A 
ATOM     14  N   UNL     1      43.575   6.772  11.382  0.00  0.00    +0.000 NA
ATOM     15  C   UNL     1      42.656   5.865  11.378  0.00  0.00    +0.000 A 
ATOM     16  N   UNL     1      42.752   4.658  12.021  0.00  0.00    +0.000 N 
ATOM     17  C   UNL     1      43.864   4.275  12.724  0.00  0.00    +0.000 A 
ATOM     18  O   UNL     1      43.951   3.157  13.226  0.00  0.00    +0.000 OA
ATOM     19  C   UNL     1      44.914   5.270  12.788  0.00  0.00    +0.000 A 
ATOM     20  H   UNL     1      42.009   3.975  11.958  0.00  0.00    +0.000 HD
ENDBRANCH   7  10
ENDBRANCH   5   6
ENDBRANCH   2   5
BRANCH   3  21
ATOM     21  C   UNL     1      50.397   5.545  17.714  0.00  0.00    +0.000 C 
BRANCH  21  22
ATOM     22  C   UNL     1      50.958   6.414  16.616  0.00  0.00    +0.000 A 
ATOM     23  C   UNL     1      50.107   7.018  15.682  0.00  0.00    +0.000 A 
ATOM     24  C   UNL     1      50.627   7.786  14.632  0.00  0.00    +0.000 A 
ATOM     25  C   UNL     1      52.008   7.959  14.484  0.00  0.00    +0.000 A 
ATOM     26  C   UNL     1      52.860   7.384  15.439  0.00  0.00    +0.000 A 
ATOM     27  C   UNL     1      52.340   6.610  16.486  0.00  0.00    +0.000 A 
BRANCH  25  28
ATOM     28  C   UNL     1      52.562   8.691  13.290  0.00  0.00    +0.000 C 
BRANCH  28  29
ATOM     29  N   UNL     1      52.724   7.860  12.121  0.00  0.00    +0.000 N 
ATOM     30  C   UNL     1      51.990   8.123  10.981  0.00  0.00    +0.000 C 
ATOM     31  O   UNL     1      51.242   9.094  10.883  0.00  0.00    +0.000 OA
ATOM     32  H   UNL     1      53.221   6.977  12.175  0.00  0.00    +0.000 HD
BRANCH  30  33
ATOM     33  C   UNL     1      52.250   7.156   9.813  0.00  0.00    +0.000 C 
ATOM     34  C   UNL     1      53.333   6.142  10.158  0.00  0.00    +0.000 C 
ATOM     35  C   UNL     1      53.901   5.784   8.811  0.00  0.00    +0.000 C 
ATOM     36  C   UNL     1      53.765   7.078   8.041  0.00  0.00    +0.000 C 
ATOM     37  O   UNL     1      52.661   7.803   8.600  0.00  0.00    +0.000 OA
ENDBRANCH  30  33
ENDBRANCH  28  29
ENDBRANCH  25  28
ENDBRANCH  21  22
ENDBRANCH   3  21
TORSDOF 8
ENDMDL
MODEL 9
REMARK VINA RESULT:    -6.936      3.530      4.764
REMARK INTER + INTRA:         -11.514
REMARK INTER:                 -10.242
REMARK INTRA:                  -1.271
REMARK UNBOUND:                -1.333
REMARK  Name = 
REMARK  8 active torsions:
REMARK  status: ('A' for Active; 'I' for Inactive)
REMARK    1  A    between atoms: C_2  and  C_3
REMARK    2  A    between atoms: C_3  and  N_4
REMARK    3  A    between atoms: C_5  and  C_7
REMARK    4  A    between atoms: N_17  and  C_18
REMARK    5  A    between atoms: C_18  and  C_19
REMARK    6  A    between atoms: C_22  and  C_23
REMARK    7  A    between atoms: C_23  and  N_24
REMARK    8  A    between atoms: C_25  and  C_27
REMARK                            x       y       z     vdW  Elec       q    Type
REMARK                         _______ _______ _______ _____ _____    ______ ____
ROOT
ATOM      1  O   UNL     1      48.914   8.308  11.924  0.00  0.00    +0.000 OA
ATOM      2  C   UNL     1      48.831   8.074  13.128  0.00  0.00    +0.000 C 
ATOM      3  N   UNL     1      47.735   8.395  13.893  0.00  0.00    +0.000 N 
ATOM      4  H   UNL     1      47.808   8.317  14.902  0.00  0.00    +0.000 HD
ENDROOT
BRANCH   2   5
ATOM      5  C   UNL     1      49.990   7.459  13.915  0.00  0.00    +0.000 C 
BRANCH   5   6
ATOM      6  N   UNL     1      49.687   7.402  15.331  0.00  0.00    +0.000 N 
ATOM      7  C   UNL     1      48.903   6.411  15.868  0.00  0.00    +0.000 C 
ATOM      8  O   UNL     1      48.453   5.502  15.181  0.00  0.00    +0.000 OA
ATOM      9  H   UNL     1      49.843   8.257  15.857  0.00  0.00    +0.000 HD
BRANCH   7  10
ATOM     10  C   UNL     1      48.674   6.471  17.318  0.00  0.00    +0.000 A 
ATOM     11  C   UNL     1      48.830   5.333  18.096  0.00  0.00    +0.000 A 
ATOM     12  S   UNL     1      48.505   5.586  19.753  0.00  0.00    +0.000 S 
ATOM     13  C   UNL     1      48.120   7.222  19.484  0.00  0.00    +0.000 A 
ATOM     14  N   UNL     1      47.715   8.027  20.504  0.00  0.00    +0.000 NA
ATOM     15  C   UNL     1      47.441   9.239  20.152  0.00  0.00    +0.000 A 
ATOM     16  N   UNL     1      47.543   9.719  18.872  0.00  0.00    +0.000 N 
ATOM     17  C   UNL     1      47.979   8.954  17.822  0.00  0.00    +0.000 A 
ATOM     18  O   UNL     1      48.133   9.432  16.700  0.00  0.00    +0.000 OA
ATOM     19  C   UNL     1      48.270   7.575  18.156  0.00  0.00    +0.000 A 
ATOM     20  H   UNL     1      47.341  10.687  18.662  0.00  0.00    +0.000 HD
ENDBRANCH   7  10
ENDBRANCH   5   6
ENDBRANCH   2   5
BRANCH   3  21
ATOM     21  C   UNL     1      46.549   9.011  13.335  0.00  0.00    +0.000 C 
BRANCH  21  22
ATOM     22  C   UNL     1      45.654   7.983  12.688  0.00  0.00    +0.000 A 
ATOM     23  C   UNL     1      45.711   6.640  13.082  0.00  0.00    +0.000 A 
ATOM     24  C   UNL     1      44.918   5.674  12.451  0.00  0.00    +0.000 A 
ATOM     25  C   UNL     1      44.058   6.024  11.403  0.00  0.00    +0.000 A 
ATOM     26  C   UNL     1      43.973   7.373  11.030  0.00  0.00    +0.000 A 
ATOM     27  C   UNL     1      44.772   8.340  11.658  0.00  0.00    +0.000 A 
BRANCH  25  28
ATOM     28  C   UNL     1      43.293   4.962  10.656  0.00  0.00    +0.000 C 
BRANCH  28  29
ATOM     29  N   UNL     1      43.955   4.502   9.459  0.00  0.00    +0.000 N 
ATOM     30  C   UNL     1      44.413   3.202   9.381  0.00  0.00    +0.000 C 
ATOM     31  O   UNL     1      44.219   2.375  10.270  0.00  0.00    +0.000 OA
ATOM     32  H   UNL     1      44.260   5.159   8.747  0.00  0.00    +0.000 HD
BRANCH  30  33
ATOM     33  C   UNL     1      45.109   2.845   8.055  0.00  0.00    +0.000 C 
ATOM     34  C   UNL     1      46.086   1.691   8.232  0.00  0.00    +0.000 C 
ATOM     35  C   UNL     1      47.088   1.927   7.133  0.00  0.00    +0.000 C 
ATOM     36  C   UNL     1      47.122   3.436   7.037  0.00  0.00    +0.000 C 
ATOM     37  O   UNL     1      45.847   3.929   7.474  0.00  0.00    +0.000 OA
ENDBRANCH  30  33
ENDBRANCH  28  29
ENDBRANCH  25  28
ENDBRANCH  21  22
ENDBRANCH   3  21
TORSDOF 8
ENDMDL
