MODEL 1
REMARK VINA RESULT:    -8.264      0.000      0.000
REMARK INTER + INTRA:         -10.890
REMARK INTER:                 -10.197
REMARK INTRA:                  -0.693
REMARK UNBOUND:                -0.693
REMARK  Name = 
REMARK  6 active torsions:
REMARK  status: ('A' for Active; 'I' for Inactive)
REMARK    1  A    between atoms: C_1  and  C_2
REMARK    2  A    between atoms: C_2  and  C_3
REMARK    3  A    between atoms: C_2  and  C_4
REMARK    4  A    between atoms: C_2  and  C_15
REMARK    5  A    between atoms: C_4  and  N_5
REMARK    6  A    between atoms: C_9  and  C_10
REMARK                            x       y       z     vdW  Elec       q    Type
REMARK                         _______ _______ _______ _____ _____    ______ ____
ROOT
ATOM      1  N   UNL     1      44.054   3.032  10.189  0.00  0.00    +0.000 N 
ATOM      2  C   UNL     1      44.962   2.877   9.126  0.00  0.00    +0.000 A 
ATOM      3  C   UNL     1      45.430   1.598   8.832  0.00  0.00    +0.000 A 
ATOM      4  C   UNL     1      46.350   1.423   7.796  0.00  0.00    +0.000 A 
ATOM      5  C   UNL     1      46.794   2.529   7.070  0.00  0.00    +0.000 A 
ATOM      6  C   UNL     1      46.284   3.763   7.436  0.00  0.00    +0.000 A 
ATOM      7  N   UNL     1      45.394   3.954   8.440  0.00  0.00    +0.000 NA
ATOM      8  H   UNL     1      43.264   2.410  10.038  0.00  0.00    +0.000 HD
ENDROOT
BRANCH   5   9
ATOM      9  C   UNL     1      47.770   2.340   5.971  0.00  0.00    +0.000 C 
ATOM     10  N   UNL     1      47.731   3.179   4.891  0.00  0.00    +0.000 N 
ATOM     11  O   UNL     1      48.606   1.443   6.015  0.00  0.00    +0.000 OA
ATOM     12  H   UNL     1      47.089   3.941   4.750  0.00  0.00    +0.000 HD
ATOM     13  H   UNL     1      48.417   3.007   4.167  0.00  0.00    +0.000 HD
ENDBRANCH   5   9
BRANCH   1  14
ATOM     14  C   UNL     1      43.636   4.424  10.394  0.00  0.00    +0.000 C 
BRANCH  14  16
ATOM     15  C   UNL     1      42.564   5.850  12.179  0.00  0.00    +0.000 C 
ATOM     16  C   UNL     1      43.712   4.850  11.892  0.00  0.00    +0.000 C 
ATOM     17  C   UNL     1      43.426   3.591  12.746  0.00  0.00    +0.000 C 
BRANCH  16  18
ATOM     18  C   UNL     1      45.109   5.403  12.250  0.00  0.00    +0.000 A 
ATOM     19  C   UNL     1      45.807   6.288  11.403  0.00  0.00    +0.000 A 
ATOM     20  C   UNL     1      47.083   6.761  11.731  0.00  0.00    +0.000 A 
ATOM     21  C   UNL     1      47.683   6.356  12.914  0.00  0.00    +0.000 A 
ATOM     22  F   UNL     1      48.906   6.807  13.220  0.00  0.00    +0.000 F 
ATOM     23  C   UNL     1      47.019   5.490  13.767  0.00  0.00    +0.000 A 
ATOM     24  F   UNL     1      47.598   5.093  14.909  0.00  0.00    +0.000 F 
ATOM     25  C   UNL     1      45.747   5.016  13.447  0.00  0.00    +0.000 A 
ENDBRANCH  16  18
ENDBRANCH  14  16
ENDBRANCH   1  14
TORSDOF 4
ENDMDL
MODEL 2
REMARK VINA RESULT:    -7.974      1.358      1.804
REMARK INTER + INTRA:         -10.531
REMARK INTER:                 -10.087
REMARK INTRA:                  -0.444
REMARK UNBOUND:                -0.693
REMARK  Name = 
REMARK  6 active torsions:
REMARK  status: ('A' for Active; 'I' for Inactive)
REMARK    1  A    between atoms: C_1  and  C_2
REMARK    2  A    between atoms: C_2  and  C_3
REMARK    3  A    between atoms: C_2  and  C_4
REMARK    4  A    between atoms: C_2  and  C_15
REMARK    5  A    between atoms: C_4  and  N_5
REMARK    6  A    between atoms: C_9  and  C_10
REMARK                            x       y       z     vdW  Elec       q    Type
REMARK                         _______ _______ _______ _____ _____    ______ ____
ROOT
ATOM      1  N   UNL     1      44.465   5.240   9.768  0.00  0.00    +0.000 N 
ATOM      2  C   UNL     1      45.183   4.278   9.037  0.00  0.00    +0.000 A 
ATOM      3  C   UNL     1      46.077   4.713   8.061  0.00  0.00    +0.000 A 
ATOM      4  C   UNL     1      46.783   3.775   7.306  0.00  0.00    +0.000 A 
ATOM      5  C   UNL     1      46.585   2.412   7.533  0.00  0.00    +0.000 A 
ATOM      6  C   UNL     1      45.672   2.068   8.515  0.00  0.00    +0.000 A 
ATOM      7  N   UNL     1      44.973   2.964   9.255  0.00  0.00    +0.000 NA
ATOM      8  H   UNL     1      45.123   5.895  10.181  0.00  0.00    +0.000 HD
ENDROOT
BRANCH   5   9
ATOM      9  C   UNL     1      47.338   1.418   6.731  0.00  0.00    +0.000 C 
ATOM     10  N   UNL     1      48.370   1.843   5.940  0.00  0.00    +0.000 N 
ATOM     11  O   UNL     1      47.046   0.227   6.764  0.00  0.00    +0.000 OA
ATOM     12  H   UNL     1      48.691   2.791   5.834  0.00  0.00    +0.000 HD
ATOM     13  H   UNL     1      48.851   1.127   5.410  0.00  0.00    +0.000 HD
ENDBRANCH   5   9
BRANCH   1  14
ATOM     14  C   UNL     1      43.561   4.654  10.765  0.00  0.00    +0.000 C 
BRANCH  14  16
ATOM     15  C   UNL     1      42.901   5.042  13.169  0.00  0.00    +0.000 C 
ATOM     16  C   UNL     1      44.102   4.811  12.219  0.00  0.00    +0.000 C 
ATOM     17  C   UNL     1      44.733   3.457  12.626  0.00  0.00    +0.000 C 
BRANCH  16  18
ATOM     18  C   UNL     1      45.173   5.920  12.305  0.00  0.00    +0.000 A 
ATOM     19  C   UNL     1      44.850   7.288  12.194  0.00  0.00    +0.000 A 
ATOM     20  C   UNL     1      45.837   8.279  12.250  0.00  0.00    +0.000 A 
ATOM     21  C   UNL     1      47.165   7.918  12.418  0.00  0.00    +0.000 A 
ATOM     22  F   UNL     1      48.106   8.871  12.465  0.00  0.00    +0.000 F 
ATOM     23  C   UNL     1      47.512   6.582  12.532  0.00  0.00    +0.000 A 
ATOM     24  F   UNL     1      48.795   6.229  12.690  0.00  0.00    +0.000 F 
ATOM     25  C   UNL     1      46.533   5.589  12.479  0.00  0.00    +0.000 A 
ENDBRANCH  16  18
ENDBRANCH  14  16
ENDBRANCH   1  14
TORSDOF 4
ENDMDL
MODEL 3
REMARK VINA RESULT:    -7.422      5.090      7.748
REMARK INTER + INTRA:          -9.851
REMARK INTER:                  -9.367
REMARK INTRA:                  -0.484
REMARK UNBOUND:                -0.693
REMARK  Name = 
REMARK  6 active torsions:
REMARK  status: ('A' for Active; 'I' for Inactive)
REMARK    1  A    between atoms: C_1  and  C_2
REMARK    2  A    between atoms: C_2  and  C_3
REMARK    3  A    between atoms: C_2  and  C_4
REMARK    4  A    between atoms: C_2  and  C_15
REMARK    5  A    between atoms: C_4  and  N_5
REMARK    6  A    between atoms: C_9  and  C_10
REMARK                            x       y       z     vdW  Elec       q    Type
REMARK                         _______ _______ _______ _____ _____    ______ ____
ROOT
ATOM      1  N   UNL     1      46.603   5.421  13.875  0.00  0.00    +0.000 N 
ATOM      2  C   UNL     1      47.194   5.065  15.101  0.00  0.00    +0.000 A 
ATOM      3  C   UNL     1      48.213   5.869  15.607  0.00  0.00    +0.000 A 
ATOM      4  C   UNL     1      48.830   5.522  16.810  0.00  0.00    +0.000 A 
ATOM      5  C   UNL     1      48.423   4.374  17.492  0.00  0.00    +0.000 A 
ATOM      6  C   UNL     1      47.410   3.629  16.913  0.00  0.00    +0.000 A 
ATOM      7  N   UNL     1      46.802   3.946  15.743  0.00  0.00    +0.000 NA
ATOM      8  H   UNL     1      46.277   6.382  13.936  0.00  0.00    +0.000 HD
ENDROOT
BRANCH   5   9
ATOM      9  C   UNL     1      49.080   4.009  18.770  0.00  0.00    +0.000 C 
ATOM     10  N   UNL     1      48.411   3.215  19.660  0.00  0.00    +0.000 N 
ATOM     11  O   UNL     1      50.207   4.410  19.038  0.00  0.00    +0.000 OA
ATOM     12  H   UNL     1      47.486   2.834  19.545  0.00  0.00    +0.000 HD
ATOM     13  H   UNL     1      48.901   2.996  20.519  0.00  0.00    +0.000 HD
ENDBRANCH   5   9
BRANCH   1  14
ATOM     14  C   UNL     1      45.543   4.498  13.454  0.00  0.00    +0.000 C 
BRANCH  14  16
ATOM     15  C   UNL     1      43.137   4.913  12.817  0.00  0.00    +0.000 C 
ATOM     16  C   UNL     1      44.606   5.124  12.376  0.00  0.00    +0.000 C 
ATOM     17  C   UNL     1      44.855   6.652  12.379  0.00  0.00    +0.000 C 
BRANCH  16  18
ATOM     18  C   UNL     1      44.910   4.561  10.970  0.00  0.00    +0.000 A 
ATOM     19  C   UNL     1      45.529   5.335   9.967  0.00  0.00    +0.000 A 
ATOM     20  C   UNL     1      45.775   4.815   8.691  0.00  0.00    +0.000 A 
ATOM     21  C   UNL     1      45.407   3.511   8.396  0.00  0.00    +0.000 A 
ATOM     22  F   UNL     1      45.639   3.021   7.171  0.00  0.00    +0.000 F 
ATOM     23  C   UNL     1      44.800   2.726   9.363  0.00  0.00    +0.000 A 
ATOM     24  F   UNL     1      44.438   1.468   9.081  0.00  0.00    +0.000 F 
ATOM     25  C   UNL     1      44.553   3.237  10.638  0.00  0.00    +0.000 A 
ENDBRANCH  16  18
ENDBRANCH  14  16
ENDBRANCH   1  14
TORSDOF 4
ENDMDL
MODEL 4
REMARK VINA RESULT:    -7.254      4.183      6.385
REMARK INTER + INTRA:          -9.644
REMARK INTER:                  -8.960
REMARK INTRA:                  -0.684
REMARK UNBOUND:                -0.693
REMARK  Name = 
REMARK  6 active torsions:
REMARK  status: ('A' for Active; 'I' for Inactive)
REMARK    1  A    between atoms: C_1  and  C_2
REMARK    2  A    between atoms: C_2  and  C_3
REMARK    3  A    between atoms: C_2  and  C_4
REMARK    4  A    between atoms: C_2  and  C_15
REMARK    5  A    between atoms: C_4  and  N_5
REMARK    6  A    between atoms: C_9  and  C_10
REMARK                            x       y       z     vdW  Elec       q    Type
REMARK                         _______ _______ _______ _____ _____    ______ ____
ROOT
ATOM      1  N   UNL     1      44.804   6.064  12.844  0.00  0.00    +0.000 N 
ATOM      2  C   UNL     1      45.863   6.950  12.581  0.00  0.00    +0.000 A 
ATOM      3  C   UNL     1      45.686   8.302  12.864  0.00  0.00    +0.000 A 
ATOM      4  C   UNL     1      46.716   9.204  12.589  0.00  0.00    +0.000 A 
ATOM      5  C   UNL     1      47.909   8.744  12.030  0.00  0.00    +0.000 A 
ATOM      6  C   UNL     1      47.996   7.387  11.772  0.00  0.00    +0.000 A 
ATOM      7  N   UNL     1      47.006   6.496  12.028  0.00  0.00    +0.000 NA
ATOM      8  H   UNL     1      44.521   6.171  13.815  0.00  0.00    +0.000 HD
ENDROOT
BRANCH   5   9
ATOM      9  C   UNL     1      49.001   9.704  11.739  0.00  0.00    +0.000 C 
ATOM     10  N   UNL     1      48.716  10.849  11.048  0.00  0.00    +0.000 N 
ATOM     11  O   UNL     1      50.150   9.483  12.106  0.00  0.00    +0.000 OA
ATOM     12  H   UNL     1      47.814  11.128  10.698  0.00  0.00    +0.000 HD
ATOM     13  H   UNL     1      49.496  11.471  10.873  0.00  0.00    +0.000 HD
ENDBRANCH   5   9
BRANCH   1  14
ATOM     14  C   UNL     1      45.117   4.670  12.505  0.00  0.00    +0.000 C 
BRANCH  14  16
ATOM     15  C   UNL     1      43.383   2.878  12.122  0.00  0.00    +0.000 C 
ATOM     16  C   UNL     1      44.117   4.074  11.467  0.00  0.00    +0.000 C 
ATOM     17  C   UNL     1      43.043   5.153  11.188  0.00  0.00    +0.000 C 
BRANCH  16  18
ATOM     18  C   UNL     1      44.828   3.708  10.147  0.00  0.00    +0.000 A 
ATOM     19  C   UNL     1      45.303   4.687   9.250  0.00  0.00    +0.000 A 
ATOM     20  C   UNL     1      45.924   4.337   8.046  0.00  0.00    +0.000 A 
ATOM     21  C   UNL     1      46.082   2.998   7.718  0.00  0.00    +0.000 A 
ATOM     22  F   UNL     1      46.672   2.669   6.561  0.00  0.00    +0.000 F 
ATOM     23  C   UNL     1      45.628   2.014   8.581  0.00  0.00    +0.000 A 
ATOM     24  F   UNL     1      45.774   0.720   8.264  0.00  0.00    +0.000 F 
ATOM     25  C   UNL     1      45.009   2.357   9.783  0.00  0.00    +0.000 A 
ENDBRANCH  16  18
ENDBRANCH  14  16
ENDBRANCH   1  14
TORSDOF 4
ENDMDL
MODEL 5
REMARK VINA RESULT:    -7.168      4.742      7.316
REMARK INTER + INTRA:          -9.537
REMARK INTER:                  -9.038
REMARK INTRA:                  -0.499
REMARK UNBOUND:                -0.693
REMARK  Name = 
REMARK  6 active torsions:
REMARK  status: ('A' for Active; 'I' for Inactive)
REMARK    1  A    between atoms: C_1  and  C_2
REMARK    2  A    between atoms: C_2  and  C_3
REMARK    3  A    between atoms: C_2  and  C_4
REMARK    4  A    between atoms: C_2  and  C_15
REMARK    5  A    between atoms: C_4  and  N_5
REMARK    6  A    between atoms: C_9  and  C_10
REMARK                            x       y       z     vdW  Elec       q    Type
REMARK                         _______ _______ _______ _____ _____    ______ ____
ROOT
ATOM      1  N   UNL     1      46.104   4.995  12.432  0.00  0.00    +0.000 N 
ATOM      2  C   UNL     1      46.794   5.116  13.651  0.00  0.00    +0.000 A 
ATOM      3  C   UNL     1      47.600   6.234  13.852  0.00  0.00    +0.000 A 
ATOM      4  C   UNL     1      48.313   6.363  15.046  0.00  0.00    +0.000 A 
ATOM      5  C   UNL     1      48.213   5.372  16.023  0.00  0.00    +0.000 A 
ATOM      6  C   UNL     1      47.397   4.291  15.736  0.00  0.00    +0.000 A 
ATOM      7  N   UNL     1      46.701   4.145  14.582  0.00  0.00    +0.000 NA
ATOM      8  H   UNL     1      45.556   5.838  12.280  0.00  0.00    +0.000 HD
ENDROOT
BRANCH   5   9
ATOM      9  C   UNL     1      48.970   5.512  17.290  0.00  0.00    +0.000 C 
ATOM     10  N   UNL     1      50.229   4.984  17.377  0.00  0.00    +0.000 N 
ATOM     11  O   UNL     1      48.483   6.091  18.256  0.00  0.00    +0.000 OA
ATOM     12  H   UNL     1      50.722   4.490  16.652  0.00  0.00    +0.000 HD
ATOM     13  H   UNL     1      50.703   5.105  18.264  0.00  0.00    +0.000 HD
ENDBRANCH   5   9
BRANCH   1  14
ATOM     14  C   UNL     1      45.289   3.778  12.346  0.00  0.00    +0.000 C 
BRANCH  14  16
ATOM     15  C   UNL     1      43.103   2.886  11.456  0.00  0.00    +0.000 C 
ATOM     16  C   UNL     1      44.305   3.808  11.136  0.00  0.00    +0.000 C 
ATOM     17  C   UNL     1      43.744   5.247  11.033  0.00  0.00    +0.000 C 
BRANCH  16  18
ATOM     18  C   UNL     1      45.023   3.444   9.817  0.00  0.00    +0.000 A 
ATOM     19  C   UNL     1      45.417   4.421   8.880  0.00  0.00    +0.000 A 
ATOM     20  C   UNL     1      46.044   4.071   7.679  0.00  0.00    +0.000 A 
ATOM     21  C   UNL     1      46.290   2.736   7.395  0.00  0.00    +0.000 A 
ATOM     22  F   UNL     1      46.885   2.407   6.242  0.00  0.00    +0.000 F 
ATOM     23  C   UNL     1      45.916   1.754   8.299  0.00  0.00    +0.000 A 
ATOM     24  F   UNL     1      46.147   0.463   8.025  0.00  0.00    +0.000 F 
ATOM     25  C   UNL     1      45.291   2.096   9.498  0.00  0.00    +0.000 A 
ENDBRANCH  16  18
ENDBRANCH  14  16
ENDBRANCH   1  14
TORSDOF 4
ENDMDL
MODEL 6
REMARK VINA RESULT:    -6.845      4.503      6.468
REMARK INTER + INTRA:          -9.139
REMARK INTER:                  -8.701
REMARK INTRA:                  -0.438
REMARK UNBOUND:                -0.693
REMARK  Name = 
REMARK  6 active torsions:
REMARK  status: ('A' for Active; 'I' for Inactive)
REMARK    1  A    between atoms: C_1  and  C_2
REMARK    2  A    between atoms: C_2  and  C_3
REMARK    3  A    between atoms: C_2  and  C_4
REMARK    4  A    between atoms: C_2  and  C_15
REMARK    5  A    between atoms: C_4  and  N_5
REMARK    6  A    between atoms: C_9  and  C_10
REMARK                            x       y       z     vdW  Elec       q    Type
REMARK                         _______ _______ _______ _____ _____    ______ ____
ROOT
ATOM      1  N   UNL     1      47.147   5.437  14.751  0.00  0.00    +0.000 N 
ATOM      2  C   UNL     1      46.445   4.981  13.622  0.00  0.00    +0.000 A 
ATOM      3  C   UNL     1      46.171   5.886  12.598  0.00  0.00    +0.000 A 
ATOM      4  C   UNL     1      45.453   5.461  11.478  0.00  0.00    +0.000 A 
ATOM      5  C   UNL     1      45.016   4.138  11.396  0.00  0.00    +0.000 A 
ATOM      6  C   UNL     1      45.324   3.311  12.461  0.00  0.00    +0.000 A 
ATOM      7  N   UNL     1      46.015   3.704  13.560  0.00  0.00    +0.000 NA
ATOM      8  H   UNL     1      48.013   5.872  14.444  0.00  0.00    +0.000 HD
ENDROOT
BRANCH   5   9
ATOM      9  C   UNL     1      44.255   3.691  10.205  0.00  0.00    +0.000 C 
ATOM     10  N   UNL     1      44.106   4.546   9.148  0.00  0.00    +0.000 N 
ATOM     11  O   UNL     1      43.759   2.570  10.156  0.00  0.00    +0.000 OA
ATOM     12  H   UNL     1      44.466   5.484   9.082  0.00  0.00    +0.000 HD
ATOM     13  H   UNL     1      43.577   4.195   8.360  0.00  0.00    +0.000 HD
ENDBRANCH   5   9
BRANCH   1  14
ATOM     14  C   UNL     1      47.375   4.389  15.753  0.00  0.00    +0.000 C 
BRANCH  14  16
ATOM     15  C   UNL     1      48.650   6.361  16.677  0.00  0.00    +0.000 C 
ATOM     16  C   UNL     1      48.254   4.887  16.942  0.00  0.00    +0.000 C 
ATOM     17  C   UNL     1      47.362   4.888  18.207  0.00  0.00    +0.000 C 
BRANCH  16  18
ATOM     18  C   UNL     1      49.467   3.959  17.172  0.00  0.00    +0.000 A 
ATOM     19  C   UNL     1      49.395   2.565  16.977  0.00  0.00    +0.000 A 
ATOM     20  C   UNL     1      50.498   1.736  17.214  0.00  0.00    +0.000 A 
ATOM     21  C   UNL     1      51.692   2.289  17.650  0.00  0.00    +0.000 A 
ATOM     22  F   UNL     1      52.742   1.490  17.881  0.00  0.00    +0.000 F 
ATOM     23  C   UNL     1      51.793   3.656  17.848  0.00  0.00    +0.000 A 
ATOM     24  F   UNL     1      52.944   4.193  18.274  0.00  0.00    +0.000 F 
ATOM     25  C   UNL     1      50.698   4.488  17.612  0.00  0.00    +0.000 A 
ENDBRANCH  16  18
ENDBRANCH  14  16
ENDBRANCH   1  14
TORSDOF 4
ENDMDL
MODEL 7
REMARK VINA RESULT:    -6.416      4.451      6.994
REMARK INTER + INTRA:          -8.609
REMARK INTER:                  -8.325
REMARK INTRA:                  -0.285
REMARK UNBOUND:                -0.693
REMARK  Name = 
REMARK  6 active torsions:
REMARK  status: ('A' for Active; 'I' for Inactive)
REMARK    1  A    between atoms: C_1  and  C_2
REMARK    2  A    between atoms: C_2  and  C_3
REMARK    3  A    between atoms: C_2  and  C_4
REMARK    4  A    between atoms: C_2  and  C_15
REMARK    5  A    between atoms: C_4  and  N_5
REMARK    6  A    between atoms: C_9  and  C_10
REMARK                            x       y       z     vdW  Elec       q    Type
REMARK                         _______ _______ _______ _____ _____    ______ ____
ROOT
ATOM      1  N   UNL     1      45.990   5.811  11.392  0.00  0.00    +0.000 N 
ATOM      2  C   UNL     1      46.953   6.348  12.263  0.00  0.00    +0.000 A 
ATOM      3  C   UNL     1      47.619   7.512  11.884  0.00  0.00    +0.000 A 
ATOM      4  C   UNL     1      48.597   8.050  12.723  0.00  0.00    +0.000 A 
ATOM      5  C   UNL     1      48.901   7.416  13.928  0.00  0.00    +0.000 A 
ATOM      6  C   UNL     1      48.198   6.260  14.221  0.00  0.00    +0.000 A 
ATOM      7  N   UNL     1      47.249   5.719  13.419  0.00  0.00    +0.000 NA
ATOM      8  H   UNL     1      45.308   6.533  11.173  0.00  0.00    +0.000 HD
ENDROOT
BRANCH   5   9
ATOM      9  C   UNL     1      49.939   7.990  14.817  0.00  0.00    +0.000 C 
ATOM     10  N   UNL     1      51.160   7.379  14.899  0.00  0.00    +0.000 N 
ATOM     11  O   UNL     1      49.718   9.000  15.478  0.00  0.00    +0.000 OA
ATOM     12  H   UNL     1      51.448   6.549  14.407  0.00  0.00    +0.000 HD
ATOM     13  H   UNL     1      51.834   7.808  15.521  0.00  0.00    +0.000 HD
ENDBRANCH   5   9
BRANCH   1  14
ATOM     14  C   UNL     1      45.361   4.589  11.907  0.00  0.00    +0.000 C 
BRANCH  14  16
ATOM     15  C   UNL     1      43.403   3.011  11.692  0.00  0.00    +0.000 C 
ATOM     16  C   UNL     1      44.305   4.004  10.918  0.00  0.00    +0.000 C 
ATOM     17  C   UNL     1      43.394   5.173  10.470  0.00  0.00    +0.000 C 
BRANCH  16  18
ATOM     18  C   UNL     1      44.982   3.379   9.678  0.00  0.00    +0.000 A 
ATOM     19  C   UNL     1      45.092   1.984   9.504  0.00  0.00    +0.000 A 
ATOM     20  C   UNL     1      45.730   1.435   8.386  0.00  0.00    +0.000 A 
ATOM     21  C   UNL     1      46.268   2.273   7.420  0.00  0.00    +0.000 A 
ATOM     22  F   UNL     1      46.882   1.742   6.355  0.00  0.00    +0.000 F 
ATOM     23  C   UNL     1      46.172   3.648   7.564  0.00  0.00    +0.000 A 
ATOM     24  F   UNL     1      46.696   4.461   6.636  0.00  0.00    +0.000 F 
ATOM     25  C   UNL     1      45.537   4.202   8.676  0.00  0.00    +0.000 A 
ENDBRANCH  16  18
ENDBRANCH  14  16
ENDBRANCH   1  14
TORSDOF 4
ENDMDL
MODEL 8
REMARK VINA RESULT:    -6.375      5.069      7.663
REMARK INTER + INTRA:          -8.559
REMARK INTER:                  -8.060
REMARK INTRA:                  -0.499
REMARK UNBOUND:                -0.693
REMARK  Name = 
REMARK  6 active torsions:
REMARK  status: ('A' for Active; 'I' for Inactive)
REMARK    1  A    between atoms: C_1  and  C_2
REMARK    2  A    between atoms: C_2  and  C_3
REMARK    3  A    between atoms: C_2  and  C_4
REMARK    4  A    between atoms: C_2  and  C_15
REMARK    5  A    between atoms: C_4  and  N_5
REMARK    6  A    between atoms: C_9  and  C_10
REMARK                            x       y       z     vdW  Elec       q    Type
REMARK                         _______ _______ _______ _____ _____    ______ ____
ROOT
ATOM      1  N   UNL     1      46.241   4.431  13.833  0.00  0.00    +0.000 N 
ATOM      2  C   UNL     1      47.131   4.629  14.903  0.00  0.00    +0.000 A 
ATOM      3  C   UNL     1      47.188   3.666  15.908  0.00  0.00    +0.000 A 
ATOM      4  C   UNL     1      48.048   3.854  16.993  0.00  0.00    +0.000 A 
ATOM      5  C   UNL     1      48.837   5.002  17.061  0.00  0.00    +0.000 A 
ATOM      6  C   UNL     1      48.711   5.910  16.023  0.00  0.00    +0.000 A 
ATOM      7  N   UNL     1      47.879   5.749  14.965  0.00  0.00    +0.000 NA
ATOM      8  H   UNL     1      46.424   3.521  13.419  0.00  0.00    +0.000 HD
ENDROOT
BRANCH   5   9
ATOM      9  C   UNL     1      49.750   5.197  18.213  0.00  0.00    +0.000 C 
ATOM     10  N   UNL     1      50.190   4.104  18.907  0.00  0.00    +0.000 N 
ATOM     11  O   UNL     1      50.109   6.320  18.551  0.00  0.00    +0.000 OA
ATOM     12  H   UNL     1      49.958   3.143  18.720  0.00  0.00    +0.000 HD
ATOM     13  H   UNL     1      50.810   4.290  19.686  0.00  0.00    +0.000 HD
ENDBRANCH   5   9
BRANCH   1  14
ATOM     14  C   UNL     1      46.278   5.512  12.841  0.00  0.00    +0.000 C 
BRANCH  14  16
ATOM     15  C   UNL     1      43.766   5.287  12.908  0.00  0.00    +0.000 C 
ATOM     16  C   UNL     1      44.976   5.576  11.985  0.00  0.00    +0.000 C 
ATOM     17  C   UNL     1      44.818   7.035  11.492  0.00  0.00    +0.000 C 
BRANCH  16  18
ATOM     18  C   UNL     1      45.057   4.630  10.766  0.00  0.00    +0.000 A 
ATOM     19  C   UNL     1      44.525   3.325  10.790  0.00  0.00    +0.000 A 
ATOM     20  C   UNL     1      44.628   2.473   9.685  0.00  0.00    +0.000 A 
ATOM     21  C   UNL     1      45.265   2.913   8.534  0.00  0.00    +0.000 A 
ATOM     22  F   UNL     1      45.366   2.091   7.482  0.00  0.00    +0.000 F 
ATOM     23  C   UNL     1      45.795   4.192   8.481  0.00  0.00    +0.000 A 
ATOM     24  F   UNL     1      46.415   4.619   7.373  0.00  0.00    +0.000 F 
ATOM     25  C   UNL     1      45.694   5.047   9.579  0.00  0.00    +0.000 A 
ENDBRANCH  16  18
ENDBRANCH  14  16
ENDBRANCH   1  14
TORSDOF 4
ENDMDL
MODEL 9
REMARK VINA RESULT:    -6.055      5.388      8.179
REMARK INTER + INTRA:          -8.164
REMARK INTER:                  -7.927
REMARK INTRA:                  -0.237
REMARK UNBOUND:                -0.693
REMARK  Name = 
REMARK  6 active torsions:
REMARK  status: ('A' for Active; 'I' for Inactive)
REMARK    1  A    between atoms: C_1  and  C_2
REMARK    2  A    between atoms: C_2  and  C_3
REMARK    3  A    between atoms: C_2  and  C_4
REMARK    4  A    between atoms: C_2  and  C_15
REMARK    5  A    between atoms: C_4  and  N_5
REMARK    6  A    between atoms: C_9  and  C_10
REMARK                            x       y       z     vdW  Elec       q    Type
REMARK                         _______ _______ _______ _____ _____    ______ ____
ROOT
ATOM      1  N   UNL     1      46.882   5.080  14.570  0.00  0.00    +0.000 N 
ATOM      2  C   UNL     1      47.630   4.968  15.755  0.00  0.00    +0.000 A 
ATOM      3  C   UNL     1      47.238   4.026  16.703  0.00  0.00    +0.000 A 
ATOM      4  C   UNL     1      47.953   3.914  17.898  0.00  0.00    +0.000 A 
ATOM      5  C   UNL     1      49.047   4.747  18.132  0.00  0.00    +0.000 A 
ATOM      6  C   UNL     1      49.360   5.660  17.141  0.00  0.00    +0.000 A 
ATOM      7  N   UNL     1      48.678   5.788  15.976  0.00  0.00    +0.000 NA
ATOM      8  H   UNL     1      46.824   4.164  14.132  0.00  0.00    +0.000 HD
ENDROOT
BRANCH   5   9
ATOM      9  C   UNL     1      49.803   4.625  19.401  0.00  0.00    +0.000 C 
ATOM     10  N   UNL     1      49.186   4.086  20.497  0.00  0.00    +0.000 N 
ATOM     11  O   UNL     1      50.968   5.001  19.482  0.00  0.00    +0.000 OA
ATOM     12  H   UNL     1      48.238   3.750  20.545  0.00  0.00    +0.000 HD
ATOM     13  H   UNL     1      49.744   4.026  21.339  0.00  0.00    +0.000 HD
ENDBRANCH   5   9
BRANCH   1  14
ATOM     14  C   UNL     1      47.398   6.104  13.654  0.00  0.00    +0.000 C 
BRANCH  14  16
ATOM     15  C   UNL     1      45.666   7.803  12.961  0.00  0.00    +0.000 C 
ATOM     16  C   UNL     1      46.365   6.484  12.548  0.00  0.00    +0.000 C 
ATOM     17  C   UNL     1      47.163   6.790  11.257  0.00  0.00    +0.000 C 
BRANCH  16  18
ATOM     18  C   UNL     1      45.379   5.327  12.278  0.00  0.00    +0.000 A 
ATOM     19  C   UNL     1      44.202   5.149  13.032  0.00  0.00    +0.000 A 
ATOM     20  C   UNL     1      43.331   4.081  12.789  0.00  0.00    +0.000 A 
ATOM     21  C   UNL     1      43.624   3.170  11.785  0.00  0.00    +0.000 A 
ATOM     22  F   UNL     1      42.791   2.146  11.561  0.00  0.00    +0.000 F 
ATOM     23  C   UNL     1      44.773   3.321  11.025  0.00  0.00    +0.000 A 
ATOM     24  F   UNL     1      45.062   2.440  10.058  0.00  0.00    +0.000 F 
ATOM     25  C   UNL     1      45.644   4.385  11.262  0.00  0.00    +0.000 A 
ENDBRANCH  16  18
ENDBRANCH  14  16
ENDBRANCH   1  14
TORSDOF 4
ENDMDL
