MODEL 1
REMARK VINA RESULT:    -8.578      0.000      0.000
REMARK INTER + INTRA:         -11.991
REMARK INTER:                 -11.086
REMARK INTRA:                  -0.905
REMARK UNBOUND:                -0.905
REMARK  Name = 
REMARK  6 active torsions:
REMARK  status: ('A' for Active; 'I' for Inactive)
REMARK    1  A    between atoms: C_1  and  C_2
REMARK    2  A    between atoms: C_2  and  N_3
REMARK    3  A    between atoms: C_2  and  C_13
REMARK    4  A    between atoms: N_3  and  C_4
REMARK    5  A    between atoms: C_7  and  C_8
REMARK    6  A    between atoms: C_17  and  C_18
REMARK                            x       y       z     vdW  Elec       q    Type
REMARK                         _______ _______ _______ _____ _____    ______ ____
ROOT
ATOM      1  N   UNL     1      43.777   4.815   9.826  0.00  0.00    +0.000 N 
ATOM      2  H   UNL     1      44.025   5.777   9.597  0.00  0.00    +0.000 HD
ENDROOT
BRANCH   1   3
ATOM      3  C   UNL     1      44.561   3.910   9.105  0.00  0.00    +0.000 A 
ATOM      4  C   UNL     1      45.555   4.290   8.203  0.00  0.00    +0.000 A 
ATOM      5  C   UNL     1      46.381   3.335   7.607  0.00  0.00    +0.000 A 
ATOM      6  C   UNL     1      46.205   2.002   7.937  0.00  0.00    +0.000 A 
ATOM      7  N   UNL     1      45.261   1.565   8.813  0.00  0.00    +0.000 NA
ATOM      8  C   UNL     1      44.490   2.533   9.376  0.00  0.00    +0.000 A 
BRANCH   6   9
ATOM      9  C   UNL     1      47.114   0.974   7.335  0.00  0.00    +0.000 C 
ATOM     10  N   UNL     1      46.842  -0.328   7.656  0.00  0.00    +0.000 N 
ATOM     11  O   UNL     1      48.052   1.272   6.607  0.00  0.00    +0.000 OA
ATOM     12  H   UNL     1      46.079  -0.545   8.286  0.00  0.00    +0.000 HD
ATOM     13  H   UNL     1      47.453  -1.056   7.315  0.00  0.00    +0.000 HD
ENDBRANCH   6   9
ENDBRANCH   1   3
BRANCH   1  15
ATOM     14  C   UNL     1      42.466   5.620  11.789  0.00  0.00    +0.000 C 
ATOM     15  C   UNL     1      43.538   4.659  11.268  0.00  0.00    +0.000 C 
BRANCH  15  16
ATOM     16  C   UNL     1      44.857   4.930  11.992  0.00  0.00    +0.000 A 
ATOM     17  C   UNL     1      45.418   3.978  12.859  0.00  0.00    +0.000 A 
ATOM     18  C   UNL     1      46.615   4.238  13.527  0.00  0.00    +0.000 A 
ATOM     19  C   UNL     1      47.273   5.451  13.332  0.00  0.00    +0.000 A 
ATOM     20  C   UNL     1      46.747   6.412  12.458  0.00  0.00    +0.000 A 
ATOM     21  C   UNL     1      45.530   6.146  11.802  0.00  0.00    +0.000 A 
BRANCH  20  22
ATOM     22  C   UNL     1      47.470   7.710  12.198  0.00  0.00    +0.000 C 
ATOM     23  F   UNL     1      46.648   8.726  11.811  0.00  0.00    +0.000 F 
ATOM     24  F   UNL     1      48.129   8.163  13.300  0.00  0.00    +0.000 F 
ATOM     25  F   UNL     1      48.411   7.597  11.220  0.00  0.00    +0.000 F 
ENDBRANCH  20  22
ENDBRANCH  15  16
ENDBRANCH   1  15
TORSDOF 5
ENDMDL
MODEL 2
REMARK VINA RESULT:    -8.510      1.826      2.443
REMARK INTER + INTRA:         -11.903
REMARK INTER:                 -11.050
REMARK INTRA:                  -0.853
REMARK UNBOUND:                -0.905
REMARK  Name = 
REMARK  6 active torsions:
REMARK  status: ('A' for Active; 'I' for Inactive)
REMARK    1  A    between atoms: C_1  and  C_2
REMARK    2  A    between atoms: C_2  and  N_3
REMARK    3  A    between atoms: C_2  and  C_13
REMARK    4  A    between atoms: N_3  and  C_4
REMARK    5  A    between atoms: C_7  and  C_8
REMARK    6  A    between atoms: C_17  and  C_18
REMARK                            x       y       z     vdW  Elec       q    Type
REMARK                         _______ _______ _______ _____ _____    ______ ____
ROOT
ATOM      1  N   UNL     1      43.798   4.861   9.874  0.00  0.00    +0.000 N 
ATOM      2  H   UNL     1      43.993   5.820   9.591  0.00  0.00    +0.000 HD
ENDROOT
BRANCH   1   3
ATOM      3  C   UNL     1      44.575   3.956   9.146  0.00  0.00    +0.000 A 
ATOM      4  C   UNL     1      45.562   4.336   8.238  0.00  0.00    +0.000 A 
ATOM      5  C   UNL     1      46.383   3.380   7.634  0.00  0.00    +0.000 A 
ATOM      6  C   UNL     1      46.207   2.047   7.964  0.00  0.00    +0.000 A 
ATOM      7  N   UNL     1      45.269   1.610   8.846  0.00  0.00    +0.000 NA
ATOM      8  C   UNL     1      44.504   2.578   9.416  0.00  0.00    +0.000 A 
BRANCH   6   9
ATOM      9  C   UNL     1      47.110   1.018   7.352  0.00  0.00    +0.000 C 
ATOM     10  N   UNL     1      46.844  -0.283   7.682  0.00  0.00    +0.000 N 
ATOM     11  O   UNL     1      48.037   1.315   6.612  0.00  0.00    +0.000 OA
ATOM     12  H   UNL     1      46.089  -0.499   8.322  0.00  0.00    +0.000 HD
ATOM     13  H   UNL     1      47.451  -1.011   7.335  0.00  0.00    +0.000 HD
ENDBRANCH   6   9
ENDBRANCH   1   3
BRANCH   1  15
ATOM     14  C   UNL     1      42.469   5.580  11.859  0.00  0.00    +0.000 C 
ATOM     15  C   UNL     1      43.650   4.760  11.333  0.00  0.00    +0.000 C 
BRANCH  15  16
ATOM     16  C   UNL     1      44.943   5.268  11.971  0.00  0.00    +0.000 A 
ATOM     17  C   UNL     1      45.636   6.365  11.432  0.00  0.00    +0.000 A 
ATOM     18  C   UNL     1      46.824   6.814  12.011  0.00  0.00    +0.000 A 
ATOM     19  C   UNL     1      47.331   6.179  13.143  0.00  0.00    +0.000 A 
ATOM     20  C   UNL     1      46.652   5.094  13.713  0.00  0.00    +0.000 A 
ATOM     21  C   UNL     1      45.464   4.638  13.111  0.00  0.00    +0.000 A 
BRANCH  20  22
ATOM     22  C   UNL     1      47.161   4.424  14.966  0.00  0.00    +0.000 C 
ATOM     23  F   UNL     1      48.230   5.053  15.527  0.00  0.00    +0.000 F 
ATOM     24  F   UNL     1      46.211   4.362  15.939  0.00  0.00    +0.000 F 
ATOM     25  F   UNL     1      47.555   3.139  14.746  0.00  0.00    +0.000 F 
ENDBRANCH  20  22
ENDBRANCH  15  16
ENDBRANCH   1  15
TORSDOF 5
ENDMDL
MODEL 3
REMARK VINA RESULT:    -7.807      1.341      2.058
REMARK INTER + INTRA:         -10.994
REMARK INTER:                 -10.075
REMARK INTRA:                  -0.919
REMARK UNBOUND:                -0.905
REMARK  Name = 
REMARK  6 active torsions:
REMARK  status: ('A' for Active; 'I' for Inactive)
REMARK    1  A    between atoms: C_1  and  C_2
REMARK    2  A    between atoms: C_2  and  N_3
REMARK    3  A    between atoms: C_2  and  C_13
REMARK    4  A    between atoms: N_3  and  C_4
REMARK    5  A    between atoms: C_7  and  C_8
REMARK    6  A    between atoms: C_17  and  C_18
REMARK                            x       y       z     vdW  Elec       q    Type
REMARK                         _______ _______ _______ _____ _____    ______ ____
ROOT
ATOM      1  N   UNL     1      43.857   4.457  10.380  0.00  0.00    +0.000 N 
ATOM      2  H   UNL     1      43.492   5.339  10.023  0.00  0.00    +0.000 HD
ENDROOT
BRANCH   1   3
ATOM      3  C   UNL     1      44.676   3.834   9.434  0.00  0.00    +0.000 A 
ATOM      4  C   UNL     1      45.473   4.525   8.523  0.00  0.00    +0.000 A 
ATOM      5  C   UNL     1      46.357   3.841   7.686  0.00  0.00    +0.000 A 
ATOM      6  C   UNL     1      46.439   2.463   7.786  0.00  0.00    +0.000 A 
ATOM      7  N   UNL     1      45.696   1.729   8.657  0.00  0.00    +0.000 NA
ATOM      8  C   UNL     1      44.860   2.440   9.459  0.00  0.00    +0.000 A 
BRANCH   6   9
ATOM      9  C   UNL     1      47.415   1.723   6.922  0.00  0.00    +0.000 C 
ATOM     10  N   UNL     1      48.469   2.456   6.447  0.00  0.00    +0.000 N 
ATOM     11  O   UNL     1      47.281   0.540   6.643  0.00  0.00    +0.000 OA
ATOM     12  H   UNL     1      48.541   3.442   6.668  0.00  0.00    +0.000 HD
ATOM     13  H   UNL     1      49.130   2.017   5.823  0.00  0.00    +0.000 HD
ENDBRANCH   6   9
ENDBRANCH   1   3
BRANCH   1  15
ATOM     14  C   UNL     1      43.048   4.580  12.737  0.00  0.00    +0.000 C 
ATOM     15  C   UNL     1      44.252   4.579  11.791  0.00  0.00    +0.000 C 
BRANCH  15  16
ATOM     16  C   UNL     1      45.022   5.889  11.948  0.00  0.00    +0.000 A 
ATOM     17  C   UNL     1      44.462   7.114  11.546  0.00  0.00    +0.000 A 
ATOM     18  C   UNL     1      45.177   8.304  11.679  0.00  0.00    +0.000 A 
ATOM     19  C   UNL     1      46.458   8.291  12.227  0.00  0.00    +0.000 A 
ATOM     20  C   UNL     1      47.035   7.087  12.655  0.00  0.00    +0.000 A 
ATOM     21  C   UNL     1      46.312   5.890  12.499  0.00  0.00    +0.000 A 
BRANCH  20  22
ATOM     22  C   UNL     1      48.402   7.059  13.293  0.00  0.00    +0.000 C 
ATOM     23  F   UNL     1      49.381   6.593  12.469  0.00  0.00    +0.000 F 
ATOM     24  F   UNL     1      48.809   8.295  13.694  0.00  0.00    +0.000 F 
ATOM     25  F   UNL     1      48.443   6.274  14.405  0.00  0.00    +0.000 F 
ENDBRANCH  20  22
ENDBRANCH  15  16
ENDBRANCH   1  15
TORSDOF 5
ENDMDL
MODEL 4
REMARK VINA RESULT:    -7.112      4.086      6.223
REMARK INTER + INTRA:         -10.096
REMARK INTER:                  -9.196
REMARK INTRA:                  -0.900
REMARK UNBOUND:                -0.905
REMARK  Name = 
REMARK  6 active torsions:
REMARK  status: ('A' for Active; 'I' for Inactive)
REMARK    1  A    between atoms: C_1  and  C_2
REMARK    2  A    between atoms: C_2  and  N_3
REMARK    3  A    between atoms: C_2  and  C_13
REMARK    4  A    between atoms: N_3  and  C_4
REMARK    5  A    between atoms: C_7  and  C_8
REMARK    6  A    between atoms: C_17  and  C_18
REMARK                            x       y       z     vdW  Elec       q    Type
REMARK                         _______ _______ _______ _____ _____    ______ ____
ROOT
ATOM      1  N   UNL     1      44.939   5.389  12.458  0.00  0.00    +0.000 N 
ATOM      2  H   UNL     1      44.888   4.444  12.834  0.00  0.00    +0.000 HD
ENDROOT
BRANCH   1   3
ATOM      3  C   UNL     1      46.230   5.910  12.585  0.00  0.00    +0.000 A 
ATOM      4  C   UNL     1      46.746   6.913  11.767  0.00  0.00    +0.000 A 
ATOM      5  C   UNL     1      48.001   7.471  12.025  0.00  0.00    +0.000 A 
ATOM      6  C   UNL     1      48.718   7.017  13.119  0.00  0.00    +0.000 A 
ATOM      7  N   UNL     1      48.271   6.048  13.960  0.00  0.00    +0.000 NA
ATOM      8  C   UNL     1      47.040   5.545  13.674  0.00  0.00    +0.000 A 
BRANCH   6   9
ATOM      9  C   UNL     1      50.047   7.639  13.429  0.00  0.00    +0.000 C 
ATOM     10  N   UNL     1      50.920   7.740  12.380  0.00  0.00    +0.000 N 
ATOM     11  O   UNL     1      50.345   8.024  14.551  0.00  0.00    +0.000 OA
ATOM     12  H   UNL     1      50.659   7.385  11.468  0.00  0.00    +0.000 HD
ATOM     13  H   UNL     1      51.845   8.108  12.546  0.00  0.00    +0.000 HD
ENDBRANCH   6   9
ENDBRANCH   1   3
BRANCH   1  15
ATOM     14  C   UNL     1      42.664   5.575  11.450  0.00  0.00    +0.000 C 
ATOM     15  C   UNL     1      44.175   5.503  11.207  0.00  0.00    +0.000 C 
BRANCH  15  16
ATOM     16  C   UNL     1      44.493   4.278  10.351  0.00  0.00    +0.000 A 
ATOM     17  C   UNL     1      43.897   3.033  10.615  0.00  0.00    +0.000 A 
ATOM     18  C   UNL     1      44.203   1.916   9.839  0.00  0.00    +0.000 A 
ATOM     19  C   UNL     1      45.103   2.027   8.780  0.00  0.00    +0.000 A 
ATOM     20  C   UNL     1      45.698   3.260   8.481  0.00  0.00    +0.000 A 
ATOM     21  C   UNL     1      45.395   4.377   9.282  0.00  0.00    +0.000 A 
BRANCH  20  22
ATOM     22  C   UNL     1      46.638   3.411   7.310  0.00  0.00    +0.000 C 
ATOM     23  F   UNL     1      46.036   3.246   6.100  0.00  0.00    +0.000 F 
ATOM     24  F   UNL     1      47.220   4.642   7.272  0.00  0.00    +0.000 F 
ATOM     25  F   UNL     1      47.662   2.515   7.345  0.00  0.00    +0.000 F 
ENDBRANCH  20  22
ENDBRANCH  15  16
ENDBRANCH   1  15
TORSDOF 5
ENDMDL
MODEL 5
REMARK VINA RESULT:    -7.081      4.485      6.644
REMARK INTER + INTRA:         -10.056
REMARK INTER:                  -9.271
REMARK INTRA:                  -0.785
REMARK UNBOUND:                -0.905
REMARK  Name = 
REMARK  6 active torsions:
REMARK  status: ('A' for Active; 'I' for Inactive)
REMARK    1  A    between atoms: C_1  and  C_2
REMARK    2  A    between atoms: C_2  and  N_3
REMARK    3  A    between atoms: C_2  and  C_13
REMARK    4  A    between atoms: N_3  and  C_4
REMARK    5  A    between atoms: C_7  and  C_8
REMARK    6  A    between atoms: C_17  and  C_18
REMARK                            x       y       z     vdW  Elec       q    Type
REMARK                         _______ _______ _______ _____ _____    ______ ____
ROOT
ATOM      1  N   UNL     1      47.498   6.642  12.287  0.00  0.00    +0.000 N 
ATOM      2  H   UNL     1      48.326   7.236  12.289  0.00  0.00    +0.000 HD
ENDROOT
BRANCH   1   3
ATOM      3  C   UNL     1      47.402   5.913  13.476  0.00  0.00    +0.000 A 
ATOM      4  C   UNL     1      46.688   4.722  13.600  0.00  0.00    +0.000 A 
ATOM      5  C   UNL     1      46.733   3.983  14.785  0.00  0.00    +0.000 A 
ATOM      6  C   UNL     1      47.512   4.448  15.830  0.00  0.00    +0.000 A 
ATOM      7  N   UNL     1      48.238   5.595  15.773  0.00  0.00    +0.000 NA
ATOM      8  C   UNL     1      48.171   6.273  14.596  0.00  0.00    +0.000 A 
BRANCH   6   9
ATOM      9  C   UNL     1      47.600   3.640  17.091  0.00  0.00    +0.000 C 
ATOM     10  N   UNL     1      48.744   3.798  17.825  0.00  0.00    +0.000 N 
ATOM     11  O   UNL     1      46.712   2.875  17.444  0.00  0.00    +0.000 OA
ATOM     12  H   UNL     1      49.476   4.415  17.493  0.00  0.00    +0.000 HD
ATOM     13  H   UNL     1      48.874   3.242  18.657  0.00  0.00    +0.000 HD
ENDBRANCH   6   9
ENDBRANCH   1   3
BRANCH   1  15
ATOM     14  C   UNL     1      45.553   8.131  12.764  0.00  0.00    +0.000 C 
ATOM     15  C   UNL     1      46.342   7.346  11.712  0.00  0.00    +0.000 C 
BRANCH  15  16
ATOM     16  C   UNL     1      45.431   6.300  11.071  0.00  0.00    +0.000 A 
ATOM     17  C   UNL     1      44.113   6.112  11.519  0.00  0.00    +0.000 A 
ATOM     18  C   UNL     1      43.291   5.146  10.939  0.00  0.00    +0.000 A 
ATOM     19  C   UNL     1      43.771   4.359   9.894  0.00  0.00    +0.000 A 
ATOM     20  C   UNL     1      45.075   4.537   9.412  0.00  0.00    +0.000 A 
ATOM     21  C   UNL     1      45.901   5.503  10.017  0.00  0.00    +0.000 A 
BRANCH  20  22
ATOM     22  C   UNL     1      45.597   3.727   8.251  0.00  0.00    +0.000 C 
ATOM     23  F   UNL     1      46.044   2.490   8.603  0.00  0.00    +0.000 F 
ATOM     24  F   UNL     1      44.646   3.523   7.297  0.00  0.00    +0.000 F 
ATOM     25  F   UNL     1      46.638   4.335   7.616  0.00  0.00    +0.000 F 
ENDBRANCH  20  22
ENDBRANCH  15  16
ENDBRANCH   1  15
TORSDOF 5
ENDMDL
MODEL 6
REMARK VINA RESULT:    -6.689      4.061      6.693
REMARK INTER + INTRA:          -9.549
REMARK INTER:                  -8.738
REMARK INTRA:                  -0.811
REMARK UNBOUND:                -0.905
REMARK  Name = 
REMARK  6 active torsions:
REMARK  status: ('A' for Active; 'I' for Inactive)
REMARK    1  A    between atoms: C_1  and  C_2
REMARK    2  A    between atoms: C_2  and  N_3
REMARK    3  A    between atoms: C_2  and  C_13
REMARK    4  A    between atoms: N_3  and  C_4
REMARK    5  A    between atoms: C_7  and  C_8
REMARK    6  A    between atoms: C_17  and  C_18
REMARK                            x       y       z     vdW  Elec       q    Type
REMARK                         _______ _______ _______ _____ _____    ______ ____
ROOT
ATOM      1  N   UNL     1      45.030   5.612  12.144  0.00  0.00    +0.000 N 
ATOM      2  H   UNL     1      45.503   4.727  12.318  0.00  0.00    +0.000 HD
ENDROOT
BRANCH   1   3
ATOM      3  C   UNL     1      45.920   6.685  12.252  0.00  0.00    +0.000 A 
ATOM      4  C   UNL     1      47.229   6.659  11.775  0.00  0.00    +0.000 A 
ATOM      5  C   UNL     1      48.025   7.806  11.808  0.00  0.00    +0.000 A 
ATOM      6  C   UNL     1      47.485   8.976  12.313  0.00  0.00    +0.000 A 
ATOM      7  N   UNL     1      46.214   9.073  12.787  0.00  0.00    +0.000 NA
ATOM      8  C   UNL     1      45.476   7.933  12.722  0.00  0.00    +0.000 A 
BRANCH   6   9
ATOM      9  C   UNL     1      48.317  10.224  12.315  0.00  0.00    +0.000 C 
ATOM     10  N   UNL     1      47.945  11.190  13.209  0.00  0.00    +0.000 N 
ATOM     11  O   UNL     1      49.265  10.382  11.558  0.00  0.00    +0.000 OA
ATOM     12  H   UNL     1      47.136  11.047  13.802  0.00  0.00    +0.000 HD
ATOM     13  H   UNL     1      48.443  12.068  13.219  0.00  0.00    +0.000 HD
ENDBRANCH   6   9
ENDBRANCH   1   3
BRANCH   1  15
ATOM     14  C   UNL     1      42.633   5.373  11.496  0.00  0.00    +0.000 C 
ATOM     15  C   UNL     1      44.085   5.496  11.024  0.00  0.00    +0.000 C 
BRANCH  15  16
ATOM     16  C   UNL     1      44.463   4.254  10.220  0.00  0.00    +0.000 A 
ATOM     17  C   UNL     1      43.914   2.997  10.523  0.00  0.00    +0.000 A 
ATOM     18  C   UNL     1      44.275   1.864   9.793  0.00  0.00    +0.000 A 
ATOM     19  C   UNL     1      45.184   1.972   8.743  0.00  0.00    +0.000 A 
ATOM     20  C   UNL     1      45.734   3.216   8.405  0.00  0.00    +0.000 A 
ATOM     21  C   UNL     1      45.376   4.349   9.159  0.00  0.00    +0.000 A 
BRANCH  20  22
ATOM     22  C   UNL     1      46.683   3.361   7.241  0.00  0.00    +0.000 C 
ATOM     23  F   UNL     1      47.739   2.502   7.285  0.00  0.00    +0.000 F 
ATOM     24  F   UNL     1      46.071   3.137   6.046  0.00  0.00    +0.000 F 
ATOM     25  F   UNL     1      47.220   4.610   7.157  0.00  0.00    +0.000 F 
ENDBRANCH  20  22
ENDBRANCH  15  16
ENDBRANCH   1  15
TORSDOF 5
ENDMDL
MODEL 7
REMARK VINA RESULT:    -6.139      5.517      7.613
REMARK INTER + INTRA:          -8.838
REMARK INTER:                  -8.202
REMARK INTRA:                  -0.636
REMARK UNBOUND:                -0.905
REMARK  Name = 
REMARK  6 active torsions:
REMARK  status: ('A' for Active; 'I' for Inactive)
REMARK    1  A    between atoms: C_1  and  C_2
REMARK    2  A    between atoms: C_2  and  N_3
REMARK    3  A    between atoms: C_2  and  C_13
REMARK    4  A    between atoms: N_3  and  C_4
REMARK    5  A    between atoms: C_7  and  C_8
REMARK    6  A    between atoms: C_17  and  C_18
REMARK                            x       y       z     vdW  Elec       q    Type
REMARK                         _______ _______ _______ _____ _____    ______ ____
ROOT
ATOM      1  N   UNL     1      46.541   5.014  14.774  0.00  0.00    +0.000 N 
ATOM      2  H   UNL     1      45.654   4.556  14.977  0.00  0.00    +0.000 HD
ENDROOT
BRANCH   1   3
ATOM      3  C   UNL     1      47.524   4.630  15.689  0.00  0.00    +0.000 A 
ATOM      4  C   UNL     1      47.669   3.330  16.173  0.00  0.00    +0.000 A 
ATOM      5  C   UNL     1      48.747   2.989  16.993  0.00  0.00    +0.000 A 
ATOM      6  C   UNL     1      49.679   3.963  17.307  0.00  0.00    +0.000 A 
ATOM      7  N   UNL     1      49.603   5.246  16.863  0.00  0.00    +0.000 NA
ATOM      8  C   UNL     1      48.543   5.525  16.059  0.00  0.00    +0.000 A 
BRANCH   6   9
ATOM      9  C   UNL     1      50.862   3.597  18.152  0.00  0.00    +0.000 C 
ATOM     10  N   UNL     1      51.302   2.306  18.039  0.00  0.00    +0.000 N 
ATOM     11  O   UNL     1      51.402   4.394  18.907  0.00  0.00    +0.000 OA
ATOM     12  H   UNL     1      50.818   1.657  17.429  0.00  0.00    +0.000 HD
ATOM     13  H   UNL     1      52.066   1.995  18.621  0.00  0.00    +0.000 HD
ENDBRANCH   6   9
ENDBRANCH   1   3
BRANCH   1  15
ATOM     14  C   UNL     1      47.109   6.466  12.826  0.00  0.00    +0.000 C 
ATOM     15  C   UNL     1      46.798   5.052  13.327  0.00  0.00    +0.000 C 
BRANCH  15  16
ATOM     16  C   UNL     1      45.552   4.526  12.617  0.00  0.00    +0.000 A 
ATOM     17  C   UNL     1      44.267   4.759  13.135  0.00  0.00    +0.000 A 
ATOM     18  C   UNL     1      43.135   4.263  12.489  0.00  0.00    +0.000 A 
ATOM     19  C   UNL     1      43.268   3.534  11.309  0.00  0.00    +0.000 A 
ATOM     20  C   UNL     1      44.536   3.302  10.757  0.00  0.00    +0.000 A 
ATOM     21  C   UNL     1      45.673   3.792  11.427  0.00  0.00    +0.000 A 
BRANCH  20  22
ATOM     22  C   UNL     1      44.697   2.556   9.456  0.00  0.00    +0.000 C 
ATOM     23  F   UNL     1      44.052   1.357   9.429  0.00  0.00    +0.000 F 
ATOM     24  F   UNL     1      44.218   3.262   8.395  0.00  0.00    +0.000 F 
ATOM     25  F   UNL     1      46.001   2.288   9.167  0.00  0.00    +0.000 F 
ENDBRANCH  20  22
ENDBRANCH  15  16
ENDBRANCH   1  15
TORSDOF 5
ENDMDL
MODEL 8
REMARK VINA RESULT:    -5.876      3.940      5.936
REMARK INTER + INTRA:          -8.499
REMARK INTER:                  -7.960
REMARK INTRA:                  -0.539
REMARK UNBOUND:                -0.905
REMARK  Name = 
REMARK  6 active torsions:
REMARK  status: ('A' for Active; 'I' for Inactive)
REMARK    1  A    between atoms: C_1  and  C_2
REMARK    2  A    between atoms: C_2  and  N_3
REMARK    3  A    between atoms: C_2  and  C_13
REMARK    4  A    between atoms: N_3  and  C_4
REMARK    5  A    between atoms: C_7  and  C_8
REMARK    6  A    between atoms: C_17  and  C_18
REMARK                            x       y       z     vdW  Elec       q    Type
REMARK                         _______ _______ _______ _____ _____    ______ ____
ROOT
ATOM      1  N   UNL     1      47.018   7.325  13.953  0.00  0.00    +0.000 N 
ATOM      2  H   UNL     1      46.539   8.220  14.043  0.00  0.00    +0.000 HD
ENDROOT
BRANCH   1   3
ATOM      3  C   UNL     1      46.357   6.492  13.047  0.00  0.00    +0.000 A 
ATOM      4  C   UNL     1      46.237   5.112  13.207  0.00  0.00    +0.000 A 
ATOM      5  C   UNL     1      45.460   4.356  12.325  0.00  0.00    +0.000 A 
ATOM      6  C   UNL     1      44.800   5.005  11.296  0.00  0.00    +0.000 A 
ATOM      7  N   UNL     1      44.868   6.346  11.087  0.00  0.00    +0.000 NA
ATOM      8  C   UNL     1      45.626   7.040  11.978  0.00  0.00    +0.000 A 
BRANCH   6   9
ATOM      9  C   UNL     1      43.931   4.208  10.369  0.00  0.00    +0.000 C 
ATOM     10  N   UNL     1      44.012   4.534   9.043  0.00  0.00    +0.000 N 
ATOM     11  O   UNL     1      43.183   3.325  10.767  0.00  0.00    +0.000 OA
ATOM     12  H   UNL     1      44.617   5.290   8.744  0.00  0.00    +0.000 HD
ATOM     13  H   UNL     1      43.413   4.060   8.383  0.00  0.00    +0.000 HD
ENDBRANCH   6   9
ENDBRANCH   1   3
BRANCH   1  15
ATOM     14  C   UNL     1      49.108   6.938  12.647  0.00  0.00    +0.000 C 
ATOM     15  C   UNL     1      48.477   7.506  13.921  0.00  0.00    +0.000 C 
BRANCH  15  16
ATOM     16  C   UNL     1      49.063   6.793  15.138  0.00  0.00    +0.000 A 
ATOM     17  C   UNL     1      50.376   7.049  15.568  0.00  0.00    +0.000 A 
ATOM     18  C   UNL     1      50.910   6.383  16.672  0.00  0.00    +0.000 A 
ATOM     19  C   UNL     1      50.135   5.458  17.369  0.00  0.00    +0.000 A 
ATOM     20  C   UNL     1      48.816   5.196  16.976  0.00  0.00    +0.000 A 
ATOM     21  C   UNL     1      48.294   5.860  15.850  0.00  0.00    +0.000 A 
BRANCH  20  22
ATOM     22  C   UNL     1      47.947   4.233  17.746  0.00  0.00    +0.000 C 
ATOM     23  F   UNL     1      48.517   3.782  18.898  0.00  0.00    +0.000 F 
ATOM     24  F   UNL     1      46.759   4.790  18.112  0.00  0.00    +0.000 F 
ATOM     25  F   UNL     1      47.631   3.122  17.024  0.00  0.00    +0.000 F 
ENDBRANCH  20  22
ENDBRANCH  15  16
ENDBRANCH   1  15
TORSDOF 5
ENDMDL
MODEL 9
REMARK VINA RESULT:    -5.717      4.881      7.144
REMARK INTER + INTRA:          -8.293
REMARK INTER:                  -7.570
REMARK INTRA:                  -0.724
REMARK UNBOUND:                -0.905
REMARK  Name = 
REMARK  6 active torsions:
REMARK  status: ('A' for Active; 'I' for Inactive)
REMARK    1  A    between atoms: C_1  and  C_2
REMARK    2  A    between atoms: C_2  and  N_3
REMARK    3  A    between atoms: C_2  and  C_13
REMARK    4  A    between atoms: N_3  and  C_4
REMARK    5  A    between atoms: C_7  and  C_8
REMARK    6  A    between atoms: C_17  and  C_18
REMARK                            x       y       z     vdW  Elec       q    Type
REMARK                         _______ _______ _______ _____ _____    ______ ____
ROOT
ATOM      1  N   UNL     1      47.245   6.565  12.541  0.00  0.00    +0.000 N 
ATOM      2  H   UNL     1      47.296   5.572  12.320  0.00  0.00    +0.000 HD
ENDROOT
BRANCH   1   3
ATOM      3  C   UNL     1      48.524   7.114  12.676  0.00  0.00    +0.000 A 
ATOM      4  C   UNL     1      49.215   7.736  11.638  0.00  0.00    +0.000 A 
ATOM      5  C   UNL     1      50.438   8.368  11.872  0.00  0.00    +0.000 A 
ATOM      6  C   UNL     1      50.947   8.377  13.159  0.00  0.00    +0.000 A 
ATOM      7  N   UNL     1      50.322   7.797  14.218  0.00  0.00    +0.000 NA
ATOM      8  C   UNL     1      49.130   7.205  13.942  0.00  0.00    +0.000 A 
BRANCH   6   9
ATOM      9  C   UNL     1      52.239   9.089  13.429  0.00  0.00    +0.000 C 
ATOM     10  N   UNL     1      52.193  10.075  14.377  0.00  0.00    +0.000 N 
ATOM     11  O   UNL     1      53.274   8.820  12.835  0.00  0.00    +0.000 OA
ATOM     12  H   UNL     1      51.316  10.299  14.832  0.00  0.00    +0.000 HD
ATOM     13  H   UNL     1      53.024  10.616  14.563  0.00  0.00    +0.000 HD
ENDBRANCH   6   9
ENDBRANCH   1   3
BRANCH   1  15
ATOM     14  C   UNL     1      45.308   8.136  12.619  0.00  0.00    +0.000 C 
ATOM     15  C   UNL     1      46.194   7.229  11.758  0.00  0.00    +0.000 C 
BRANCH  15  16
ATOM     16  C   UNL     1      45.333   6.143  11.116  0.00  0.00    +0.000 A 
ATOM     17  C   UNL     1      44.044   5.858  11.596  0.00  0.00    +0.000 A 
ATOM     18  C   UNL     1      43.269   4.855  11.014  0.00  0.00    +0.000 A 
ATOM     19  C   UNL     1      43.768   4.127   9.935  0.00  0.00    +0.000 A 
ATOM     20  C   UNL     1      45.042   4.402   9.421  0.00  0.00    +0.000 A 
ATOM     21  C   UNL     1      45.822   5.404  10.028  0.00  0.00    +0.000 A 
BRANCH  20  22
ATOM     22  C   UNL     1      45.580   3.657   8.224  0.00  0.00    +0.000 C 
ATOM     23  F   UNL     1      46.628   4.280   7.617  0.00  0.00    +0.000 F 
ATOM     24  F   UNL     1      46.024   2.412   8.550  0.00  0.00    +0.000 F 
ATOM     25  F   UNL     1      44.639   3.476   7.256  0.00  0.00    +0.000 F 
ENDBRANCH  20  22
ENDBRANCH  15  16
ENDBRANCH   1  15
TORSDOF 5
ENDMDL
