MODEL 1
REMARK VINA RESULT:    -7.658      0.000      0.000
REMARK INTER + INTRA:         -10.581
REMARK INTER:                  -9.897
REMARK INTRA:                  -0.684
REMARK UNBOUND:                -0.684
REMARK  Name = 
REMARK  6 active torsions:
REMARK  status: ('A' for Active; 'I' for Inactive)
REMARK    1  A    between atoms: C_1  and  O_2
REMARK    2  A    between atoms: O_2  and  C_3
REMARK    3  A    between atoms: C_7  and  N_8
REMARK    4  A    between atoms: N_8  and  C_9
REMARK    5  A    between atoms: C_9  and  C_10
REMARK    6  A    between atoms: C_14  and  C_15
REMARK                            x       y       z     vdW  Elec       q    Type
REMARK                         _______ _______ _______ _____ _____    ______ ____
ROOT
ATOM      1  C   UNL     1      43.923   4.816  10.699  0.00  0.00    +0.000 A 
ATOM      2  C   UNL     1      43.257   3.820  11.421  0.00  0.00    +0.000 A 
ATOM      3  C   UNL     1      43.441   2.479  11.097  0.00  0.00    +0.000 A 
ATOM      4  C   UNL     1      44.297   2.120  10.052  0.00  0.00    +0.000 A 
ATOM      5  C   UNL     1      44.990   3.090   9.307  0.00  0.00    +0.000 A 
ATOM      6  C   UNL     1      44.798   4.438   9.665  0.00  0.00    +0.000 A 
ENDROOT
BRANCH   5   7
ATOM      7  C   UNL     1      45.851   2.718   8.164  0.00  0.00    +0.000 A 
ATOM      8  C   UNL     1      46.132   3.603   7.112  0.00  0.00    +0.000 A 
ATOM      9  C   UNL     1      46.918   3.198   6.033  0.00  0.00    +0.000 A 
ATOM     10  C   UNL     1      47.421   1.910   6.030  0.00  0.00    +0.000 A 
ATOM     11  N   UNL     1      47.190   1.021   7.014  0.00  0.00    +0.000 NA
ATOM     12  C   UNL     1      46.415   1.443   8.044  0.00  0.00    +0.000 A 
ENDBRANCH   5   7
BRANCH   1  13
ATOM     13  C   UNL     1      43.676   6.274  10.994  0.00  0.00    +0.000 C 
BRANCH  13  14
ATOM     14  N   UNL     1      43.955   6.573  12.389  0.00  0.00    +0.000 N 
ATOM     15  H   UNL     1      43.226   6.262  13.028  0.00  0.00    +0.000 HD
BRANCH  14  20
ATOM     16  C   UNL     1      46.972   5.079  14.006  0.00  0.00    +0.000 A 
ATOM     17  C   UNL     1      47.880   6.073  13.658  0.00  0.00    +0.000 A 
ATOM     18  N   UNL     1      47.558   7.186  12.958  0.00  0.00    +0.000 NA
ATOM     19  C   UNL     1      46.260   7.301  12.588  0.00  0.00    +0.000 A 
ATOM     20  C   UNL     1      45.244   6.387  12.896  0.00  0.00    +0.000 A 
ATOM     21  C   UNL     1      45.648   5.246  13.599  0.00  0.00    +0.000 A 
BRANCH  16  23
ATOM     22  C   UNL     1      47.483   4.145  16.129  0.00  0.00    +0.000 C 
ATOM     23  O   UNL     1      47.475   4.023  14.712  0.00  0.00    +0.000 OA
ENDBRANCH  16  23
ENDBRANCH  14  20
ENDBRANCH  13  14
ENDBRANCH   1  13
TORSDOF 5
ENDMDL
MODEL 2
REMARK VINA RESULT:    -7.500      2.606      6.698
REMARK INTER + INTRA:         -10.376
REMARK INTER:                  -9.583
REMARK INTRA:                  -0.793
REMARK UNBOUND:                -0.684
REMARK  Name = 
REMARK  6 active torsions:
REMARK  status: ('A' for Active; 'I' for Inactive)
REMARK    1  A    between atoms: C_1  and  O_2
REMARK    2  A    between atoms: O_2  and  C_3
REMARK    3  A    between atoms: C_7  and  N_8
REMARK    4  A    between atoms: N_8  and  C_9
REMARK    5  A    between atoms: C_9  and  C_10
REMARK    6  A    between atoms: C_14  and  C_15
REMARK                            x       y       z     vdW  Elec       q    Type
REMARK                         _______ _______ _______ _____ _____    ______ ____
ROOT
ATOM      1  C   UNL     1      44.758   4.956  11.576  0.00  0.00    +0.000 A 
ATOM      2  C   UNL     1      45.186   4.041  12.544  0.00  0.00    +0.000 A 
ATOM      3  C   UNL     1      46.282   4.335  13.349  0.00  0.00    +0.000 A 
ATOM      4  C   UNL     1      46.958   5.549  13.199  0.00  0.00    +0.000 A 
ATOM      5  C   UNL     1      46.556   6.499  12.243  0.00  0.00    +0.000 A 
ATOM      6  C   UNL     1      45.435   6.182  11.452  0.00  0.00    +0.000 A 
ENDROOT
BRANCH   5   7
ATOM      7  C   UNL     1      47.303   7.758  12.041  0.00  0.00    +0.000 A 
ATOM      8  C   UNL     1      48.666   7.781  11.709  0.00  0.00    +0.000 A 
ATOM      9  C   UNL     1      49.343   8.993  11.566  0.00  0.00    +0.000 A 
ATOM     10  C   UNL     1      48.637  10.168  11.748  0.00  0.00    +0.000 A 
ATOM     11  N   UNL     1      47.328  10.206  12.061  0.00  0.00    +0.000 NA
ATOM     12  C   UNL     1      46.701   9.011  12.202  0.00  0.00    +0.000 A 
ENDBRANCH   5   7
BRANCH   1  13
ATOM     13  C   UNL     1      43.617   4.617  10.650  0.00  0.00    +0.000 C 
BRANCH  13  14
ATOM     14  N   UNL     1      44.048   4.662   9.262  0.00  0.00    +0.000 N 
ATOM     15  H   UNL     1      44.349   5.585   8.956  0.00  0.00    +0.000 HD
BRANCH  14  20
ATOM     16  C   UNL     1      46.745   2.770   7.503  0.00  0.00    +0.000 A 
ATOM     17  C   UNL     1      46.415   1.501   7.966  0.00  0.00    +0.000 A 
ATOM     18  N   UNL     1      45.370   1.240   8.787  0.00  0.00    +0.000 NA
ATOM     19  C   UNL     1      44.625   2.308   9.161  0.00  0.00    +0.000 A 
ATOM     20  C   UNL     1      44.835   3.629   8.745  0.00  0.00    +0.000 A 
ATOM     21  C   UNL     1      45.947   3.835   7.918  0.00  0.00    +0.000 A 
BRANCH  16  23
ATOM     22  C   UNL     1      47.632   2.528   5.313  0.00  0.00    +0.000 C 
ATOM     23  O   UNL     1      47.836   2.848   6.684  0.00  0.00    +0.000 OA
ENDBRANCH  16  23
ENDBRANCH  14  20
ENDBRANCH  13  14
ENDBRANCH   1  13
TORSDOF 5
ENDMDL
MODEL 3
REMARK VINA RESULT:    -7.140      2.406      7.231
REMARK INTER + INTRA:          -9.911
REMARK INTER:                  -9.193
REMARK INTRA:                  -0.718
REMARK UNBOUND:                -0.684
REMARK  Name = 
REMARK  6 active torsions:
REMARK  status: ('A' for Active; 'I' for Inactive)
REMARK    1  A    between atoms: C_1  and  O_2
REMARK    2  A    between atoms: O_2  and  C_3
REMARK    3  A    between atoms: C_7  and  N_8
REMARK    4  A    between atoms: N_8  and  C_9
REMARK    5  A    between atoms: C_9  and  C_10
REMARK    6  A    between atoms: C_14  and  C_15
REMARK                            x       y       z     vdW  Elec       q    Type
REMARK                         _______ _______ _______ _____ _____    ______ ____
ROOT
ATOM      1  C   UNL     1      45.498   5.680  12.246  0.00  0.00    +0.000 A 
ATOM      2  C   UNL     1      46.315   6.586  11.562  0.00  0.00    +0.000 A 
ATOM      3  C   UNL     1      47.547   6.956  12.093  0.00  0.00    +0.000 A 
ATOM      4  C   UNL     1      47.976   6.421  13.311  0.00  0.00    +0.000 A 
ATOM      5  C   UNL     1      47.188   5.502  14.027  0.00  0.00    +0.000 A 
ATOM      6  C   UNL     1      45.953   5.133  13.459  0.00  0.00    +0.000 A 
ENDROOT
BRANCH   5   7
ATOM      7  C   UNL     1      47.611   4.978  15.342  0.00  0.00    +0.000 A 
ATOM      8  C   UNL     1      47.177   3.739  15.836  0.00  0.00    +0.000 A 
ATOM      9  C   UNL     1      47.570   3.299  17.100  0.00  0.00    +0.000 A 
ATOM     10  C   UNL     1      48.405   4.108  17.849  0.00  0.00    +0.000 A 
ATOM     11  N   UNL     1      48.857   5.303  17.425  0.00  0.00    +0.000 NA
ATOM     12  C   UNL     1      48.450   5.705  16.195  0.00  0.00    +0.000 A 
ENDBRANCH   5   7
BRANCH   1  13
ATOM     13  C   UNL     1      44.131   5.327  11.716  0.00  0.00    +0.000 C 
BRANCH  13  14
ATOM     14  N   UNL     1      44.116   5.367  10.262  0.00  0.00    +0.000 N 
ATOM     15  H   UNL     1      44.375   6.272   9.875  0.00  0.00    +0.000 HD
BRANCH  14  20
ATOM     16  C   UNL     1      46.100   3.305   7.862  0.00  0.00    +0.000 A 
ATOM     17  C   UNL     1      45.696   2.053   8.315  0.00  0.00    +0.000 A 
ATOM     18  N   UNL     1      44.817   1.858   9.325  0.00  0.00    +0.000 NA
ATOM     19  C   UNL     1      44.322   2.976   9.909  0.00  0.00    +0.000 A 
ATOM     20  C   UNL     1      44.626   4.290   9.531  0.00  0.00    +0.000 A 
ATOM     21  C   UNL     1      45.561   4.424   8.498  0.00  0.00    +0.000 A 
BRANCH  16  23
ATOM     22  C   UNL     1      47.918   2.228   6.778  0.00  0.00    +0.000 C 
ATOM     23  O   UNL     1      46.999   3.313   6.834  0.00  0.00    +0.000 OA
ENDBRANCH  16  23
ENDBRANCH  14  20
ENDBRANCH  13  14
ENDBRANCH   1  13
TORSDOF 5
ENDMDL
MODEL 4
REMARK VINA RESULT:    -6.456      2.410      4.573
REMARK INTER + INTRA:          -9.027
REMARK INTER:                  -8.408
REMARK INTRA:                  -0.619
REMARK UNBOUND:                -0.684
REMARK  Name = 
REMARK  6 active torsions:
REMARK  status: ('A' for Active; 'I' for Inactive)
REMARK    1  A    between atoms: C_1  and  O_2
REMARK    2  A    between atoms: O_2  and  C_3
REMARK    3  A    between atoms: C_7  and  N_8
REMARK    4  A    between atoms: N_8  and  C_9
REMARK    5  A    between atoms: C_9  and  C_10
REMARK    6  A    between atoms: C_14  and  C_15
REMARK                            x       y       z     vdW  Elec       q    Type
REMARK                         _______ _______ _______ _____ _____    ______ ____
ROOT
ATOM      1  C   UNL     1      47.117   7.178  13.128  0.00  0.00    +0.000 A 
ATOM      2  C   UNL     1      46.349   8.346  13.101  0.00  0.00    +0.000 A 
ATOM      3  C   UNL     1      45.252   8.443  12.250  0.00  0.00    +0.000 A 
ATOM      4  C   UNL     1      44.909   7.371  11.422  0.00  0.00    +0.000 A 
ATOM      5  C   UNL     1      45.651   6.176  11.424  0.00  0.00    +0.000 A 
ATOM      6  C   UNL     1      46.746   6.099  12.306  0.00  0.00    +0.000 A 
ENDROOT
BRANCH   5   7
ATOM      7  C   UNL     1      45.326   5.061  10.509  0.00  0.00    +0.000 A 
ATOM      8  C   UNL     1      45.700   5.062   9.157  0.00  0.00    +0.000 A 
ATOM      9  C   UNL     1      45.340   4.008   8.319  0.00  0.00    +0.000 A 
ATOM     10  C   UNL     1      44.615   2.958   8.853  0.00  0.00    +0.000 A 
ATOM     11  N   UNL     1      44.234   2.901  10.143  0.00  0.00    +0.000 NA
ATOM     12  C   UNL     1      44.593   3.946  10.930  0.00  0.00    +0.000 A 
ENDBRANCH   5   7
BRANCH   1  13
ATOM     13  C   UNL     1      48.349   7.089  13.993  0.00  0.00    +0.000 C 
BRANCH  13  14
ATOM     14  N   UNL     1      47.989   6.836  15.379  0.00  0.00    +0.000 N 
ATOM     15  H   UNL     1      47.096   7.240  15.650  0.00  0.00    +0.000 HD
BRANCH  14  20
ATOM     16  C   UNL     1      49.369   4.034  17.428  0.00  0.00    +0.000 A 
ATOM     17  C   UNL     1      48.405   3.082  17.114  0.00  0.00    +0.000 A 
ATOM     18  N   UNL     1      47.367   3.301  16.273  0.00  0.00    +0.000 NA
ATOM     19  C   UNL     1      47.295   4.538  15.725  0.00  0.00    +0.000 A 
ATOM     20  C   UNL     1      48.213   5.574  15.937  0.00  0.00    +0.000 A 
ATOM     21  C   UNL     1      49.248   5.292  16.837  0.00  0.00    +0.000 A 
BRANCH  16  23
ATOM     22  C   UNL     1      51.470   2.970  17.741  0.00  0.00    +0.000 C 
ATOM     23  O   UNL     1      50.345   3.640  18.299  0.00  0.00    +0.000 OA
ENDBRANCH  16  23
ENDBRANCH  14  20
ENDBRANCH  13  14
ENDBRANCH   1  13
TORSDOF 5
ENDMDL
MODEL 5
REMARK VINA RESULT:    -6.453      2.509      7.095
REMARK INTER + INTRA:          -9.023
REMARK INTER:                  -8.285
REMARK INTRA:                  -0.739
REMARK UNBOUND:                -0.684
REMARK  Name = 
REMARK  6 active torsions:
REMARK  status: ('A' for Active; 'I' for Inactive)
REMARK    1  A    between atoms: C_1  and  O_2
REMARK    2  A    between atoms: O_2  and  C_3
REMARK    3  A    between atoms: C_7  and  N_8
REMARK    4  A    between atoms: N_8  and  C_9
REMARK    5  A    between atoms: C_9  and  C_10
REMARK    6  A    between atoms: C_14  and  C_15
REMARK                            x       y       z     vdW  Elec       q    Type
REMARK                         _______ _______ _______ _____ _____    ______ ____
ROOT
ATOM      1  C   UNL     1      44.980   6.213  12.204  0.00  0.00    +0.000 A 
ATOM      2  C   UNL     1      44.534   7.425  11.669  0.00  0.00    +0.000 A 
ATOM      3  C   UNL     1      45.281   8.586  11.845  0.00  0.00    +0.000 A 
ATOM      4  C   UNL     1      46.484   8.546  12.555  0.00  0.00    +0.000 A 
ATOM      5  C   UNL     1      46.971   7.346  13.103  0.00  0.00    +0.000 A 
ATOM      6  C   UNL     1      46.204   6.184  12.896  0.00  0.00    +0.000 A 
ENDROOT
BRANCH   5   7
ATOM      7  C   UNL     1      48.214   7.309  13.903  0.00  0.00    +0.000 A 
ATOM      8  C   UNL     1      49.333   8.095  13.595  0.00  0.00    +0.000 A 
ATOM      9  C   UNL     1      50.500   8.001  14.353  0.00  0.00    +0.000 A 
ATOM     10  C   UNL     1      50.524   7.123  15.421  0.00  0.00    +0.000 A 
ATOM     11  N   UNL     1      49.478   6.347  15.767  0.00  0.00    +0.000 NA
ATOM     12  C   UNL     1      48.362   6.457  15.004  0.00  0.00    +0.000 A 
ENDBRANCH   5   7
BRANCH   1  13
ATOM     13  C   UNL     1      44.143   4.965  12.080  0.00  0.00    +0.000 C 
BRANCH  13  14
ATOM     14  N   UNL     1      43.603   4.837  10.736  0.00  0.00    +0.000 N 
ATOM     15  H   UNL     1      43.275   5.715  10.342  0.00  0.00    +0.000 HD
BRANCH  14  20
ATOM     16  C   UNL     1      45.712   3.653   7.890  0.00  0.00    +0.000 A 
ATOM     17  C   UNL     1      45.634   2.291   8.155  0.00  0.00    +0.000 A 
ATOM     18  N   UNL     1      44.929   1.754   9.179  0.00  0.00    +0.000 NA
ATOM     19  C   UNL     1      44.274   2.633   9.975  0.00  0.00    +0.000 A 
ATOM     20  C   UNL     1      44.249   4.023   9.801  0.00  0.00    +0.000 A 
ATOM     21  C   UNL     1      45.019   4.515   8.740  0.00  0.00    +0.000 A 
BRANCH  16  23
ATOM     22  C   UNL     1      46.916   2.968   5.961  0.00  0.00    +0.000 C 
ATOM     23  O   UNL     1      46.474   4.016   6.815  0.00  0.00    +0.000 OA
ENDBRANCH  16  23
ENDBRANCH  14  20
ENDBRANCH  13  14
ENDBRANCH   1  13
TORSDOF 5
ENDMDL
MODEL 6
REMARK VINA RESULT:    -6.374      2.671      6.954
REMARK INTER + INTRA:          -8.922
REMARK INTER:                  -8.287
REMARK INTRA:                  -0.635
REMARK UNBOUND:                -0.684
REMARK  Name = 
REMARK  6 active torsions:
REMARK  status: ('A' for Active; 'I' for Inactive)
REMARK    1  A    between atoms: C_1  and  O_2
REMARK    2  A    between atoms: O_2  and  C_3
REMARK    3  A    between atoms: C_7  and  N_8
REMARK    4  A    between atoms: N_8  and  C_9
REMARK    5  A    between atoms: C_9  and  C_10
REMARK    6  A    between atoms: C_14  and  C_15
REMARK                            x       y       z     vdW  Elec       q    Type
REMARK                         _______ _______ _______ _____ _____    ______ ____
ROOT
ATOM      1  C   UNL     1      45.849   6.080  11.982  0.00  0.00    +0.000 A 
ATOM      2  C   UNL     1      45.422   5.069  12.849  0.00  0.00    +0.000 A 
ATOM      3  C   UNL     1      46.190   4.726  13.958  0.00  0.00    +0.000 A 
ATOM      4  C   UNL     1      47.391   5.395  14.213  0.00  0.00    +0.000 A 
ATOM      5  C   UNL     1      47.852   6.422  13.370  0.00  0.00    +0.000 A 
ATOM      6  C   UNL     1      47.047   6.759  12.265  0.00  0.00    +0.000 A 
ENDROOT
BRANCH   5   7
ATOM      7  C   UNL     1      49.149   7.091  13.604  0.00  0.00    +0.000 A 
ATOM      8  C   UNL     1      49.772   7.110  14.861  0.00  0.00    +0.000 A 
ATOM      9  C   UNL     1      50.977   7.788  15.048  0.00  0.00    +0.000 A 
ATOM     10  C   UNL     1      51.547   8.430  13.964  0.00  0.00    +0.000 A 
ATOM     11  N   UNL     1      50.998   8.441  12.735  0.00  0.00    +0.000 NA
ATOM     12  C   UNL     1      49.822   7.780  12.589  0.00  0.00    +0.000 A 
ENDBRANCH   5   7
BRANCH   1  13
ATOM     13  C   UNL     1      45.061   6.410  10.740  0.00  0.00    +0.000 C 
BRANCH  13  14
ATOM     14  N   UNL     1      44.139   5.334  10.413  0.00  0.00    +0.000 N 
ATOM     15  H   UNL     1      43.204   5.656  10.171  0.00  0.00    +0.000 HD
BRANCH  14  20
ATOM     16  C   UNL     1      45.897   3.279   7.837  0.00  0.00    +0.000 A 
ATOM     17  C   UNL     1      45.500   2.028   8.296  0.00  0.00    +0.000 A 
ATOM     18  N   UNL     1      44.692   1.830   9.364  0.00  0.00    +0.000 NA
ATOM     19  C   UNL     1      44.266   2.947  10.002  0.00  0.00    +0.000 A 
ATOM     20  C   UNL     1      44.570   4.262   9.627  0.00  0.00    +0.000 A 
ATOM     21  C   UNL     1      45.431   4.396   8.531  0.00  0.00    +0.000 A 
BRANCH  16  23
ATOM     22  C   UNL     1      47.906   2.508   6.831  0.00  0.00    +0.000 C 
ATOM     23  O   UNL     1      46.719   3.289   6.746  0.00  0.00    +0.000 OA
ENDBRANCH  16  23
ENDBRANCH  14  20
ENDBRANCH  13  14
ENDBRANCH   1  13
TORSDOF 5
ENDMDL
MODEL 7
REMARK VINA RESULT:    -6.180      2.697      7.509
REMARK INTER + INTRA:          -8.671
REMARK INTER:                  -7.960
REMARK INTRA:                  -0.710
REMARK UNBOUND:                -0.684
REMARK  Name = 
REMARK  6 active torsions:
REMARK  status: ('A' for Active; 'I' for Inactive)
REMARK    1  A    between atoms: C_1  and  O_2
REMARK    2  A    between atoms: O_2  and  C_3
REMARK    3  A    between atoms: C_7  and  N_8
REMARK    4  A    between atoms: N_8  and  C_9
REMARK    5  A    between atoms: C_9  and  C_10
REMARK    6  A    between atoms: C_14  and  C_15
REMARK                            x       y       z     vdW  Elec       q    Type
REMARK                         _______ _______ _______ _____ _____    ______ ____
ROOT
ATOM      1  C   UNL     1      47.733   6.842  12.633  0.00  0.00    +0.000 A 
ATOM      2  C   UNL     1      48.719   7.830  12.551  0.00  0.00    +0.000 A 
ATOM      3  C   UNL     1      49.591   8.039  13.615  0.00  0.00    +0.000 A 
ATOM      4  C   UNL     1      49.489   7.259  14.770  0.00  0.00    +0.000 A 
ATOM      5  C   UNL     1      48.516   6.250  14.890  0.00  0.00    +0.000 A 
ATOM      6  C   UNL     1      47.658   6.049  13.792  0.00  0.00    +0.000 A 
ENDROOT
BRANCH   5   7
ATOM      7  C   UNL     1      48.367   5.462  16.131  0.00  0.00    +0.000 A 
ATOM      8  C   UNL     1      47.455   4.402  16.246  0.00  0.00    +0.000 A 
ATOM      9  C   UNL     1      47.318   3.709  17.449  0.00  0.00    +0.000 A 
ATOM     10  C   UNL     1      48.108   4.083  18.520  0.00  0.00    +0.000 A 
ATOM     11  N   UNL     1      49.004   5.087  18.465  0.00  0.00    +0.000 NA
ATOM     12  C   UNL     1      49.107   5.747  17.284  0.00  0.00    +0.000 A 
ENDBRANCH   5   7
BRANCH   1  13
ATOM     13  C   UNL     1      46.738   6.655  11.515  0.00  0.00    +0.000 C 
BRANCH  13  14
ATOM     14  N   UNL     1      45.391   6.509  12.042  0.00  0.00    +0.000 N 
ATOM     15  H   UNL     1      44.795   7.316  11.872  0.00  0.00    +0.000 HD
BRANCH  14  20
ATOM     16  C   UNL     1      44.113   3.272  10.686  0.00  0.00    +0.000 A 
ATOM     17  C   UNL     1      43.512   2.807  11.851  0.00  0.00    +0.000 A 
ATOM     18  N   UNL     1      43.488   3.491  13.019  0.00  0.00    +0.000 NA
ATOM     19  C   UNL     1      44.101   4.699  13.014  0.00  0.00    +0.000 A 
ATOM     20  C   UNL     1      44.719   5.291  11.905  0.00  0.00    +0.000 A 
ATOM     21  C   UNL     1      44.732   4.521  10.736  0.00  0.00    +0.000 A 
BRANCH  16  23
ATOM     22  C   UNL     1      45.279   2.067   9.004  0.00  0.00    +0.000 C 
ATOM     23  O   UNL     1      44.044   2.445   9.601  0.00  0.00    +0.000 OA
ENDBRANCH  16  23
ENDBRANCH  14  20
ENDBRANCH  13  14
ENDBRANCH   1  13
TORSDOF 5
ENDMDL
MODEL 8
REMARK VINA RESULT:    -6.108      3.468      6.907
REMARK INTER + INTRA:          -8.577
REMARK INTER:                  -7.840
REMARK INTRA:                  -0.737
REMARK UNBOUND:                -0.684
REMARK  Name = 
REMARK  6 active torsions:
REMARK  status: ('A' for Active; 'I' for Inactive)
REMARK    1  A    between atoms: C_1  and  O_2
REMARK    2  A    between atoms: O_2  and  C_3
REMARK    3  A    between atoms: C_7  and  N_8
REMARK    4  A    between atoms: N_8  and  C_9
REMARK    5  A    between atoms: C_9  and  C_10
REMARK    6  A    between atoms: C_14  and  C_15
REMARK                            x       y       z     vdW  Elec       q    Type
REMARK                         _______ _______ _______ _____ _____    ______ ____
ROOT
ATOM      1  C   UNL     1      46.651   6.981  12.365  0.00  0.00    +0.000 A 
ATOM      2  C   UNL     1      46.907   6.356  13.590  0.00  0.00    +0.000 A 
ATOM      3  C   UNL     1      48.183   6.399  14.144  0.00  0.00    +0.000 A 
ATOM      4  C   UNL     1      49.214   7.070  13.480  0.00  0.00    +0.000 A 
ATOM      5  C   UNL     1      48.996   7.716  12.250  0.00  0.00    +0.000 A 
ATOM      6  C   UNL     1      47.692   7.671  11.721  0.00  0.00    +0.000 A 
ENDROOT
BRANCH   5   7
ATOM      7  C   UNL     1      50.096   8.377  11.518  0.00  0.00    +0.000 A 
ATOM      8  C   UNL     1      51.155   7.661  10.939  0.00  0.00    +0.000 A 
ATOM      9  C   UNL     1      52.194   8.328  10.290  0.00  0.00    +0.000 A 
ATOM     10  C   UNL     1      52.151   9.708  10.221  0.00  0.00    +0.000 A 
ATOM     11  N   UNL     1      51.158  10.447  10.753  0.00  0.00    +0.000 NA
ATOM     12  C   UNL     1      50.168   9.769  11.385  0.00  0.00    +0.000 A 
ENDBRANCH   5   7
BRANCH   1  13
ATOM     13  C   UNL     1      45.290   6.880  11.722  0.00  0.00    +0.000 C 
BRANCH  13  14
ATOM     14  N   UNL     1      44.784   5.519  11.796  0.00  0.00    +0.000 N 
ATOM     15  H   UNL     1      43.938   5.426  12.354  0.00  0.00    +0.000 HD
BRANCH  14  20
ATOM     16  C   UNL     1      45.555   4.101   8.427  0.00  0.00    +0.000 A 
ATOM     17  C   UNL     1      44.816   2.928   8.546  0.00  0.00    +0.000 A 
ATOM     18  N   UNL     1      44.084   2.598   9.636  0.00  0.00    +0.000 NA
ATOM     19  C   UNL     1      44.098   3.491  10.655  0.00  0.00    +0.000 A 
ATOM     20  C   UNL     1      44.777   4.716  10.651  0.00  0.00    +0.000 A 
ATOM     21  C   UNL     1      45.537   4.985   9.506  0.00  0.00    +0.000 A 
BRANCH  16  23
ATOM     22  C   UNL     1      46.474   3.097   6.481  0.00  0.00    +0.000 C 
ATOM     23  O   UNL     1      46.238   4.267   7.256  0.00  0.00    +0.000 OA
ENDBRANCH  16  23
ENDBRANCH  14  20
ENDBRANCH  13  14
ENDBRANCH   1  13
TORSDOF 5
ENDMDL
MODEL 9
REMARK VINA RESULT:    -5.802      3.285      5.939
REMARK INTER + INTRA:          -8.181
REMARK INTER:                  -7.501
REMARK INTRA:                  -0.681
REMARK UNBOUND:                -0.684
REMARK  Name = 
REMARK  6 active torsions:
REMARK  status: ('A' for Active; 'I' for Inactive)
REMARK    1  A    between atoms: C_1  and  O_2
REMARK    2  A    between atoms: O_2  and  C_3
REMARK    3  A    between atoms: C_7  and  N_8
REMARK    4  A    between atoms: N_8  and  C_9
REMARK    5  A    between atoms: C_9  and  C_10
REMARK    6  A    between atoms: C_14  and  C_15
REMARK                            x       y       z     vdW  Elec       q    Type
REMARK                         _______ _______ _______ _____ _____    ______ ____
ROOT
ATOM      1  C   UNL     1      48.569   7.305  14.065  0.00  0.00    +0.000 A 
ATOM      2  C   UNL     1      49.396   7.783  13.044  0.00  0.00    +0.000 A 
ATOM      3  C   UNL     1      48.997   7.683  11.714  0.00  0.00    +0.000 A 
ATOM      4  C   UNL     1      47.765   7.107  11.393  0.00  0.00    +0.000 A 
ATOM      5  C   UNL     1      46.901   6.620  12.390  0.00  0.00    +0.000 A 
ATOM      6  C   UNL     1      47.323   6.749  13.728  0.00  0.00    +0.000 A 
ENDROOT
BRANCH   5   7
ATOM      7  C   UNL     1      45.623   5.958  12.052  0.00  0.00    +0.000 A 
ATOM      8  C   UNL     1      44.574   5.829  12.974  0.00  0.00    +0.000 A 
ATOM      9  C   UNL     1      43.399   5.163  12.625  0.00  0.00    +0.000 A 
ATOM     10  C   UNL     1      43.289   4.642  11.349  0.00  0.00    +0.000 A 
ATOM     11  N   UNL     1      44.261   4.741  10.422  0.00  0.00    +0.000 NA
ATOM     12  C   UNL     1      45.394   5.387  10.795  0.00  0.00    +0.000 A 
ENDBRANCH   5   7
BRANCH   1  13
ATOM     13  C   UNL     1      49.023   7.343  15.502  0.00  0.00    +0.000 C 
BRANCH  13  14
ATOM     14  N   UNL     1      48.110   6.596  16.352  0.00  0.00    +0.000 N 
ATOM     15  H   UNL     1      47.128   6.775  16.155  0.00  0.00    +0.000 HD
BRANCH  14  20
ATOM     16  C   UNL     1      49.817   3.445  17.406  0.00  0.00    +0.000 A 
ATOM     17  C   UNL     1      48.699   2.618  17.402  0.00  0.00    +0.000 A 
ATOM     18  N   UNL     1      47.454   3.025  17.062  0.00  0.00    +0.000 NA
ATOM     19  C   UNL     1      47.328   4.328  16.712  0.00  0.00    +0.000 A 
ATOM     20  C   UNL     1      48.376   5.256  16.649  0.00  0.00    +0.000 A 
ATOM     21  C   UNL     1      49.633   4.778  17.039  0.00  0.00    +0.000 A 
BRANCH  16  23
ATOM     22  C   UNL     1      51.199   1.514  17.384  0.00  0.00    +0.000 C 
ATOM     23  O   UNL     1      50.995   2.865  17.782  0.00  0.00    +0.000 OA
ENDBRANCH  16  23
ENDBRANCH  14  20
ENDBRANCH  13  14
ENDBRANCH   1  13
TORSDOF 5
ENDMDL
