MODEL 1
REMARK VINA RESULT:    -8.397      0.000      0.000
REMARK INTER + INTRA:         -11.421
REMARK INTER:                 -11.342
REMARK INTRA:                  -0.079
REMARK UNBOUND:                -0.079
REMARK  Name = 
REMARK  7 active torsions:
REMARK  status: ('A' for Active; 'I' for Inactive)
REMARK    1  A    between atoms: N_1  and  C_2
REMARK    2  A    between atoms: C_2  and  C_3
REMARK    3  A    between atoms: C_3  and  C_4
REMARK    4  A    between atoms: C_7  and  C_8
REMARK    5  A    between atoms: C_8  and  N_9
REMARK    6  A    between atoms: C_14  and  C_15
REMARK    7  A    between atoms: C_15  and  O_17
REMARK                            x       y       z     vdW  Elec       q    Type
REMARK                         _______ _______ _______ _____ _____    ______ ____
ROOT
ATOM      1  N   UNL     1      44.393   4.692  10.370  0.00  0.00    +0.000 N 
ATOM      2  C   UNL     1      43.575   3.789  11.001  0.00  0.00    +0.000 A 
ATOM      3  N   UNL     1      43.723   2.576  10.518  0.00  0.00    +0.000 NA
ATOM      4  C   UNL     1      44.653   2.699   9.523  0.00  0.00    +0.000 A 
ATOM      5  C   UNL     1      45.286   1.693   8.783  0.00  0.00    +0.000 A 
ATOM      6  C   UNL     1      46.289   2.075   7.881  0.00  0.00    +0.000 A 
ATOM      7  C   UNL     1      46.534   3.424   7.595  0.00  0.00    +0.000 A 
ATOM      8  C   UNL     1      45.890   4.438   8.314  0.00  0.00    +0.000 A 
ATOM      9  C   UNL     1      45.010   4.032   9.325  0.00  0.00    +0.000 A 
ENDROOT
BRANCH   6  10
ATOM     10  C   UNL     1      47.159   1.052   7.260  0.00  0.00    +0.000 C 
ATOM     11  O   UNL     1      48.051   1.312   6.474  0.00  0.00    +0.000 OA
BRANCH  10  12
ATOM     12  O   UNL     1      46.928  -0.190   7.745  0.00  0.00    +0.000 OA
ATOM     13  H   UNL     1      47.718  -0.760   7.819  0.00  0.00    +0.000 HD
ENDBRANCH  10  12
ENDBRANCH   6  10
BRANCH   1  14
ATOM     14  C   UNL     1      44.894   5.906  11.002  0.00  0.00    +0.000 C 
BRANCH  14  18
ATOM     15  C   UNL     1      47.289   5.346  14.571  0.00  0.00    +0.000 A 
ATOM     16  C   UNL     1      47.539   6.417  13.706  0.00  0.00    +0.000 A 
ATOM     17  C   UNL     1      46.782   6.584  12.539  0.00  0.00    +0.000 A 
ATOM     18  C   UNL     1      45.766   5.678  12.204  0.00  0.00    +0.000 A 
ATOM     19  C   UNL     1      45.531   4.593  13.054  0.00  0.00    +0.000 A 
ATOM     20  C   UNL     1      46.283   4.431  14.222  0.00  0.00    +0.000 A 
BRANCH  15  21
ATOM     21  C   UNL     1      48.109   5.077  15.818  0.00  0.00    +0.000 C 
BRANCH  21  22
ATOM     22  C   UNL     1      47.506   4.099  16.841  0.00  0.00    +0.000 C 
BRANCH  22  23
ATOM     23  N   UNL     1      46.760   4.820  17.872  0.00  0.00    +0.000 NA
ATOM     24  H   UNL     1      46.230   4.156  18.434  0.00  0.00    +0.000 HD
ATOM     25  H   UNL     1      46.072   5.432  17.433  0.00  0.00    +0.000 HD
ENDBRANCH  22  23
ENDBRANCH  21  22
ENDBRANCH  15  21
ENDBRANCH  14  18
ENDBRANCH   1  14
TORSDOF 7
ENDMDL
MODEL 2
REMARK VINA RESULT:    -7.987      3.358      6.917
REMARK INTER + INTRA:         -10.868
REMARK INTER:                 -10.237
REMARK INTRA:                  -0.631
REMARK UNBOUND:                -0.079
REMARK  Name = 
REMARK  7 active torsions:
REMARK  status: ('A' for Active; 'I' for Inactive)
REMARK    1  A    between atoms: N_1  and  C_2
REMARK    2  A    between atoms: C_2  and  C_3
REMARK    3  A    between atoms: C_3  and  C_4
REMARK    4  A    between atoms: C_7  and  C_8
REMARK    5  A    between atoms: C_8  and  N_9
REMARK    6  A    between atoms: C_14  and  C_15
REMARK    7  A    between atoms: C_15  and  O_17
REMARK                            x       y       z     vdW  Elec       q    Type
REMARK                         _______ _______ _______ _____ _____    ______ ____
ROOT
ATOM      1  N   UNL     1      43.794   5.903  11.591  0.00  0.00    +0.000 N 
ATOM      2  C   UNL     1      43.672   7.169  11.075  0.00  0.00    +0.000 A 
ATOM      3  N   UNL     1      44.683   7.935  11.418  0.00  0.00    +0.000 NA
ATOM      4  C   UNL     1      45.477   7.146  12.204  0.00  0.00    +0.000 A 
ATOM      5  C   UNL     1      46.753   7.416  12.714  0.00  0.00    +0.000 A 
ATOM      6  C   UNL     1      47.409   6.394  13.414  0.00  0.00    +0.000 A 
ATOM      7  C   UNL     1      46.751   5.205  13.749  0.00  0.00    +0.000 A 
ATOM      8  C   UNL     1      45.466   4.934  13.263  0.00  0.00    +0.000 A 
ATOM      9  C   UNL     1      44.892   5.902  12.428  0.00  0.00    +0.000 A 
ENDROOT
BRANCH   6  10
ATOM     10  C   UNL     1      48.843   6.529  13.757  0.00  0.00    +0.000 C 
ATOM     11  O   UNL     1      49.267   6.529  14.897  0.00  0.00    +0.000 OA
BRANCH  10  12
ATOM     12  O   UNL     1      49.639   6.541  12.663  0.00  0.00    +0.000 OA
ATOM     13  H   UNL     1      49.566   5.753  12.089  0.00  0.00    +0.000 HD
ENDBRANCH  10  12
ENDBRANCH   6  10
BRANCH   1  14
ATOM     14  C   UNL     1      43.217   4.719  10.967  0.00  0.00    +0.000 C 
BRANCH  14  18
ATOM     15  C   UNL     1      45.795   2.498   8.281  0.00  0.00    +0.000 A 
ATOM     16  C   UNL     1      45.024   1.834   9.241  0.00  0.00    +0.000 A 
ATOM     17  C   UNL     1      44.210   2.552  10.127  0.00  0.00    +0.000 A 
ATOM     18  C   UNL     1      44.158   3.952  10.080  0.00  0.00    +0.000 A 
ATOM     19  C   UNL     1      44.946   4.620   9.139  0.00  0.00    +0.000 A 
ATOM     20  C   UNL     1      45.753   3.901   8.251  0.00  0.00    +0.000 A 
BRANCH  15  21
ATOM     21  C   UNL     1      46.739   1.784   7.333  0.00  0.00    +0.000 C 
BRANCH  21  22
ATOM     22  C   UNL     1      47.599   2.672   6.418  0.00  0.00    +0.000 C 
BRANCH  22  23
ATOM     23  N   UNL     1      48.565   1.865   5.672  0.00  0.00    +0.000 NA
ATOM     24  H   UNL     1      49.347   1.625   6.280  0.00  0.00    +0.000 HD
ATOM     25  H   UNL     1      48.958   2.418   4.910  0.00  0.00    +0.000 HD
ENDBRANCH  22  23
ENDBRANCH  21  22
ENDBRANCH  15  21
ENDBRANCH  14  18
ENDBRANCH   1  14
TORSDOF 7
ENDMDL
MODEL 3
REMARK VINA RESULT:    -7.948      1.381      1.517
REMARK INTER + INTRA:         -10.815
REMARK INTER:                 -10.116
REMARK INTRA:                  -0.698
REMARK UNBOUND:                -0.079
REMARK  Name = 
REMARK  7 active torsions:
REMARK  status: ('A' for Active; 'I' for Inactive)
REMARK    1  A    between atoms: N_1  and  C_2
REMARK    2  A    between atoms: C_2  and  C_3
REMARK    3  A    between atoms: C_3  and  C_4
REMARK    4  A    between atoms: C_7  and  C_8
REMARK    5  A    between atoms: C_8  and  N_9
REMARK    6  A    between atoms: C_14  and  C_15
REMARK    7  A    between atoms: C_15  and  O_17
REMARK                            x       y       z     vdW  Elec       q    Type
REMARK                         _______ _______ _______ _____ _____    ______ ____
ROOT
ATOM      1  N   UNL     1      43.702   4.601  10.674  0.00  0.00    +0.000 N 
ATOM      2  C   UNL     1      43.125   3.580  11.387  0.00  0.00    +0.000 A 
ATOM      3  N   UNL     1      43.505   2.402  10.947  0.00  0.00    +0.000 NA
ATOM      4  C   UNL     1      44.341   2.666   9.897  0.00  0.00    +0.000 A 
ATOM      5  C   UNL     1      45.138   1.778   9.164  0.00  0.00    +0.000 A 
ATOM      6  C   UNL     1      45.995   2.315   8.193  0.00  0.00    +0.000 A 
ATOM      7  C   UNL     1      45.933   3.668   7.838  0.00  0.00    +0.000 A 
ATOM      8  C   UNL     1      45.122   4.560   8.549  0.00  0.00    +0.000 A 
ATOM      9  C   UNL     1      44.396   4.032   9.624  0.00  0.00    +0.000 A 
ENDROOT
BRANCH   6  10
ATOM     10  C   UNL     1      47.033   1.466   7.566  0.00  0.00    +0.000 C 
ATOM     11  O   UNL     1      48.003   1.910   6.981  0.00  0.00    +0.000 OA
BRANCH  10  12
ATOM     12  O   UNL     1      46.844   0.149   7.811  0.00  0.00    +0.000 OA
ATOM     13  H   UNL     1      46.026  -0.068   8.298  0.00  0.00    +0.000 HD
ENDBRANCH  10  12
ENDBRANCH   6  10
BRANCH   1  14
ATOM     14  C   UNL     1      43.961   5.925  11.226  0.00  0.00    +0.000 C 
BRANCH  14  18
ATOM     15  C   UNL     1      47.741   6.496  13.270  0.00  0.00    +0.000 A 
ATOM     16  C   UNL     1      47.443   7.216  12.108  0.00  0.00    +0.000 A 
ATOM     17  C   UNL     1      46.233   7.014  11.432  0.00  0.00    +0.000 A 
ATOM     18  C   UNL     1      45.298   6.078  11.896  0.00  0.00    +0.000 A 
ATOM     19  C   UNL     1      45.604   5.339  13.043  0.00  0.00    +0.000 A 
ATOM     20  C   UNL     1      46.810   5.547  13.720  0.00  0.00    +0.000 A 
BRANCH  15  21
ATOM     21  C   UNL     1      49.056   6.627  14.014  0.00  0.00    +0.000 C 
BRANCH  21  22
ATOM     22  C   UNL     1      48.970   6.802  15.540  0.00  0.00    +0.000 C 
BRANCH  22  23
ATOM     23  N   UNL     1      48.258   8.033  15.881  0.00  0.00    +0.000 NA
ATOM     24  H   UNL     1      48.446   8.275  16.853  0.00  0.00    +0.000 HD
ATOM     25  H   UNL     1      47.252   7.877  15.818  0.00  0.00    +0.000 HD
ENDBRANCH  22  23
ENDBRANCH  21  22
ENDBRANCH  15  21
ENDBRANCH  14  18
ENDBRANCH   1  14
TORSDOF 7
ENDMDL
MODEL 4
REMARK VINA RESULT:    -7.029      4.049      7.495
REMARK INTER + INTRA:          -9.574
REMARK INTER:                  -8.961
REMARK INTRA:                  -0.613
REMARK UNBOUND:                -0.079
REMARK  Name = 
REMARK  7 active torsions:
REMARK  status: ('A' for Active; 'I' for Inactive)
REMARK    1  A    between atoms: N_1  and  C_2
REMARK    2  A    between atoms: C_2  and  C_3
REMARK    3  A    between atoms: C_3  and  C_4
REMARK    4  A    between atoms: C_7  and  C_8
REMARK    5  A    between atoms: C_8  and  N_9
REMARK    6  A    between atoms: C_14  and  C_15
REMARK    7  A    between atoms: C_15  and  O_17
REMARK                            x       y       z     vdW  Elec       q    Type
REMARK                         _______ _______ _______ _____ _____    ______ ____
ROOT
ATOM      1  N   UNL     1      45.851   4.431  12.209  0.00  0.00    +0.000 N 
ATOM      2  C   UNL     1      45.992   3.589  13.284  0.00  0.00    +0.000 A 
ATOM      3  N   UNL     1      46.686   4.146  14.251  0.00  0.00    +0.000 NA
ATOM      4  C   UNL     1      47.027   5.384  13.779  0.00  0.00    +0.000 A 
ATOM      5  C   UNL     1      47.640   6.444  14.457  0.00  0.00    +0.000 A 
ATOM      6  C   UNL     1      47.791   7.659  13.774  0.00  0.00    +0.000 A 
ATOM      7  C   UNL     1      47.504   7.765  12.408  0.00  0.00    +0.000 A 
ATOM      8  C   UNL     1      46.912   6.702  11.714  0.00  0.00    +0.000 A 
ATOM      9  C   UNL     1      46.618   5.551  12.457  0.00  0.00    +0.000 A 
ENDROOT
BRANCH   6  10
ATOM     10  C   UNL     1      48.198   8.879  14.507  0.00  0.00    +0.000 C 
ATOM     11  O   UNL     1      49.058   9.646  14.116  0.00  0.00    +0.000 OA
BRANCH  10  12
ATOM     12  O   UNL     1      47.434   9.106  15.600  0.00  0.00    +0.000 OA
ATOM     13  H   UNL     1      46.472   9.016  15.459  0.00  0.00    +0.000 HD
ENDBRANCH  10  12
ENDBRANCH   6  10
BRANCH   1  14
ATOM     14  C   UNL     1      44.724   4.378  11.286  0.00  0.00    +0.000 C 
BRANCH  14  18
ATOM     15  C   UNL     1      45.891   3.022   7.337  0.00  0.00    +0.000 A 
ATOM     16  C   UNL     1      45.983   4.375   7.682  0.00  0.00    +0.000 A 
ATOM     17  C   UNL     1      45.582   4.818   8.949  0.00  0.00    +0.000 A 
ATOM     18  C   UNL     1      45.069   3.920   9.896  0.00  0.00    +0.000 A 
ATOM     19  C   UNL     1      44.953   2.572   9.545  0.00  0.00    +0.000 A 
ATOM     20  C   UNL     1      45.360   2.130   8.282  0.00  0.00    +0.000 A 
BRANCH  15  21
ATOM     21  C   UNL     1      46.254   2.488   5.965  0.00  0.00    +0.000 C 
BRANCH  21  22
ATOM     22  C   UNL     1      47.736   2.575   5.561  0.00  0.00    +0.000 C 
BRANCH  22  23
ATOM     23  N   UNL     1      48.578   1.866   6.523  0.00  0.00    +0.000 NA
ATOM     24  H   UNL     1      48.919   1.002   6.103  0.00  0.00    +0.000 HD
ATOM     25  H   UNL     1      48.019   1.586   7.329  0.00  0.00    +0.000 HD
ENDBRANCH  22  23
ENDBRANCH  21  22
ENDBRANCH  15  21
ENDBRANCH  14  18
ENDBRANCH   1  14
TORSDOF 7
ENDMDL
MODEL 5
REMARK VINA RESULT:    -6.354      3.728      7.024
REMARK INTER + INTRA:          -8.662
REMARK INTER:                  -8.381
REMARK INTRA:                  -0.281
REMARK UNBOUND:                -0.079
REMARK  Name = 
REMARK  7 active torsions:
REMARK  status: ('A' for Active; 'I' for Inactive)
REMARK    1  A    between atoms: N_1  and  C_2
REMARK    2  A    between atoms: C_2  and  C_3
REMARK    3  A    between atoms: C_3  and  C_4
REMARK    4  A    between atoms: C_7  and  C_8
REMARK    5  A    between atoms: C_8  and  N_9
REMARK    6  A    between atoms: C_14  and  C_15
REMARK    7  A    between atoms: C_15  and  O_17
REMARK                            x       y       z     vdW  Elec       q    Type
REMARK                         _______ _______ _______ _____ _____    ______ ____
ROOT
ATOM      1  N   UNL     1      45.664   7.640  12.868  0.00  0.00    +0.000 N 
ATOM      2  C   UNL     1      45.229   8.847  12.382  0.00  0.00    +0.000 A 
ATOM      3  N   UNL     1      46.227   9.596  11.972  0.00  0.00    +0.000 NA
ATOM      4  C   UNL     1      47.352   8.859  12.221  0.00  0.00    +0.000 A 
ATOM      5  C   UNL     1      48.675   9.121  11.845  0.00  0.00    +0.000 A 
ATOM      6  C   UNL     1      49.644   8.150  12.134  0.00  0.00    +0.000 A 
ATOM      7  C   UNL     1      49.341   7.036  12.926  0.00  0.00    +0.000 A 
ATOM      8  C   UNL     1      48.025   6.777  13.328  0.00  0.00    +0.000 A 
ATOM      9  C   UNL     1      47.044   7.675  12.889  0.00  0.00    +0.000 A 
ENDROOT
BRANCH   6  10
ATOM     10  C   UNL     1      50.998   8.253  11.546  0.00  0.00    +0.000 C 
ATOM     11  O   UNL     1      51.728   9.215  11.697  0.00  0.00    +0.000 OA
BRANCH  10  12
ATOM     12  O   UNL     1      51.378   7.117  10.917  0.00  0.00    +0.000 OA
ATOM     13  H   UNL     1      51.384   7.166   9.942  0.00  0.00    +0.000 HD
ENDBRANCH  10  12
ENDBRANCH   6  10
BRANCH   1  14
ATOM     14  C   UNL     1      44.860   6.424  12.845  0.00  0.00    +0.000 C 
BRANCH  14  18
ATOM     15  C   UNL     1      44.981   4.189   9.132  0.00  0.00    +0.000 A 
ATOM     16  C   UNL     1      45.861   5.255   9.351  0.00  0.00    +0.000 A 
ATOM     17  C   UNL     1      45.805   5.994  10.540  0.00  0.00    +0.000 A 
ATOM     18  C   UNL     1      44.861   5.692  11.532  0.00  0.00    +0.000 A 
ATOM     19  C   UNL     1      43.965   4.643  11.305  0.00  0.00    +0.000 A 
ATOM     20  C   UNL     1      44.026   3.903  10.120  0.00  0.00    +0.000 A 
BRANCH  15  21
ATOM     21  C   UNL     1      44.951   3.388   7.845  0.00  0.00    +0.000 C 
BRANCH  21  22
ATOM     22  C   UNL     1      46.311   2.957   7.270  0.00  0.00    +0.000 C 
BRANCH  22  23
ATOM     23  N   UNL     1      46.868   4.004   6.415  0.00  0.00    +0.000 NA
ATOM     24  H   UNL     1      46.547   4.914   6.741  0.00  0.00    +0.000 HD
ATOM     25  H   UNL     1      46.509   3.901   5.466  0.00  0.00    +0.000 HD
ENDBRANCH  22  23
ENDBRANCH  21  22
ENDBRANCH  15  21
ENDBRANCH  14  18
ENDBRANCH   1  14
TORSDOF 7
ENDMDL
MODEL 6
REMARK VINA RESULT:    -6.248      4.282      7.752
REMARK INTER + INTRA:          -8.519
REMARK INTER:                  -7.978
REMARK INTRA:                  -0.542
REMARK UNBOUND:                -0.079
REMARK  Name = 
REMARK  7 active torsions:
REMARK  status: ('A' for Active; 'I' for Inactive)
REMARK    1  A    between atoms: N_1  and  C_2
REMARK    2  A    between atoms: C_2  and  C_3
REMARK    3  A    between atoms: C_3  and  C_4
REMARK    4  A    between atoms: C_7  and  C_8
REMARK    5  A    between atoms: C_8  and  N_9
REMARK    6  A    between atoms: C_14  and  C_15
REMARK    7  A    between atoms: C_15  and  O_17
REMARK                            x       y       z     vdW  Elec       q    Type
REMARK                         _______ _______ _______ _____ _____    ______ ____
ROOT
ATOM      1  N   UNL     1      46.621   5.293  13.671  0.00  0.00    +0.000 N 
ATOM      2  C   UNL     1      46.926   4.500  14.749  0.00  0.00    +0.000 A 
ATOM      3  N   UNL     1      47.920   4.994  15.452  0.00  0.00    +0.000 NA
ATOM      4  C   UNL     1      48.289   6.135  14.795  0.00  0.00    +0.000 A 
ATOM      5  C   UNL     1      49.198   7.123  15.193  0.00  0.00    +0.000 A 
ATOM      6  C   UNL     1      49.327   8.260  14.383  0.00  0.00    +0.000 A 
ATOM      7  C   UNL     1      48.706   8.334  13.131  0.00  0.00    +0.000 A 
ATOM      8  C   UNL     1      47.812   7.340  12.713  0.00  0.00    +0.000 A 
ATOM      9  C   UNL     1      47.572   6.292  13.610  0.00  0.00    +0.000 A 
ENDROOT
BRANCH   6  10
ATOM     10  C   UNL     1      50.075   9.440  14.872  0.00  0.00    +0.000 C 
ATOM     11  O   UNL     1      50.229   9.700  16.051  0.00  0.00    +0.000 OA
BRANCH  10  12
ATOM     12  O   UNL     1      50.660  10.135  13.870  0.00  0.00    +0.000 OA
ATOM     13  H   UNL     1      50.045  10.498  13.203  0.00  0.00    +0.000 HD
ENDBRANCH  10  12
ENDBRANCH   6  10
BRANCH   1  14
ATOM     14  C   UNL     1      45.294   5.365  13.072  0.00  0.00    +0.000 C 
BRANCH  14  18
ATOM     15  C   UNL     1      45.225   3.819   9.023  0.00  0.00    +0.000 A 
ATOM     16  C   UNL     1      45.587   5.147   9.273  0.00  0.00    +0.000 A 
ATOM     17  C   UNL     1      45.584   5.655  10.578  0.00  0.00    +0.000 A 
ATOM     18  C   UNL     1      45.209   4.850  11.663  0.00  0.00    +0.000 A 
ATOM     19  C   UNL     1      44.823   3.530  11.413  0.00  0.00    +0.000 A 
ATOM     20  C   UNL     1      44.832   3.022  10.110  0.00  0.00    +0.000 A 
BRANCH  15  21
ATOM     21  C   UNL     1      45.151   3.226   7.629  0.00  0.00    +0.000 C 
BRANCH  21  22
ATOM     22  C   UNL     1      46.490   2.900   6.947  0.00  0.00    +0.000 C 
BRANCH  22  23
ATOM     23  N   UNL     1      46.865   3.957   6.008  0.00  0.00    +0.000 NA
ATOM     24  H   UNL     1      47.457   4.637   6.482  0.00  0.00    +0.000 HD
ATOM     25  H   UNL     1      46.031   4.465   5.712  0.00  0.00    +0.000 HD
ENDBRANCH  22  23
ENDBRANCH  21  22
ENDBRANCH  15  21
ENDBRANCH  14  18
ENDBRANCH   1  14
TORSDOF 7
ENDMDL
MODEL 7
REMARK VINA RESULT:    -5.978      3.263      4.419
REMARK INTER + INTRA:          -8.155
REMARK INTER:                  -7.548
REMARK INTRA:                  -0.606
REMARK UNBOUND:                -0.079
REMARK  Name = 
REMARK  7 active torsions:
REMARK  status: ('A' for Active; 'I' for Inactive)
REMARK    1  A    between atoms: N_1  and  C_2
REMARK    2  A    between atoms: C_2  and  C_3
REMARK    3  A    between atoms: C_3  and  C_4
REMARK    4  A    between atoms: C_7  and  C_8
REMARK    5  A    between atoms: C_8  and  N_9
REMARK    6  A    between atoms: C_14  and  C_15
REMARK    7  A    between atoms: C_15  and  O_17
REMARK                            x       y       z     vdW  Elec       q    Type
REMARK                         _______ _______ _______ _____ _____    ______ ____
ROOT
ATOM      1  N   UNL     1      45.643   6.026  13.227  0.00  0.00    +0.000 N 
ATOM      2  C   UNL     1      46.312   5.113  14.003  0.00  0.00    +0.000 A 
ATOM      3  N   UNL     1      46.275   3.908  13.481  0.00  0.00    +0.000 NA
ATOM      4  C   UNL     1      45.537   4.038  12.336  0.00  0.00    +0.000 A 
ATOM      5  C   UNL     1      45.312   3.097  11.325  0.00  0.00    +0.000 A 
ATOM      6  C   UNL     1      44.597   3.510  10.192  0.00  0.00    +0.000 A 
ATOM      7  C   UNL     1      43.975   4.763  10.142  0.00  0.00    +0.000 A 
ATOM      8  C   UNL     1      44.175   5.704  11.160  0.00  0.00    +0.000 A 
ATOM      9  C   UNL     1      45.027   5.329  12.206  0.00  0.00    +0.000 A 
ENDROOT
BRANCH   6  10
ATOM     10  C   UNL     1      44.543   2.646   8.991  0.00  0.00    +0.000 C 
ATOM     11  O   UNL     1      44.611   1.432   9.029  0.00  0.00    +0.000 OA
BRANCH  10  12
ATOM     12  O   UNL     1      44.299   3.347   7.859  0.00  0.00    +0.000 OA
ATOM     13  H   UNL     1      43.700   4.111   7.966  0.00  0.00    +0.000 HD
ENDBRANCH  10  12
ENDBRANCH   6  10
BRANCH   1  14
ATOM     14  C   UNL     1      45.969   7.446  13.190  0.00  0.00    +0.000 C 
BRANCH  14  18
ATOM     15  C   UNL     1      50.201   8.160  12.580  0.00  0.00    +0.000 A 
ATOM     16  C   UNL     1      49.600   8.444  13.812  0.00  0.00    +0.000 A 
ATOM     17  C   UNL     1      48.227   8.238  14.002  0.00  0.00    +0.000 A 
ATOM     18  C   UNL     1      47.422   7.754  12.961  0.00  0.00    +0.000 A 
ATOM     19  C   UNL     1      48.015   7.494  11.722  0.00  0.00    +0.000 A 
ATOM     20  C   UNL     1      49.386   7.694  11.536  0.00  0.00    +0.000 A 
BRANCH  15  21
ATOM     21  C   UNL     1      51.667   8.415  12.293  0.00  0.00    +0.000 C 
BRANCH  21  22
ATOM     22  C   UNL     1      52.606   8.490  13.509  0.00  0.00    +0.000 C 
BRANCH  22  23
ATOM     23  N   UNL     1      53.774   7.631  13.317  0.00  0.00    +0.000 NA
ATOM     24  H   UNL     1      54.110   7.726  12.360  0.00  0.00    +0.000 HD
ATOM     25  H   UNL     1      53.504   6.654  13.426  0.00  0.00    +0.000 HD
ENDBRANCH  22  23
ENDBRANCH  21  22
ENDBRANCH  15  21
ENDBRANCH  14  18
ENDBRANCH   1  14
TORSDOF 7
ENDMDL
MODEL 8
REMARK VINA RESULT:    -5.925      4.459      5.806
REMARK INTER + INTRA:          -8.083
REMARK INTER:                  -7.239
REMARK INTRA:                  -0.844
REMARK UNBOUND:                -0.079
REMARK  Name = 
REMARK  7 active torsions:
REMARK  status: ('A' for Active; 'I' for Inactive)
REMARK    1  A    between atoms: N_1  and  C_2
REMARK    2  A    between atoms: C_2  and  C_3
REMARK    3  A    between atoms: C_3  and  C_4
REMARK    4  A    between atoms: C_7  and  C_8
REMARK    5  A    between atoms: C_8  and  N_9
REMARK    6  A    between atoms: C_14  and  C_15
REMARK    7  A    between atoms: C_15  and  O_17
REMARK                            x       y       z     vdW  Elec       q    Type
REMARK                         _______ _______ _______ _____ _____    ______ ____
ROOT
ATOM      1  N   UNL     1      48.093   8.461  12.858  0.00  0.00    +0.000 N 
ATOM      2  C   UNL     1      47.343   9.568  12.553  0.00  0.00    +0.000 A 
ATOM      3  N   UNL     1      46.080   9.263  12.355  0.00  0.00    +0.000 NA
ATOM      4  C   UNL     1      46.012   7.906  12.514  0.00  0.00    +0.000 A 
ATOM      5  C   UNL     1      44.881   7.082  12.557  0.00  0.00    +0.000 A 
ATOM      6  C   UNL     1      45.071   5.722  12.836  0.00  0.00    +0.000 A 
ATOM      7  C   UNL     1      46.354   5.165  12.897  0.00  0.00    +0.000 A 
ATOM      8  C   UNL     1      47.493   5.977  12.832  0.00  0.00    +0.000 A 
ATOM      9  C   UNL     1      47.277   7.356  12.716  0.00  0.00    +0.000 A 
ENDROOT
BRANCH   6  10
ATOM     10  C   UNL     1      43.909   4.856  13.141  0.00  0.00    +0.000 C 
ATOM     11  O   UNL     1      43.978   3.645  13.238  0.00  0.00    +0.000 OA
BRANCH  10  12
ATOM     12  O   UNL     1      42.789   5.566  13.408  0.00  0.00    +0.000 OA
ATOM     13  H   UNL     1      42.568   5.648  14.356  0.00  0.00    +0.000 HD
ENDBRANCH  10  12
ENDBRANCH   6  10
BRANCH   1  14
ATOM     14  C   UNL     1      49.305   8.505  13.667  0.00  0.00    +0.000 C 
BRANCH  14  18
ATOM     15  C   UNL     1      48.590   7.396  17.796  0.00  0.00    +0.000 A 
ATOM     16  C   UNL     1      48.101   8.605  17.287  0.00  0.00    +0.000 A 
ATOM     17  C   UNL     1      48.354   8.976  15.960  0.00  0.00    +0.000 A 
ATOM     18  C   UNL     1      49.111   8.152  15.115  0.00  0.00    +0.000 A 
ATOM     19  C   UNL     1      49.621   6.956  15.627  0.00  0.00    +0.000 A 
ATOM     20  C   UNL     1      49.363   6.584  16.950  0.00  0.00    +0.000 A 
BRANCH  15  21
ATOM     21  C   UNL     1      48.401   6.964  19.237  0.00  0.00    +0.000 C 
BRANCH  21  22
ATOM     22  C   UNL     1      47.720   5.603  19.465  0.00  0.00    +0.000 C 
BRANCH  22  23
ATOM     23  N   UNL     1      46.500   5.493  18.666  0.00  0.00    +0.000 NA
ATOM     24  H   UNL     1      46.058   4.593  18.845  0.00  0.00    +0.000 HD
ATOM     25  H   UNL     1      46.737   5.501  17.674  0.00  0.00    +0.000 HD
ENDBRANCH  22  23
ENDBRANCH  21  22
ENDBRANCH  15  21
ENDBRANCH  14  18
ENDBRANCH   1  14
TORSDOF 7
ENDMDL
MODEL 9
REMARK VINA RESULT:    -5.809      4.378      6.188
REMARK INTER + INTRA:          -7.926
REMARK INTER:                  -7.248
REMARK INTRA:                  -0.677
REMARK UNBOUND:                -0.079
REMARK  Name = 
REMARK  7 active torsions:
REMARK  status: ('A' for Active; 'I' for Inactive)
REMARK    1  A    between atoms: N_1  and  C_2
REMARK    2  A    between atoms: C_2  and  C_3
REMARK    3  A    between atoms: C_3  and  C_4
REMARK    4  A    between atoms: C_7  and  C_8
REMARK    5  A    between atoms: C_8  and  N_9
REMARK    6  A    between atoms: C_14  and  C_15
REMARK    7  A    between atoms: C_15  and  O_17
REMARK                            x       y       z     vdW  Elec       q    Type
REMARK                         _______ _______ _______ _____ _____    ______ ____
ROOT
ATOM      1  N   UNL     1      47.572   7.363  13.730  0.00  0.00    +0.000 N 
ATOM      2  C   UNL     1      48.115   6.325  14.445  0.00  0.00    +0.000 A 
ATOM      3  N   UNL     1      47.515   5.185  14.182  0.00  0.00    +0.000 NA
ATOM      4  C   UNL     1      46.534   5.498  13.282  0.00  0.00    +0.000 A 
ATOM      5  C   UNL     1      45.697   4.638  12.561  0.00  0.00    +0.000 A 
ATOM      6  C   UNL     1      44.833   5.205  11.614  0.00  0.00    +0.000 A 
ATOM      7  C   UNL     1      44.680   6.593  11.510  0.00  0.00    +0.000 A 
ATOM      8  C   UNL     1      45.496   7.463  12.243  0.00  0.00    +0.000 A 
ATOM      9  C   UNL     1      46.466   6.873  13.064  0.00  0.00    +0.000 A 
ENDROOT
BRANCH   6  10
ATOM     10  C   UNL     1      44.112   4.341  10.653  0.00  0.00    +0.000 C 
ATOM     11  O   UNL     1      43.964   3.142  10.803  0.00  0.00    +0.000 OA
BRANCH  10  12
ATOM     12  O   UNL     1      43.543   5.045   9.647  0.00  0.00    +0.000 OA
ATOM     13  H   UNL     1      42.572   5.136   9.704  0.00  0.00    +0.000 HD
ENDBRANCH  10  12
ENDBRANCH   6  10
BRANCH   1  14
ATOM     14  C   UNL     1      48.318   8.555  13.347  0.00  0.00    +0.000 C 
BRANCH  14  18
ATOM     15  C   UNL     1      52.103   7.947  11.323  0.00  0.00    +0.000 A 
ATOM     16  C   UNL     1      50.903   7.550  10.723  0.00  0.00    +0.000 A 
ATOM     17  C   UNL     1      49.681   7.723  11.388  0.00  0.00    +0.000 A 
ATOM     18  C   UNL     1      49.634   8.285  12.671  0.00  0.00    +0.000 A 
ATOM     19  C   UNL     1      50.834   8.659  13.283  0.00  0.00    +0.000 A 
ATOM     20  C   UNL     1      52.051   8.492  12.616  0.00  0.00    +0.000 A 
BRANCH  15  21
ATOM     21  C   UNL     1      53.461   7.735  10.683  0.00  0.00    +0.000 C 
BRANCH  21  22
ATOM     22  C   UNL     1      53.594   6.537   9.727  0.00  0.00    +0.000 C 
BRANCH  22  23
ATOM     23  N   UNL     1      53.716   5.287  10.477  0.00  0.00    +0.000 NA
ATOM     24  H   UNL     1      54.600   4.838  10.244  0.00  0.00    +0.000 HD
ATOM     25  H   UNL     1      52.984   4.639  10.186  0.00  0.00    +0.000 HD
ENDBRANCH  22  23
ENDBRANCH  21  22
ENDBRANCH  15  21
ENDBRANCH  14  18
ENDBRANCH   1  14
TORSDOF 7
ENDMDL
