MODEL 1
REMARK VINA RESULT:    -7.452      0.000      0.000
REMARK INTER + INTRA:         -12.227
REMARK INTER:                 -10.720
REMARK INTRA:                  -1.508
REMARK UNBOUND:                -1.508
REMARK  Name = 
REMARK  10 active torsions:
REMARK  status: ('A' for Active; 'I' for Inactive)
REMARK    1  A    between atoms: C_1  and  O_2
REMARK    2  A    between atoms: O_2  and  C_3
REMARK    3  A    between atoms: C_6  and  C_7
REMARK    4  A    between atoms: C_11  and  N_12
REMARK    5  A    between atoms: N_12  and  C_13
REMARK    6  A    between atoms: C_13  and  C_14
REMARK    7  A    between atoms: C_18  and  C_19
REMARK    8  A    between atoms: C_23  and  C_24
REMARK    9  A    between atoms: C_24  and  C_25
REMARK   10  A    between atoms: C_24  and  O_26
REMARK                            x       y       z     vdW  Elec       q    Type
REMARK                         _______ _______ _______ _____ _____    ______ ____
ROOT
ATOM      1  C   UNL     1      48.601   8.081  12.748  0.00  0.00    +0.000 C 
ATOM      2  C   UNL     1      49.738   7.431  11.971  0.00  0.00    +0.000 C 
ATOM      3  C   UNL     1      49.377   8.848  11.680  0.00  0.00    +0.000 C 
ENDROOT
BRANCH   1   4
ATOM      4  C   UNL     1      47.152   7.807  12.356  0.00  0.00    +0.000 A 
ATOM      5  C   UNL     1      46.187   8.825  12.353  0.00  0.00    +0.000 A 
ATOM      6  C   UNL     1      44.916   8.613  11.820  0.00  0.00    +0.000 A 
ATOM      7  C   UNL     1      44.583   7.373  11.274  0.00  0.00    +0.000 A 
ATOM      8  C   UNL     1      45.508   6.317  11.271  0.00  0.00    +0.000 A 
ATOM      9  C   UNL     1      46.766   6.556  11.851  0.00  0.00    +0.000 A 
BRANCH   8  10
ATOM     10  C   UNL     1      45.245   5.031  10.590  0.00  0.00    +0.000 A 
ATOM     11  C   UNL     1      44.337   4.103  11.116  0.00  0.00    +0.000 A 
ATOM     12  C   UNL     1      43.988   2.952  10.412  0.00  0.00    +0.000 A 
ATOM     13  C   UNL     1      44.531   2.713   9.149  0.00  0.00    +0.000 A 
ATOM     14  C   UNL     1      45.455   3.608   8.587  0.00  0.00    +0.000 A 
ATOM     15  C   UNL     1      45.812   4.746   9.329  0.00  0.00    +0.000 A 
BRANCH  14  16
ATOM     16  C   UNL     1      45.944   3.377   7.172  0.00  0.00    +0.000 C 
ATOM     17  C   UNL     1      46.760   2.108   6.954  0.00  0.00    +0.000 C 
BRANCH  16  18
ATOM     18  O   UNL     1      46.764   4.480   6.776  0.00  0.00    +0.000 OA
ATOM     19  H   UNL     1      46.233   5.289   6.862  0.00  0.00    +0.000 HD
ENDBRANCH  16  18
ENDBRANCH  14  16
ENDBRANCH   8  10
ENDBRANCH   1   4
BRANCH   1  20
ATOM     20  N   UNL     1      48.824   8.403  14.172  0.00  0.00    +0.000 N 
ATOM     21  H   UNL     1      48.305   9.185  14.570  0.00  0.00    +0.000 HD
BRANCH  20  27
ATOM     22  C   UNL     1      50.359   7.401  15.797  0.00  0.00    +0.000 A 
ATOM     23  C   UNL     1      50.665   6.398  16.723  0.00  0.00    +0.000 A 
ATOM     24  C   UNL     1      49.725   5.413  17.033  0.00  0.00    +0.000 A 
ATOM     25  C   UNL     1      48.466   5.416  16.422  0.00  0.00    +0.000 A 
ATOM     26  C   UNL     1      48.165   6.419  15.493  0.00  0.00    +0.000 A 
ATOM     27  C   UNL     1      49.085   7.433  15.181  0.00  0.00    +0.000 A 
BRANCH  25  28
ATOM     28  C   UNL     1      47.505   4.341  16.808  0.00  0.00    +0.000 C 
ATOM     29  N   UNL     1      47.304   4.082  18.130  0.00  0.00    +0.000 N 
ATOM     30  O   UNL     1      46.904   3.692  15.955  0.00  0.00    +0.000 OA
ATOM     31  H   UNL     1      47.727   4.572  18.895  0.00  0.00    +0.000 HD
ATOM     32  H   UNL     1      46.643   3.343  18.352  0.00  0.00    +0.000 HD
ENDBRANCH  25  28
BRANCH  22  34
ATOM     33  C   UNL     1      52.409   8.009  14.753  0.00  0.00    +0.000 C 
ATOM     34  O   UNL     1      51.227   8.409  15.443  0.00  0.00    +0.000 OA
ENDBRANCH  22  34
ENDBRANCH  20  27
ENDBRANCH   1  20
TORSDOF 8
ENDMDL
MODEL 2
REMARK VINA RESULT:    -7.062      2.173      3.433
REMARK INTER + INTRA:         -11.666
REMARK INTER:                 -10.599
REMARK INTRA:                  -1.067
REMARK UNBOUND:                -1.508
REMARK  Name = 
REMARK  10 active torsions:
REMARK  status: ('A' for Active; 'I' for Inactive)
REMARK    1  A    between atoms: C_1  and  O_2
REMARK    2  A    between atoms: O_2  and  C_3
REMARK    3  A    between atoms: C_6  and  C_7
REMARK    4  A    between atoms: C_11  and  N_12
REMARK    5  A    between atoms: N_12  and  C_13
REMARK    6  A    between atoms: C_13  and  C_14
REMARK    7  A    between atoms: C_18  and  C_19
REMARK    8  A    between atoms: C_23  and  C_24
REMARK    9  A    between atoms: C_24  and  C_25
REMARK   10  A    between atoms: C_24  and  O_26
REMARK                            x       y       z     vdW  Elec       q    Type
REMARK                         _______ _______ _______ _____ _____    ______ ____
ROOT
ATOM      1  C   UNL     1      49.225   7.507  15.570  0.00  0.00    +0.000 C 
ATOM      2  C   UNL     1      50.707   7.393  15.903  0.00  0.00    +0.000 C 
ATOM      3  C   UNL     1      50.047   8.728  15.975  0.00  0.00    +0.000 C 
ENDROOT
BRANCH   1   4
ATOM      4  C   UNL     1      48.771   7.547  14.115  0.00  0.00    +0.000 A 
ATOM      5  C   UNL     1      49.625   7.982  13.091  0.00  0.00    +0.000 A 
ATOM      6  C   UNL     1      49.273   7.843  11.748  0.00  0.00    +0.000 A 
ATOM      7  C   UNL     1      48.054   7.261  11.401  0.00  0.00    +0.000 A 
ATOM      8  C   UNL     1      47.156   6.828  12.389  0.00  0.00    +0.000 A 
ATOM      9  C   UNL     1      47.529   7.018  13.731  0.00  0.00    +0.000 A 
BRANCH   8  10
ATOM     10  C   UNL     1      45.914   6.091  12.069  0.00  0.00    +0.000 A 
ATOM     11  C   UNL     1      44.787   6.174  12.896  0.00  0.00    +0.000 A 
ATOM     12  C   UNL     1      43.575   5.590  12.531  0.00  0.00    +0.000 A 
ATOM     13  C   UNL     1      43.461   4.921  11.311  0.00  0.00    +0.000 A 
ATOM     14  C   UNL     1      44.567   4.801  10.456  0.00  0.00    +0.000 A 
ATOM     15  C   UNL     1      45.785   5.373  10.860  0.00  0.00    +0.000 A 
BRANCH  14  16
ATOM     16  C   UNL     1      44.385   4.164   9.093  0.00  0.00    +0.000 C 
ATOM     17  C   UNL     1      44.571   2.651   9.042  0.00  0.00    +0.000 C 
BRANCH  16  18
ATOM     18  O   UNL     1      45.325   4.736   8.180  0.00  0.00    +0.000 OA
ATOM     19  H   UNL     1      46.129   4.190   8.203  0.00  0.00    +0.000 HD
ENDBRANCH  16  18
ENDBRANCH  14  16
ENDBRANCH   8  10
ENDBRANCH   1   4
BRANCH   1  20
ATOM     20  N   UNL     1      48.250   6.945  16.526  0.00  0.00    +0.000 N 
ATOM     21  H   UNL     1      47.259   7.041  16.306  0.00  0.00    +0.000 HD
BRANCH  20  27
ATOM     22  C   UNL     1      48.313   5.803  18.692  0.00  0.00    +0.000 A 
ATOM     23  C   UNL     1      48.609   4.675  19.463  0.00  0.00    +0.000 A 
ATOM     24  C   UNL     1      49.072   3.505  18.856  0.00  0.00    +0.000 A 
ATOM     25  C   UNL     1      49.246   3.448  17.469  0.00  0.00    +0.000 A 
ATOM     26  C   UNL     1      48.953   4.581  16.700  0.00  0.00    +0.000 A 
ATOM     27  C   UNL     1      48.465   5.761  17.285  0.00  0.00    +0.000 A 
BRANCH  25  28
ATOM     28  C   UNL     1      49.733   2.164  16.883  0.00  0.00    +0.000 C 
ATOM     29  N   UNL     1      50.702   1.467  17.540  0.00  0.00    +0.000 N 
ATOM     30  O   UNL     1      49.277   1.736  15.825  0.00  0.00    +0.000 OA
ATOM     31  H   UNL     1      51.116   1.721  18.417  0.00  0.00    +0.000 HD
ATOM     32  H   UNL     1      51.007   0.599  17.109  0.00  0.00    +0.000 HD
ENDBRANCH  25  28
BRANCH  22  34
ATOM     33  C   UNL     1      47.583   6.999  20.615  0.00  0.00    +0.000 C 
ATOM     34  O   UNL     1      47.847   6.988  19.214  0.00  0.00    +0.000 OA
ENDBRANCH  22  34
ENDBRANCH  20  27
ENDBRANCH   1  20
TORSDOF 8
ENDMDL
MODEL 3
REMARK VINA RESULT:    -6.610      2.261      7.669
REMARK INTER + INTRA:         -11.016
REMARK INTER:                 -10.247
REMARK INTRA:                  -0.769
REMARK UNBOUND:                -1.508
REMARK  Name = 
REMARK  10 active torsions:
REMARK  status: ('A' for Active; 'I' for Inactive)
REMARK    1  A    between atoms: C_1  and  O_2
REMARK    2  A    between atoms: O_2  and  C_3
REMARK    3  A    between atoms: C_6  and  C_7
REMARK    4  A    between atoms: C_11  and  N_12
REMARK    5  A    between atoms: N_12  and  C_13
REMARK    6  A    between atoms: C_13  and  C_14
REMARK    7  A    between atoms: C_18  and  C_19
REMARK    8  A    between atoms: C_23  and  C_24
REMARK    9  A    between atoms: C_24  and  C_25
REMARK   10  A    between atoms: C_24  and  O_26
REMARK                            x       y       z     vdW  Elec       q    Type
REMARK                         _______ _______ _______ _____ _____    ______ ____
ROOT
ATOM      1  C   UNL     1      46.181   7.044  11.485  0.00  0.00    +0.000 C 
ATOM      2  C   UNL     1      44.982   7.025  12.425  0.00  0.00    +0.000 C 
ATOM      3  C   UNL     1      45.316   8.284  11.700  0.00  0.00    +0.000 C 
ENDROOT
BRANCH   1   4
ATOM      4  C   UNL     1      47.591   7.192  12.049  0.00  0.00    +0.000 A 
ATOM      5  C   UNL     1      48.603   7.845  11.331  0.00  0.00    +0.000 A 
ATOM      6  C   UNL     1      49.832   8.140  11.922  0.00  0.00    +0.000 A 
ATOM      7  C   UNL     1      50.073   7.787  13.250  0.00  0.00    +0.000 A 
ATOM      8  C   UNL     1      49.099   7.115  14.003  0.00  0.00    +0.000 A 
ATOM      9  C   UNL     1      47.887   6.801  13.363  0.00  0.00    +0.000 A 
BRANCH   8  10
ATOM     10  C   UNL     1      49.261   6.836  15.447  0.00  0.00    +0.000 A 
ATOM     11  C   UNL     1      50.061   7.650  16.259  0.00  0.00    +0.000 A 
ATOM     12  C   UNL     1      50.111   7.472  17.640  0.00  0.00    +0.000 A 
ATOM     13  C   UNL     1      49.340   6.478  18.244  0.00  0.00    +0.000 A 
ATOM     14  C   UNL     1      48.533   5.629  17.470  0.00  0.00    +0.000 A 
ATOM     15  C   UNL     1      48.523   5.810  16.078  0.00  0.00    +0.000 A 
BRANCH  14  16
ATOM     16  C   UNL     1      47.627   4.631  18.163  0.00  0.00    +0.000 C 
ATOM     17  C   UNL     1      47.269   3.391  17.352  0.00  0.00    +0.000 C 
BRANCH  16  18
ATOM     18  O   UNL     1      46.400   5.277  18.511  0.00  0.00    +0.000 OA
ATOM     19  H   UNL     1      45.789   4.595  18.835  0.00  0.00    +0.000 HD
ENDBRANCH  16  18
ENDBRANCH  14  16
ENDBRANCH   8  10
ENDBRANCH   1   4
BRANCH   1  20
ATOM     20  N   UNL     1      46.080   6.307  10.210  0.00  0.00    +0.000 N 
ATOM     21  H   UNL     1      46.814   6.450   9.518  0.00  0.00    +0.000 HD
BRANCH  20  27
ATOM     22  C   UNL     1      45.677   4.306   8.853  0.00  0.00    +0.000 A 
ATOM     23  C   UNL     1      45.082   3.053   8.683  0.00  0.00    +0.000 A 
ATOM     24  C   UNL     1      44.343   2.475   9.717  0.00  0.00    +0.000 A 
ATOM     25  C   UNL     1      44.188   3.143  10.937  0.00  0.00    +0.000 A 
ATOM     26  C   UNL     1      44.782   4.400  11.103  0.00  0.00    +0.000 A 
ATOM     27  C   UNL     1      45.549   4.992  10.086  0.00  0.00    +0.000 A 
BRANCH  25  28
ATOM     28  C   UNL     1      43.395   2.463  12.004  0.00  0.00    +0.000 C 
ATOM     29  N   UNL     1      43.377   3.004  13.254  0.00  0.00    +0.000 N 
ATOM     30  O   UNL     1      42.771   1.432  11.771  0.00  0.00    +0.000 OA
ATOM     31  H   UNL     1      43.833   3.852  13.534  0.00  0.00    +0.000 HD
ATOM     32  H   UNL     1      42.827   2.512  13.952  0.00  0.00    +0.000 HD
ENDBRANCH  25  28
BRANCH  22  34
ATOM     33  C   UNL     1      47.053   4.094   6.924  0.00  0.00    +0.000 C 
ATOM     34  O   UNL     1      46.426   4.939   7.887  0.00  0.00    +0.000 OA
ENDBRANCH  22  34
ENDBRANCH  20  27
ENDBRANCH   1  20
TORSDOF 8
ENDMDL
MODEL 4
REMARK VINA RESULT:    -6.493      1.495      2.393
REMARK INTER + INTRA:         -10.847
REMARK INTER:                 -10.053
REMARK INTRA:                  -0.794
REMARK UNBOUND:                -1.508
REMARK  Name = 
REMARK  10 active torsions:
REMARK  status: ('A' for Active; 'I' for Inactive)
REMARK    1  A    between atoms: C_1  and  O_2
REMARK    2  A    between atoms: O_2  and  C_3
REMARK    3  A    between atoms: C_6  and  C_7
REMARK    4  A    between atoms: C_11  and  N_12
REMARK    5  A    between atoms: N_12  and  C_13
REMARK    6  A    between atoms: C_13  and  C_14
REMARK    7  A    between atoms: C_18  and  C_19
REMARK    8  A    between atoms: C_23  and  C_24
REMARK    9  A    between atoms: C_24  and  C_25
REMARK   10  A    between atoms: C_24  and  O_26
REMARK                            x       y       z     vdW  Elec       q    Type
REMARK                         _______ _______ _______ _____ _____    ______ ____
ROOT
ATOM      1  C   UNL     1      46.143   7.866  12.016  0.00  0.00    +0.000 C 
ATOM      2  C   UNL     1      45.951   9.299  11.538  0.00  0.00    +0.000 C 
ATOM      3  C   UNL     1      45.517   8.928  12.915  0.00  0.00    +0.000 C 
ENDROOT
BRANCH   1   4
ATOM      4  C   UNL     1      45.156   6.781  11.593  0.00  0.00    +0.000 A 
ATOM      5  C   UNL     1      43.771   6.957  11.728  0.00  0.00    +0.000 A 
ATOM      6  C   UNL     1      42.871   6.047  11.173  0.00  0.00    +0.000 A 
ATOM      7  C   UNL     1      43.340   4.940  10.467  0.00  0.00    +0.000 A 
ATOM      8  C   UNL     1      44.717   4.710  10.320  0.00  0.00    +0.000 A 
ATOM      9  C   UNL     1      45.594   5.628  10.925  0.00  0.00    +0.000 A 
BRANCH   8  10
ATOM     10  C   UNL     1      45.258   3.625   9.474  0.00  0.00    +0.000 A 
ATOM     11  C   UNL     1      44.806   2.306   9.607  0.00  0.00    +0.000 A 
ATOM     12  C   UNL     1      45.214   1.308   8.724  0.00  0.00    +0.000 A 
ATOM     13  C   UNL     1      46.076   1.615   7.671  0.00  0.00    +0.000 A 
ATOM     14  C   UNL     1      46.566   2.920   7.506  0.00  0.00    +0.000 A 
ATOM     15  C   UNL     1      46.163   3.902   8.425  0.00  0.00    +0.000 A 
BRANCH  14  16
ATOM     16  C   UNL     1      47.414   3.247   6.293  0.00  0.00    +0.000 C 
ATOM     17  C   UNL     1      46.870   2.755   4.956  0.00  0.00    +0.000 C 
BRANCH  16  18
ATOM     18  O   UNL     1      48.711   2.668   6.460  0.00  0.00    +0.000 OA
ATOM     19  H   UNL     1      49.226   2.863   5.660  0.00  0.00    +0.000 HD
ENDBRANCH  16  18
ENDBRANCH  14  16
ENDBRANCH   8  10
ENDBRANCH   1   4
BRANCH   1  20
ATOM     20  N   UNL     1      47.516   7.402  12.296  0.00  0.00    +0.000 N 
ATOM     21  H   UNL     1      48.277   7.814  11.757  0.00  0.00    +0.000 HD
BRANCH  20  27
ATOM     22  C   UNL     1      49.087   7.715  14.150  0.00  0.00    +0.000 A 
ATOM     23  C   UNL     1      49.621   7.299  15.374  0.00  0.00    +0.000 A 
ATOM     24  C   UNL     1      49.087   6.194  16.039  0.00  0.00    +0.000 A 
ATOM     25  C   UNL     1      48.012   5.488  15.490  0.00  0.00    +0.000 A 
ATOM     26  C   UNL     1      47.481   5.903  14.263  0.00  0.00    +0.000 A 
ATOM     27  C   UNL     1      47.986   7.025  13.586  0.00  0.00    +0.000 A 
BRANCH  25  28
ATOM     28  C   UNL     1      47.482   4.322  16.259  0.00  0.00    +0.000 C 
ATOM     29  N   UNL     1      47.053   4.518  17.537  0.00  0.00    +0.000 N 
ATOM     30  O   UNL     1      47.433   3.201  15.759  0.00  0.00    +0.000 OA
ATOM     31  H   UNL     1      47.031   5.396  18.021  0.00  0.00    +0.000 HD
ATOM     32  H   UNL     1      46.701   3.701  18.027  0.00  0.00    +0.000 HD
ENDBRANCH  25  28
BRANCH  22  34
ATOM     33  C   UNL     1      49.113  10.079  13.883  0.00  0.00    +0.000 C 
ATOM     34  O   UNL     1      49.551   8.796  13.437  0.00  0.00    +0.000 OA
ENDBRANCH  22  34
ENDBRANCH  20  27
ENDBRANCH   1  20
TORSDOF 8
ENDMDL
MODEL 5
REMARK VINA RESULT:    -6.227      3.188      7.097
REMARK INTER + INTRA:         -10.465
REMARK INTER:                  -9.218
REMARK INTRA:                  -1.247
REMARK UNBOUND:                -1.508
REMARK  Name = 
REMARK  10 active torsions:
REMARK  status: ('A' for Active; 'I' for Inactive)
REMARK    1  A    between atoms: C_1  and  O_2
REMARK    2  A    between atoms: O_2  and  C_3
REMARK    3  A    between atoms: C_6  and  C_7
REMARK    4  A    between atoms: C_11  and  N_12
REMARK    5  A    between atoms: N_12  and  C_13
REMARK    6  A    between atoms: C_13  and  C_14
REMARK    7  A    between atoms: C_18  and  C_19
REMARK    8  A    between atoms: C_23  and  C_24
REMARK    9  A    between atoms: C_24  and  C_25
REMARK   10  A    between atoms: C_24  and  O_26
REMARK                            x       y       z     vdW  Elec       q    Type
REMARK                         _______ _______ _______ _____ _____    ______ ____
ROOT
ATOM      1  C   UNL     1      49.132   8.490  12.701  0.00  0.00    +0.000 C 
ATOM      2  C   UNL     1      49.699   9.245  11.505  0.00  0.00    +0.000 C 
ATOM      3  C   UNL     1      49.572   7.762  11.433  0.00  0.00    +0.000 C 
ENDROOT
BRANCH   1   4
ATOM      4  C   UNL     1      50.020   8.189  13.904  0.00  0.00    +0.000 A 
ATOM      5  C   UNL     1      51.250   8.838  14.089  0.00  0.00    +0.000 A 
ATOM      6  C   UNL     1      51.968   8.698  15.277  0.00  0.00    +0.000 A 
ATOM      7  C   UNL     1      51.467   7.905  16.309  0.00  0.00    +0.000 A 
ATOM      8  C   UNL     1      50.251   7.220  16.164  0.00  0.00    +0.000 A 
ATOM      9  C   UNL     1      49.573   7.355  14.940  0.00  0.00    +0.000 A 
BRANCH   8  10
ATOM     10  C   UNL     1      49.620   6.474  17.275  0.00  0.00    +0.000 A 
ATOM     11  C   UNL     1      49.253   7.115  18.465  0.00  0.00    +0.000 A 
ATOM     12  C   UNL     1      48.540   6.447  19.458  0.00  0.00    +0.000 A 
ATOM     13  C   UNL     1      48.160   5.117  19.272  0.00  0.00    +0.000 A 
ATOM     14  C   UNL     1      48.517   4.430  18.101  0.00  0.00    +0.000 A 
ATOM     15  C   UNL     1      49.260   5.116  17.128  0.00  0.00    +0.000 A 
BRANCH  14  16
ATOM     16  C   UNL     1      47.999   3.023  17.881  0.00  0.00    +0.000 C 
ATOM     17  C   UNL     1      48.750   2.198  16.841  0.00  0.00    +0.000 C 
BRANCH  16  18
ATOM     18  O   UNL     1      46.633   3.088  17.462  0.00  0.00    +0.000 OA
ATOM     19  H   UNL     1      46.415   4.022  17.310  0.00  0.00    +0.000 HD
ENDBRANCH  16  18
ENDBRANCH  14  16
ENDBRANCH   8  10
ENDBRANCH   1   4
BRANCH   1  20
ATOM     20  N   UNL     1      47.691   8.625  12.991  0.00  0.00    +0.000 N 
ATOM     21  H   UNL     1      47.264   9.542  12.862  0.00  0.00    +0.000 HD
BRANCH  20  27
ATOM     22  C   UNL     1      45.458   7.958  12.235  0.00  0.00    +0.000 A 
ATOM     23  C   UNL     1      44.468   6.984  12.082  0.00  0.00    +0.000 A 
ATOM     24  C   UNL     1      44.714   5.660  12.455  0.00  0.00    +0.000 A 
ATOM     25  C   UNL     1      45.955   5.294  12.987  0.00  0.00    +0.000 A 
ATOM     26  C   UNL     1      46.944   6.273  13.143  0.00  0.00    +0.000 A 
ATOM     27  C   UNL     1      46.727   7.605  12.754  0.00  0.00    +0.000 A 
BRANCH  25  28
ATOM     28  C   UNL     1      46.156   3.860  13.355  0.00  0.00    +0.000 C 
ATOM     29  N   UNL     1      45.528   2.899  12.623  0.00  0.00    +0.000 N 
ATOM     30  O   UNL     1      46.871   3.543  14.303  0.00  0.00    +0.000 OA
ATOM     31  H   UNL     1      44.947   3.058  11.821  0.00  0.00    +0.000 HD
ATOM     32  H   UNL     1      45.689   1.937  12.905  0.00  0.00    +0.000 HD
ENDBRANCH  25  28
BRANCH  22  34
ATOM     33  C   UNL     1      44.217   9.567  10.997  0.00  0.00    +0.000 C 
ATOM     34  O   UNL     1      45.296   9.279  11.885  0.00  0.00    +0.000 OA
ENDBRANCH  22  34
ENDBRANCH  20  27
ENDBRANCH   1  20
TORSDOF 8
ENDMDL
MODEL 6
REMARK VINA RESULT:    -6.113      2.214      3.622
REMARK INTER + INTRA:         -10.301
REMARK INTER:                  -9.159
REMARK INTRA:                  -1.143
REMARK UNBOUND:                -1.508
REMARK  Name = 
REMARK  10 active torsions:
REMARK  status: ('A' for Active; 'I' for Inactive)
REMARK    1  A    between atoms: C_1  and  O_2
REMARK    2  A    between atoms: O_2  and  C_3
REMARK    3  A    between atoms: C_6  and  C_7
REMARK    4  A    between atoms: C_11  and  N_12
REMARK    5  A    between atoms: N_12  and  C_13
REMARK    6  A    between atoms: C_13  and  C_14
REMARK    7  A    between atoms: C_18  and  C_19
REMARK    8  A    between atoms: C_23  and  C_24
REMARK    9  A    between atoms: C_24  and  C_25
REMARK   10  A    between atoms: C_24  and  O_26
REMARK                            x       y       z     vdW  Elec       q    Type
REMARK                         _______ _______ _______ _____ _____    ______ ____
ROOT
ATOM      1  C   UNL     1      49.422   8.903  15.710  0.00  0.00    +0.000 C 
ATOM      2  C   UNL     1      49.635  10.349  16.139  0.00  0.00    +0.000 C 
ATOM      3  C   UNL     1      48.303   9.716  16.357  0.00  0.00    +0.000 C 
ENDROOT
BRANCH   1   4
ATOM      4  C   UNL     1      49.153   8.572  14.245  0.00  0.00    +0.000 A 
ATOM      5  C   UNL     1      50.176   8.608  13.285  0.00  0.00    +0.000 A 
ATOM      6  C   UNL     1      49.969   8.129  11.992  0.00  0.00    +0.000 A 
ATOM      7  C   UNL     1      48.729   7.599  11.631  0.00  0.00    +0.000 A 
ATOM      8  C   UNL     1      47.669   7.559  12.550  0.00  0.00    +0.000 A 
ATOM      9  C   UNL     1      47.904   8.085  13.833  0.00  0.00    +0.000 A 
BRANCH   8  10
ATOM     10  C   UNL     1      46.383   6.892  12.254  0.00  0.00    +0.000 A 
ATOM     11  C   UNL     1      45.240   7.632  11.924  0.00  0.00    +0.000 A 
ATOM     12  C   UNL     1      44.064   7.005  11.515  0.00  0.00    +0.000 A 
ATOM     13  C   UNL     1      44.014   5.614  11.410  0.00  0.00    +0.000 A 
ATOM     14  C   UNL     1      45.130   4.831  11.742  0.00  0.00    +0.000 A 
ATOM     15  C   UNL     1      46.293   5.484  12.179  0.00  0.00    +0.000 A 
BRANCH  14  16
ATOM     16  C   UNL     1      45.079   3.334  11.515  0.00  0.00    +0.000 C 
ATOM     17  C   UNL     1      44.426   2.886  10.212  0.00  0.00    +0.000 C 
BRANCH  16  18
ATOM     18  O   UNL     1      44.351   2.723  12.584  0.00  0.00    +0.000 OA
ATOM     19  H   UNL     1      43.536   2.349  12.210  0.00  0.00    +0.000 HD
ENDBRANCH  16  18
ENDBRANCH  14  16
ENDBRANCH   8  10
ENDBRANCH   1   4
BRANCH   1  20
ATOM     20  N   UNL     1      50.084   7.839  16.491  0.00  0.00    +0.000 N 
ATOM     21  H   UNL     1      50.969   8.063  16.945  0.00  0.00    +0.000 HD
BRANCH  20  27
ATOM     22  C   UNL     1      49.638   6.739  18.635  0.00  0.00    +0.000 A 
ATOM     23  C   UNL     1      49.038   5.715  19.373  0.00  0.00    +0.000 A 
ATOM     24  C   UNL     1      48.206   4.785  18.746  0.00  0.00    +0.000 A 
ATOM     25  C   UNL     1      47.964   4.865  17.370  0.00  0.00    +0.000 A 
ATOM     26  C   UNL     1      48.569   5.890  16.633  0.00  0.00    +0.000 A 
ATOM     27  C   UNL     1      49.391   6.850  17.245  0.00  0.00    +0.000 A 
BRANCH  25  28
ATOM     28  C   UNL     1      47.056   3.846  16.765  0.00  0.00    +0.000 C 
ATOM     29  N   UNL     1      46.733   3.953  15.446  0.00  0.00    +0.000 N 
ATOM     30  O   UNL     1      46.600   2.924  17.437  0.00  0.00    +0.000 OA
ATOM     31  H   UNL     1      47.073   4.653  14.813  0.00  0.00    +0.000 HD
ATOM     32  H   UNL     1      46.112   3.242  15.072  0.00  0.00    +0.000 HD
ENDBRANCH  25  28
BRANCH  22  34
ATOM     33  C   UNL     1      49.818   8.849  19.719  0.00  0.00    +0.000 C 
ATOM     34  O   UNL     1      50.462   7.697  19.179  0.00  0.00    +0.000 OA
ENDBRANCH  22  34
ENDBRANCH  20  27
ENDBRANCH   1  20
TORSDOF 8
ENDMDL
MODEL 7
REMARK VINA RESULT:    -5.949      3.690      6.530
REMARK INTER + INTRA:         -10.065
REMARK INTER:                  -8.718
REMARK INTRA:                  -1.347
REMARK UNBOUND:                -1.508
REMARK  Name = 
REMARK  10 active torsions:
REMARK  status: ('A' for Active; 'I' for Inactive)
REMARK    1  A    between atoms: C_1  and  O_2
REMARK    2  A    between atoms: O_2  and  C_3
REMARK    3  A    between atoms: C_6  and  C_7
REMARK    4  A    between atoms: C_11  and  N_12
REMARK    5  A    between atoms: N_12  and  C_13
REMARK    6  A    between atoms: C_13  and  C_14
REMARK    7  A    between atoms: C_18  and  C_19
REMARK    8  A    between atoms: C_23  and  C_24
REMARK    9  A    between atoms: C_24  and  C_25
REMARK   10  A    between atoms: C_24  and  O_26
REMARK                            x       y       z     vdW  Elec       q    Type
REMARK                         _______ _______ _______ _____ _____    ______ ____
ROOT
ATOM      1  C   UNL     1      48.198   8.584  12.144  0.00  0.00    +0.000 C 
ATOM      2  C   UNL     1      47.176   9.349  12.975  0.00  0.00    +0.000 C 
ATOM      3  C   UNL     1      47.503   9.831  11.603  0.00  0.00    +0.000 C 
ENDROOT
BRANCH   1   4
ATOM      4  C   UNL     1      49.689   8.788  12.391  0.00  0.00    +0.000 A 
ATOM      5  C   UNL     1      50.172   9.261  13.621  0.00  0.00    +0.000 A 
ATOM      6  C   UNL     1      51.537   9.269  13.906  0.00  0.00    +0.000 A 
ATOM      7  C   UNL     1      52.452   8.802  12.962  0.00  0.00    +0.000 A 
ATOM      8  C   UNL     1      52.021   8.338  11.710  0.00  0.00    +0.000 A 
ATOM      9  C   UNL     1      50.640   8.378  11.445  0.00  0.00    +0.000 A 
BRANCH   8  10
ATOM     10  C   UNL     1      52.939   7.715  10.732  0.00  0.00    +0.000 A 
ATOM     11  C   UNL     1      54.264   7.412  11.070  0.00  0.00    +0.000 A 
ATOM     12  C   UNL     1      55.091   6.706  10.198  0.00  0.00    +0.000 A 
ATOM     13  C   UNL     1      54.599   6.271   8.966  0.00  0.00    +0.000 A 
ATOM     14  C   UNL     1      53.282   6.564   8.579  0.00  0.00    +0.000 A 
ATOM     15  C   UNL     1      52.478   7.301   9.463  0.00  0.00    +0.000 A 
BRANCH  14  16
ATOM     16  C   UNL     1      52.745   5.987   7.285  0.00  0.00    +0.000 C 
ATOM     17  C   UNL     1      53.320   4.635   6.875  0.00  0.00    +0.000 C 
BRANCH  16  18
ATOM     18  O   UNL     1      53.014   6.901   6.218  0.00  0.00    +0.000 OA
ATOM     19  H   UNL     1      53.473   7.669   6.596  0.00  0.00    +0.000 HD
ENDBRANCH  16  18
ENDBRANCH  14  16
ENDBRANCH   8  10
ENDBRANCH   1   4
BRANCH   1  20
ATOM     20  N   UNL     1      47.816   7.260  11.615  0.00  0.00    +0.000 N 
ATOM     21  H   UNL     1      48.547   6.687  11.195  0.00  0.00    +0.000 HD
BRANCH  20  27
ATOM     22  C   UNL     1      47.139   5.648  13.332  0.00  0.00    +0.000 A 
ATOM     23  C   UNL     1      46.203   4.752  13.857  0.00  0.00    +0.000 A 
ATOM     24  C   UNL     1      44.952   4.604  13.253  0.00  0.00    +0.000 A 
ATOM     25  C   UNL     1      44.621   5.348  12.116  0.00  0.00    +0.000 A 
ATOM     26  C   UNL     1      45.563   6.241  11.590  0.00  0.00    +0.000 A 
ATOM     27  C   UNL     1      46.818   6.424  12.192  0.00  0.00    +0.000 A 
BRANCH  25  28
ATOM     28  C   UNL     1      43.263   5.149  11.527  0.00  0.00    +0.000 C 
ATOM     29  N   UNL     1      42.323   6.119  11.701  0.00  0.00    +0.000 N 
ATOM     30  O   UNL     1      42.988   4.129  10.899  0.00  0.00    +0.000 OA
ATOM     31  H   UNL     1      42.460   6.991  12.175  0.00  0.00    +0.000 HD
ATOM     32  H   UNL     1      41.412   5.945  11.287  0.00  0.00    +0.000 HD
ENDBRANCH  25  28
BRANCH  22  34
ATOM     33  C   UNL     1      48.421   6.384  15.197  0.00  0.00    +0.000 C 
ATOM     34  O   UNL     1      48.388   5.857  13.872  0.00  0.00    +0.000 OA
ENDBRANCH  22  34
ENDBRANCH  20  27
ENDBRANCH   1  20
TORSDOF 8
ENDMDL
MODEL 8
REMARK VINA RESULT:    -5.922      3.130      5.669
REMARK INTER + INTRA:         -10.027
REMARK INTER:                  -8.486
REMARK INTRA:                  -1.541
REMARK UNBOUND:                -1.508
REMARK  Name = 
REMARK  10 active torsions:
REMARK  status: ('A' for Active; 'I' for Inactive)
REMARK    1  A    between atoms: C_1  and  O_2
REMARK    2  A    between atoms: O_2  and  C_3
REMARK    3  A    between atoms: C_6  and  C_7
REMARK    4  A    between atoms: C_11  and  N_12
REMARK    5  A    between atoms: N_12  and  C_13
REMARK    6  A    between atoms: C_13  and  C_14
REMARK    7  A    between atoms: C_18  and  C_19
REMARK    8  A    between atoms: C_23  and  C_24
REMARK    9  A    between atoms: C_24  and  C_25
REMARK   10  A    between atoms: C_24  and  O_26
REMARK                            x       y       z     vdW  Elec       q    Type
REMARK                         _______ _______ _______ _____ _____    ______ ____
ROOT
ATOM      1  C   UNL     1      50.089   6.852  17.910  0.00  0.00    +0.000 C 
ATOM      2  C   UNL     1      51.205   7.486  18.730  0.00  0.00    +0.000 C 
ATOM      3  C   UNL     1      49.824   8.038  18.834  0.00  0.00    +0.000 C 
ENDROOT
BRANCH   1   4
ATOM      4  C   UNL     1      49.936   7.198  16.432  0.00  0.00    +0.000 A 
ATOM      5  C   UNL     1      50.995   7.747  15.694  0.00  0.00    +0.000 A 
ATOM      6  C   UNL     1      50.912   7.888  14.308  0.00  0.00    +0.000 A 
ATOM      7  C   UNL     1      49.763   7.479  13.631  0.00  0.00    +0.000 A 
ATOM      8  C   UNL     1      48.670   6.942  14.327  0.00  0.00    +0.000 A 
ATOM      9  C   UNL     1      48.775   6.849  15.726  0.00  0.00    +0.000 A 
BRANCH   8  10
ATOM     10  C   UNL     1      47.488   6.378  13.641  0.00  0.00    +0.000 A 
ATOM     11  C   UNL     1      46.976   5.121  13.988  0.00  0.00    +0.000 A 
ATOM     12  C   UNL     1      45.788   4.645  13.439  0.00  0.00    +0.000 A 
ATOM     13  C   UNL     1      45.070   5.431  12.536  0.00  0.00    +0.000 A 
ATOM     14  C   UNL     1      45.551   6.691  12.147  0.00  0.00    +0.000 A 
ATOM     15  C   UNL     1      46.765   7.136  12.693  0.00  0.00    +0.000 A 
BRANCH  14  16
ATOM     16  C   UNL     1      44.698   7.565  11.249  0.00  0.00    +0.000 C 
ATOM     17  C   UNL     1      44.738   9.059  11.552  0.00  0.00    +0.000 C 
BRANCH  16  18
ATOM     18  O   UNL     1      43.334   7.149  11.352  0.00  0.00    +0.000 OA
ATOM     19  H   UNL     1      42.801   7.745  10.799  0.00  0.00    +0.000 HD
ENDBRANCH  16  18
ENDBRANCH  14  16
ENDBRANCH   8  10
ENDBRANCH   1   4
BRANCH   1  20
ATOM     20  N   UNL     1      49.611   5.512  18.303  0.00  0.00    +0.000 N 
ATOM     21  H   UNL     1      48.605   5.371  18.384  0.00  0.00    +0.000 HD
BRANCH  20  27
ATOM     22  C   UNL     1      49.479   3.294  17.270  0.00  0.00    +0.000 A 
ATOM     23  C   UNL     1      50.055   2.056  16.971  0.00  0.00    +0.000 A 
ATOM     24  C   UNL     1      51.379   1.789  17.328  0.00  0.00    +0.000 A 
ATOM     25  C   UNL     1      52.144   2.755  17.989  0.00  0.00    +0.000 A 
ATOM     26  C   UNL     1      51.562   3.993  18.290  0.00  0.00    +0.000 A 
ATOM     27  C   UNL     1      50.241   4.293  17.922  0.00  0.00    +0.000 A 
BRANCH  25  28
ATOM     28  C   UNL     1      53.555   2.408  18.332  0.00  0.00    +0.000 C 
ATOM     29  N   UNL     1      54.566   3.030  17.663  0.00  0.00    +0.000 N 
ATOM     30  O   UNL     1      53.811   1.574  19.197  0.00  0.00    +0.000 OA
ATOM     31  H   UNL     1      54.458   3.738  16.962  0.00  0.00    +0.000 HD
ATOM     32  H   UNL     1      55.511   2.766  17.924  0.00  0.00    +0.000 HD
ENDBRANCH  25  28
BRANCH  22  34
ATOM     33  C   UNL     1      47.156   2.921  17.625  0.00  0.00    +0.000 C 
ATOM     34  O   UNL     1      48.186   3.637  16.946  0.00  0.00    +0.000 OA
ENDBRANCH  22  34
ENDBRANCH  20  27
ENDBRANCH   1  20
TORSDOF 8
ENDMDL
MODEL 9
REMARK VINA RESULT:    -5.341      2.861      5.868
REMARK INTER + INTRA:          -9.190
REMARK INTER:                  -7.628
REMARK INTRA:                  -1.562
REMARK UNBOUND:                -1.508
REMARK  Name = 
REMARK  10 active torsions:
REMARK  status: ('A' for Active; 'I' for Inactive)
REMARK    1  A    between atoms: C_1  and  O_2
REMARK    2  A    between atoms: O_2  and  C_3
REMARK    3  A    between atoms: C_6  and  C_7
REMARK    4  A    between atoms: C_11  and  N_12
REMARK    5  A    between atoms: N_12  and  C_13
REMARK    6  A    between atoms: C_13  and  C_14
REMARK    7  A    between atoms: C_18  and  C_19
REMARK    8  A    between atoms: C_23  and  C_24
REMARK    9  A    between atoms: C_24  and  C_25
REMARK   10  A    between atoms: C_24  and  O_26
REMARK                            x       y       z     vdW  Elec       q    Type
REMARK                         _______ _______ _______ _____ _____    ______ ____
ROOT
ATOM      1  C   UNL     1      49.285   6.737  18.350  0.00  0.00    +0.000 C 
ATOM      2  C   UNL     1      50.032   7.245  19.577  0.00  0.00    +0.000 C 
ATOM      3  C   UNL     1      48.687   7.806  19.261  0.00  0.00    +0.000 C 
ENDROOT
BRANCH   1   4
ATOM      4  C   UNL     1      49.646   7.263  16.964  0.00  0.00    +0.000 A 
ATOM      5  C   UNL     1      50.957   7.190  16.470  0.00  0.00    +0.000 A 
ATOM      6  C   UNL     1      51.245   7.500  15.141  0.00  0.00    +0.000 A 
ATOM      7  C   UNL     1      50.223   7.889  14.275  0.00  0.00    +0.000 A 
ATOM      8  C   UNL     1      48.899   7.996  14.727  0.00  0.00    +0.000 A 
ATOM      9  C   UNL     1      48.652   7.711  16.082  0.00  0.00    +0.000 A 
BRANCH   8  10
ATOM     10  C   UNL     1      47.767   8.278  13.818  0.00  0.00    +0.000 A 
ATOM     11  C   UNL     1      47.641   9.518  13.178  0.00  0.00    +0.000 A 
ATOM     12  C   UNL     1      46.653   9.742  12.221  0.00  0.00    +0.000 A 
ATOM     13  C   UNL     1      45.776   8.716  11.868  0.00  0.00    +0.000 A 
ATOM     14  C   UNL     1      45.856   7.461  12.491  0.00  0.00    +0.000 A 
ATOM     15  C   UNL     1      46.841   7.269  13.473  0.00  0.00    +0.000 A 
BRANCH  14  16
ATOM     16  C   UNL     1      44.961   6.336  12.011  0.00  0.00    +0.000 C 
ATOM     17  C   UNL     1      45.538   4.931  12.146  0.00  0.00    +0.000 C 
BRANCH  16  18
ATOM     18  O   UNL     1      44.658   6.538  10.628  0.00  0.00    +0.000 OA
ATOM     19  H   UNL     1      43.968   5.900  10.381  0.00  0.00    +0.000 HD
ENDBRANCH  16  18
ENDBRANCH  14  16
ENDBRANCH   8  10
ENDBRANCH   1   4
BRANCH   1  20
ATOM     20  N   UNL     1      48.734   5.368  18.387  0.00  0.00    +0.000 N 
ATOM     21  H   UNL     1      47.727   5.257  18.278  0.00  0.00    +0.000 HD
BRANCH  20  27
ATOM     22  C   UNL     1      48.684   3.294  17.082  0.00  0.00    +0.000 A 
ATOM     23  C   UNL     1      49.299   2.117  16.647  0.00  0.00    +0.000 A 
ATOM     24  C   UNL     1      50.620   1.836  17.004  0.00  0.00    +0.000 A 
ATOM     25  C   UNL     1      51.343   2.729  17.801  0.00  0.00    +0.000 A 
ATOM     26  C   UNL     1      50.724   3.905  18.239  0.00  0.00    +0.000 A 
ATOM     27  C   UNL     1      49.404   4.221  17.874  0.00  0.00    +0.000 A 
BRANCH  25  28
ATOM     28  C   UNL     1      52.754   2.373  18.137  0.00  0.00    +0.000 C 
ATOM     29  N   UNL     1      53.386   1.420  17.397  0.00  0.00    +0.000 N 
ATOM     30  O   UNL     1      53.343   2.921  19.066  0.00  0.00    +0.000 OA
ATOM     31  H   UNL     1      52.998   0.936  16.608  0.00  0.00    +0.000 HD
ATOM     32  H   UNL     1      54.344   1.205  17.657  0.00  0.00    +0.000 HD
ENDBRANCH  25  28
BRANCH  22  34
ATOM     33  C   UNL     1      47.191   4.217  15.475  0.00  0.00    +0.000 C 
ATOM     34  O   UNL     1      47.391   3.647  16.767  0.00  0.00    +0.000 OA
ENDBRANCH  22  34
ENDBRANCH  20  27
ENDBRANCH   1  20
TORSDOF 8
ENDMDL
