MODEL 1
REMARK VINA RESULT:    -7.927      0.000      0.000
REMARK INTER + INTRA:         -11.362
REMARK INTER:                 -10.708
REMARK INTRA:                  -0.654
REMARK UNBOUND:                -0.654
REMARK  Name = 
REMARK  6 active torsions:
REMARK  status: ('A' for Active; 'I' for Inactive)
REMARK    1  A    between atoms: C_2  and  C_3
REMARK    2  A    between atoms: C_6  and  N_7
REMARK    3  A    between atoms: N_7  and  C_8
REMARK    4  A    between atoms: C_8  and  C_9
REMARK    5  A    between atoms: C_12  and  O_13
REMARK    6  A    between atoms: O_13  and  C_14
REMARK                            x       y       z     vdW  Elec       q    Type
REMARK                         _______ _______ _______ _____ _____    ______ ____
ROOT
ATOM      1  C   UNL     1      43.848   4.871  11.273  0.00  0.00    +0.000 C 
ATOM      2  C   UNL     1      42.537   5.175  11.999  0.00  0.00    +0.000 C 
ATOM      3  C   UNL     1      43.165   6.222  11.144  0.00  0.00    +0.000 C 
ENDROOT
BRANCH   1   4
ATOM      4  C   UNL     1      45.104   4.823  12.130  0.00  0.00    +0.000 A 
ATOM      5  C   UNL     1      45.774   5.998  12.500  0.00  0.00    +0.000 A 
ATOM      6  C   UNL     1      46.778   5.979  13.470  0.00  0.00    +0.000 A 
ATOM      7  C   UNL     1      47.141   4.781  14.083  0.00  0.00    +0.000 A 
ATOM      8  C   UNL     1      46.605   3.588  13.613  0.00  0.00    +0.000 A 
ATOM      9  C   UNL     1      45.591   3.612  12.652  0.00  0.00    +0.000 A 
BRANCH   7  10
ATOM     10  O   UNL     1      48.056   4.884  15.085  0.00  0.00    +0.000 OA
BRANCH  10  11
ATOM     11  C   UNL     1      47.857   4.109  16.264  0.00  0.00    +0.000 C 
ATOM     12  F   UNL     1      48.061   2.782  16.111  0.00  0.00    +0.000 F 
ATOM     13  F   UNL     1      48.687   4.561  17.227  0.00  0.00    +0.000 F 
ATOM     14  F   UNL     1      46.585   4.280  16.689  0.00  0.00    +0.000 F 
ENDBRANCH  10  11
ENDBRANCH   7  10
ENDBRANCH   1   4
BRANCH   1  15
ATOM     15  N   UNL     1      43.777   3.815  10.271  0.00  0.00    +0.000 N 
ATOM     16  H   UNL     1      42.872   3.447  10.000  0.00  0.00    +0.000 HD
BRANCH  15  20
ATOM     17  C   UNL     1      46.580   2.608   7.534  0.00  0.00    +0.000 A 
ATOM     18  C   UNL     1      45.948   1.732   8.397  0.00  0.00    +0.000 A 
ATOM     19  N   UNL     1      45.024   2.138   9.299  0.00  0.00    +0.000 NA
ATOM     20  C   UNL     1      44.728   3.459   9.325  0.00  0.00    +0.000 A 
ATOM     21  C   UNL     1      45.379   4.331   8.456  0.00  0.00    +0.000 A 
ATOM     22  N   UNL     1      46.309   3.936   7.543  0.00  0.00    +0.000 NA
BRANCH  17  24
ATOM     23  N   UNL     1      48.306   1.698   5.823  0.00  0.00    +0.000 NA
ATOM     24  C   UNL     1      47.543   2.132   6.590  0.00  0.00    +0.000 C 
ENDBRANCH  17  24
ENDBRANCH  15  20
ENDBRANCH   1  15
TORSDOF 6
ENDMDL
MODEL 2
REMARK VINA RESULT:    -7.566      1.586      1.783
REMARK INTER + INTRA:         -10.873
REMARK INTER:                 -10.175
REMARK INTRA:                  -0.698
REMARK UNBOUND:                -0.654
REMARK  Name = 
REMARK  6 active torsions:
REMARK  status: ('A' for Active; 'I' for Inactive)
REMARK    1  A    between atoms: C_2  and  C_3
REMARK    2  A    between atoms: C_6  and  N_7
REMARK    3  A    between atoms: N_7  and  C_8
REMARK    4  A    between atoms: C_8  and  C_9
REMARK    5  A    between atoms: C_12  and  O_13
REMARK    6  A    between atoms: O_13  and  C_14
REMARK                            x       y       z     vdW  Elec       q    Type
REMARK                         _______ _______ _______ _____ _____    ______ ____
ROOT
ATOM      1  C   UNL     1      43.946   5.002  11.274  0.00  0.00    +0.000 C 
ATOM      2  C   UNL     1      42.808   5.107  12.291  0.00  0.00    +0.000 C 
ATOM      3  C   UNL     1      43.005   6.194  11.291  0.00  0.00    +0.000 C 
ENDROOT
BRANCH   1   4
ATOM      4  C   UNL     1      45.353   5.239  11.803  0.00  0.00    +0.000 A 
ATOM      5  C   UNL     1      46.126   6.317  11.347  0.00  0.00    +0.000 A 
ATOM      6  C   UNL     1      47.312   6.675  11.991  0.00  0.00    +0.000 A 
ATOM      7  C   UNL     1      47.755   5.956  13.100  0.00  0.00    +0.000 A 
ATOM      8  C   UNL     1      47.090   4.790  13.464  0.00  0.00    +0.000 A 
ATOM      9  C   UNL     1      45.897   4.442  12.825  0.00  0.00    +0.000 A 
BRANCH   7  10
ATOM     10  O   UNL     1      48.865   6.446  13.717  0.00  0.00    +0.000 OA
BRANCH  10  11
ATOM     11  C   UNL     1      48.706   7.096  14.974  0.00  0.00    +0.000 C 
ATOM     12  F   UNL     1      48.278   6.297  15.976  0.00  0.00    +0.000 F 
ATOM     13  F   UNL     1      49.889   7.637  15.336  0.00  0.00    +0.000 F 
ATOM     14  F   UNL     1      47.808   8.098  14.839  0.00  0.00    +0.000 F 
ENDBRANCH  10  11
ENDBRANCH   7  10
ENDBRANCH   1   4
BRANCH   1  15
ATOM     15  N   UNL     1      43.847   3.889  10.338  0.00  0.00    +0.000 N 
ATOM     16  H   UNL     1      42.939   3.489  10.136  0.00  0.00    +0.000 HD
BRANCH  15  20
ATOM     17  C   UNL     1      46.531   2.588   7.525  0.00  0.00    +0.000 A 
ATOM     18  C   UNL     1      45.966   1.749   8.469  0.00  0.00    +0.000 A 
ATOM     19  N   UNL     1      45.081   2.186   9.396  0.00  0.00    +0.000 NA
ATOM     20  C   UNL     1      44.755   3.500   9.364  0.00  0.00    +0.000 A 
ATOM     21  C   UNL     1      45.340   4.335   8.414  0.00  0.00    +0.000 A 
ATOM     22  N   UNL     1      46.229   3.908   7.476  0.00  0.00    +0.000 NA
BRANCH  17  24
ATOM     23  N   UNL     1      48.203   1.619   5.794  0.00  0.00    +0.000 NA
ATOM     24  C   UNL     1      47.453   2.079   6.559  0.00  0.00    +0.000 C 
ENDBRANCH  17  24
ENDBRANCH  15  20
ENDBRANCH   1  15
TORSDOF 6
ENDMDL
MODEL 3
REMARK VINA RESULT:    -7.393      2.472      2.936
REMARK INTER + INTRA:         -10.641
REMARK INTER:                 -10.097
REMARK INTRA:                  -0.544
REMARK UNBOUND:                -0.654
REMARK  Name = 
REMARK  6 active torsions:
REMARK  status: ('A' for Active; 'I' for Inactive)
REMARK    1  A    between atoms: C_2  and  C_3
REMARK    2  A    between atoms: C_6  and  N_7
REMARK    3  A    between atoms: N_7  and  C_8
REMARK    4  A    between atoms: C_8  and  C_9
REMARK    5  A    between atoms: C_12  and  O_13
REMARK    6  A    between atoms: O_13  and  C_14
REMARK                            x       y       z     vdW  Elec       q    Type
REMARK                         _______ _______ _______ _____ _____    ______ ____
ROOT
ATOM      1  C   UNL     1      43.876   4.909  11.331  0.00  0.00    +0.000 C 
ATOM      2  C   UNL     1      43.251   3.838  12.228  0.00  0.00    +0.000 C 
ATOM      3  C   UNL     1      42.645   5.199  12.173  0.00  0.00    +0.000 C 
ENDROOT
BRANCH   1   4
ATOM      4  C   UNL     1      45.186   5.518  11.811  0.00  0.00    +0.000 A 
ATOM      5  C   UNL     1      45.546   6.827  11.465  0.00  0.00    +0.000 A 
ATOM      6  C   UNL     1      46.620   7.467  12.087  0.00  0.00    +0.000 A 
ATOM      7  C   UNL     1      47.363   6.805  13.064  0.00  0.00    +0.000 A 
ATOM      8  C   UNL     1      47.123   5.456  13.302  0.00  0.00    +0.000 A 
ATOM      9  C   UNL     1      46.039   4.824  12.686  0.00  0.00    +0.000 A 
BRANCH   7  10
ATOM     10  O   UNL     1      48.321   7.548  13.682  0.00  0.00    +0.000 OA
BRANCH  10  11
ATOM     11  C   UNL     1      49.545   7.779  12.990  0.00  0.00    +0.000 C 
ATOM     12  F   UNL     1      49.834   6.874  12.030  0.00  0.00    +0.000 F 
ATOM     13  F   UNL     1      49.499   9.004  12.424  0.00  0.00    +0.000 F 
ATOM     14  F   UNL     1      50.561   7.766  13.883  0.00  0.00    +0.000 F 
ENDBRANCH  10  11
ENDBRANCH   7  10
ENDBRANCH   1   4
BRANCH   1  15
ATOM     15  N   UNL     1      43.847   4.624   9.903  0.00  0.00    +0.000 N 
ATOM     16  H   UNL     1      43.274   5.195   9.293  0.00  0.00    +0.000 HD
BRANCH  15  20
ATOM     17  C   UNL     1      46.618   2.679   7.590  0.00  0.00    +0.000 A 
ATOM     18  C   UNL     1      46.423   4.048   7.538  0.00  0.00    +0.000 A 
ATOM     19  N   UNL     1      45.505   4.683   8.304  0.00  0.00    +0.000 NA
ATOM     20  C   UNL     1      44.772   3.918   9.146  0.00  0.00    +0.000 A 
ATOM     21  C   UNL     1      44.972   2.540   9.181  0.00  0.00    +0.000 A 
ATOM     22  N   UNL     1      45.892   1.889   8.418  0.00  0.00    +0.000 NA
BRANCH  17  24
ATOM     23  N   UNL     1      48.378   1.508   6.085  0.00  0.00    +0.000 NA
ATOM     24  C   UNL     1      47.607   2.053   6.769  0.00  0.00    +0.000 C 
ENDBRANCH  17  24
ENDBRANCH  15  20
ENDBRANCH   1  15
TORSDOF 6
ENDMDL
MODEL 4
REMARK VINA RESULT:    -7.325      4.952      7.198
REMARK INTER + INTRA:         -10.549
REMARK INTER:                  -9.844
REMARK INTRA:                  -0.705
REMARK UNBOUND:                -0.654
REMARK  Name = 
REMARK  6 active torsions:
REMARK  status: ('A' for Active; 'I' for Inactive)
REMARK    1  A    between atoms: C_2  and  C_3
REMARK    2  A    between atoms: C_6  and  N_7
REMARK    3  A    between atoms: N_7  and  C_8
REMARK    4  A    between atoms: C_8  and  C_9
REMARK    5  A    between atoms: C_12  and  O_13
REMARK    6  A    between atoms: O_13  and  C_14
REMARK                            x       y       z     vdW  Elec       q    Type
REMARK                         _______ _______ _______ _____ _____    ______ ____
ROOT
ATOM      1  C   UNL     1      44.220   4.838  11.655  0.00  0.00    +0.000 C 
ATOM      2  C   UNL     1      42.694   4.759  11.719  0.00  0.00    +0.000 C 
ATOM      3  C   UNL     1      43.515   3.813  12.527  0.00  0.00    +0.000 C 
ENDROOT
BRANCH   1   4
ATOM      4  C   UNL     1      44.876   4.314  10.385  0.00  0.00    +0.000 A 
ATOM      5  C   UNL     1      44.722   2.978   9.989  0.00  0.00    +0.000 A 
ATOM      6  C   UNL     1      45.119   2.554   8.719  0.00  0.00    +0.000 A 
ATOM      7  C   UNL     1      45.686   3.457   7.821  0.00  0.00    +0.000 A 
ATOM      8  C   UNL     1      45.994   4.742   8.254  0.00  0.00    +0.000 A 
ATOM      9  C   UNL     1      45.584   5.166   9.521  0.00  0.00    +0.000 A 
BRANCH   7  10
ATOM     10  O   UNL     1      45.943   2.970   6.577  0.00  0.00    +0.000 OA
BRANCH  10  11
ATOM     11  C   UNL     1      47.152   2.244   6.373  0.00  0.00    +0.000 C 
ATOM     12  F   UNL     1      48.145   2.543   7.238  0.00  0.00    +0.000 F 
ATOM     13  F   UNL     1      46.887   0.924   6.465  0.00  0.00    +0.000 F 
ATOM     14  F   UNL     1      47.608   2.497   5.125  0.00  0.00    +0.000 F 
ENDBRANCH  10  11
ENDBRANCH   7  10
ENDBRANCH   1   4
BRANCH   1  15
ATOM     15  N   UNL     1      44.803   6.078  12.151  0.00  0.00    +0.000 N 
ATOM     16  H   UNL     1      44.213   6.894  12.264  0.00  0.00    +0.000 HD
BRANCH  15  20
ATOM     17  C   UNL     1      48.284   6.749  14.211  0.00  0.00    +0.000 A 
ATOM     18  C   UNL     1      47.592   7.753  13.559  0.00  0.00    +0.000 A 
ATOM     19  N   UNL     1      46.443   7.524  12.879  0.00  0.00    +0.000 NA
ATOM     20  C   UNL     1      45.981   6.251  12.865  0.00  0.00    +0.000 A 
ATOM     21  C   UNL     1      46.694   5.248  13.518  0.00  0.00    +0.000 A 
ATOM     22  N   UNL     1      47.849   5.466  14.206  0.00  0.00    +0.000 NA
BRANCH  17  24
ATOM     23  N   UNL     1      50.495   7.253  15.472  0.00  0.00    +0.000 NA
ATOM     24  C   UNL     1      49.488   7.041  14.925  0.00  0.00    +0.000 C 
ENDBRANCH  17  24
ENDBRANCH  15  20
ENDBRANCH   1  15
TORSDOF 6
ENDMDL
MODEL 5
REMARK VINA RESULT:    -7.059      4.931      7.328
REMARK INTER + INTRA:         -10.190
REMARK INTER:                  -9.534
REMARK INTRA:                  -0.656
REMARK UNBOUND:                -0.654
REMARK  Name = 
REMARK  6 active torsions:
REMARK  status: ('A' for Active; 'I' for Inactive)
REMARK    1  A    between atoms: C_2  and  C_3
REMARK    2  A    between atoms: C_6  and  N_7
REMARK    3  A    between atoms: N_7  and  C_8
REMARK    4  A    between atoms: C_8  and  C_9
REMARK    5  A    between atoms: C_12  and  O_13
REMARK    6  A    between atoms: O_13  and  C_14
REMARK                            x       y       z     vdW  Elec       q    Type
REMARK                         _______ _______ _______ _____ _____    ______ ____
ROOT
ATOM      1  C   UNL     1      44.787   4.503  11.686  0.00  0.00    +0.000 C 
ATOM      2  C   UNL     1      43.478   5.188  12.083  0.00  0.00    +0.000 C 
ATOM      3  C   UNL     1      43.687   3.750  12.414  0.00  0.00    +0.000 C 
ENDROOT
BRANCH   1   4
ATOM      4  C   UNL     1      44.966   4.185  10.208  0.00  0.00    +0.000 A 
ATOM      5  C   UNL     1      45.650   5.064   9.356  0.00  0.00    +0.000 A 
ATOM      6  C   UNL     1      46.020   4.674   8.067  0.00  0.00    +0.000 A 
ATOM      7  C   UNL     1      45.704   3.399   7.600  0.00  0.00    +0.000 A 
ATOM      8  C   UNL     1      44.887   2.577   8.368  0.00  0.00    +0.000 A 
ATOM      9  C   UNL     1      44.530   2.966   9.663  0.00  0.00    +0.000 A 
BRANCH   7  10
ATOM     10  O   UNL     1      46.196   3.081   6.372  0.00  0.00    +0.000 OA
BRANCH  10  11
ATOM     11  C   UNL     1      47.309   2.195   6.299  0.00  0.00    +0.000 C 
ATOM     12  F   UNL     1      47.957   2.194   5.114  0.00  0.00    +0.000 F 
ATOM     13  F   UNL     1      48.190   2.525   7.267  0.00  0.00    +0.000 F 
ATOM     14  F   UNL     1      46.880   0.934   6.531  0.00  0.00    +0.000 F 
ENDBRANCH  10  11
ENDBRANCH   7  10
ENDBRANCH   1   4
BRANCH   1  15
ATOM     15  N   UNL     1      45.986   5.028  12.326  0.00  0.00    +0.000 N 
ATOM     16  H   UNL     1      46.294   5.968  12.110  0.00  0.00    +0.000 HD
BRANCH  15  20
ATOM     17  C   UNL     1      47.824   3.899  15.813  0.00  0.00    +0.000 A 
ATOM     18  C   UNL     1      47.525   5.215  15.514  0.00  0.00    +0.000 A 
ATOM     19  N   UNL     1      46.919   5.581  14.359  0.00  0.00    +0.000 NA
ATOM     20  C   UNL     1      46.602   4.592  13.491  0.00  0.00    +0.000 A 
ATOM     21  C   UNL     1      46.918   3.271  13.801  0.00  0.00    +0.000 A 
ATOM     22  N   UNL     1      47.526   2.890  14.958  0.00  0.00    +0.000 NA
BRANCH  17  24
ATOM     23  N   UNL     1      48.994   3.326  18.057  0.00  0.00    +0.000 NA
ATOM     24  C   UNL     1      48.455   3.559  17.049  0.00  0.00    +0.000 C 
ENDBRANCH  17  24
ENDBRANCH  15  20
ENDBRANCH   1  15
TORSDOF 6
ENDMDL
MODEL 6
REMARK VINA RESULT:    -6.274      4.603      7.123
REMARK INTER + INTRA:          -9.129
REMARK INTER:                  -8.358
REMARK INTRA:                  -0.772
REMARK UNBOUND:                -0.654
REMARK  Name = 
REMARK  6 active torsions:
REMARK  status: ('A' for Active; 'I' for Inactive)
REMARK    1  A    between atoms: C_2  and  C_3
REMARK    2  A    between atoms: C_6  and  N_7
REMARK    3  A    between atoms: N_7  and  C_8
REMARK    4  A    between atoms: C_8  and  C_9
REMARK    5  A    between atoms: C_12  and  O_13
REMARK    6  A    between atoms: O_13  and  C_14
REMARK                            x       y       z     vdW  Elec       q    Type
REMARK                         _______ _______ _______ _____ _____    ______ ____
ROOT
ATOM      1  C   UNL     1      46.384   7.340  12.413  0.00  0.00    +0.000 C 
ATOM      2  C   UNL     1      46.553   8.815  12.041  0.00  0.00    +0.000 C 
ATOM      3  C   UNL     1      45.556   8.426  13.079  0.00  0.00    +0.000 C 
ENDROOT
BRANCH   1   4
ATOM      4  C   UNL     1      45.665   6.462  11.400  0.00  0.00    +0.000 A 
ATOM      5  C   UNL     1      46.245   6.163  10.159  0.00  0.00    +0.000 A 
ATOM      6  C   UNL     1      45.704   5.178   9.330  0.00  0.00    +0.000 A 
ATOM      7  C   UNL     1      44.564   4.477   9.721  0.00  0.00    +0.000 A 
ATOM      8  C   UNL     1      43.884   4.872  10.869  0.00  0.00    +0.000 A 
ATOM      9  C   UNL     1      44.436   5.849  11.702  0.00  0.00    +0.000 A 
BRANCH   7  10
ATOM     10  O   UNL     1      44.175   3.470   8.893  0.00  0.00    +0.000 OA
BRANCH  10  11
ATOM     11  C   UNL     1      44.936   2.266   8.892  0.00  0.00    +0.000 C 
ATOM     12  F   UNL     1      44.201   1.132   8.884  0.00  0.00    +0.000 F 
ATOM     13  F   UNL     1      45.741   2.261   7.808  0.00  0.00    +0.000 F 
ATOM     14  F   UNL     1      45.715   2.240   9.996  0.00  0.00    +0.000 F 
ENDBRANCH  10  11
ENDBRANCH   7  10
ENDBRANCH   1   4
BRANCH   1  15
ATOM     15  N   UNL     1      47.552   6.710  13.016  0.00  0.00    +0.000 N 
ATOM     16  H   UNL     1      48.475   7.071  12.805  0.00  0.00    +0.000 HD
BRANCH  15  20
ATOM     17  C   UNL     1      47.850   4.441  16.417  0.00  0.00    +0.000 A 
ATOM     18  C   UNL     1      48.598   5.585  16.210  0.00  0.00    +0.000 A 
ATOM     19  N   UNL     1      48.496   6.329  15.083  0.00  0.00    +0.000 NA
ATOM     20  C   UNL     1      47.611   5.910  14.148  0.00  0.00    +0.000 A 
ATOM     21  C   UNL     1      46.871   4.750  14.366  0.00  0.00    +0.000 A 
ATOM     22  N   UNL     1      46.964   3.994  15.494  0.00  0.00    +0.000 NA
BRANCH  17  24
ATOM     23  N   UNL     1      48.082   3.040  18.589  0.00  0.00    +0.000 NA
ATOM     24  C   UNL     1      47.985   3.692  17.627  0.00  0.00    +0.000 C 
ENDBRANCH  17  24
ENDBRANCH  15  20
ENDBRANCH   1  15
TORSDOF 6
ENDMDL
MODEL 7
REMARK VINA RESULT:    -5.712      5.227      8.070
REMARK INTER + INTRA:          -8.370
REMARK INTER:                  -7.502
REMARK INTRA:                  -0.868
REMARK UNBOUND:                -0.654
REMARK  Name = 
REMARK  6 active torsions:
REMARK  status: ('A' for Active; 'I' for Inactive)
REMARK    1  A    between atoms: C_2  and  C_3
REMARK    2  A    between atoms: C_6  and  N_7
REMARK    3  A    between atoms: N_7  and  C_8
REMARK    4  A    between atoms: C_8  and  C_9
REMARK    5  A    between atoms: C_12  and  O_13
REMARK    6  A    between atoms: O_13  and  C_14
REMARK                            x       y       z     vdW  Elec       q    Type
REMARK                         _______ _______ _______ _____ _____    ______ ____
ROOT
ATOM      1  C   UNL     1      49.078   7.636  12.850  0.00  0.00    +0.000 C 
ATOM      2  C   UNL     1      49.913   7.698  11.570  0.00  0.00    +0.000 C 
ATOM      3  C   UNL     1      49.377   8.957  12.162  0.00  0.00    +0.000 C 
ENDROOT
BRANCH   1   4
ATOM      4  C   UNL     1      47.660   7.103  12.712  0.00  0.00    +0.000 A 
ATOM      5  C   UNL     1      47.376   5.742  12.894  0.00  0.00    +0.000 A 
ATOM      6  C   UNL     1      46.060   5.289  13.000  0.00  0.00    +0.000 A 
ATOM      7  C   UNL     1      44.997   6.188  12.917  0.00  0.00    +0.000 A 
ATOM      8  C   UNL     1      45.253   7.511  12.574  0.00  0.00    +0.000 A 
ATOM      9  C   UNL     1      46.572   7.963  12.481  0.00  0.00    +0.000 A 
BRANCH   7  10
ATOM     10  O   UNL     1      43.761   5.664  13.134  0.00  0.00    +0.000 OA
BRANCH  10  11
ATOM     11  C   UNL     1      43.060   5.105  12.027  0.00  0.00    +0.000 C 
ATOM     12  F   UNL     1      43.655   5.291  10.828  0.00  0.00    +0.000 F 
ATOM     13  F   UNL     1      42.913   3.779  12.230  0.00  0.00    +0.000 F 
ATOM     14  F   UNL     1      41.829   5.661  11.963  0.00  0.00    +0.000 F 
ENDBRANCH  10  11
ENDBRANCH   7  10
ENDBRANCH   1   4
BRANCH   1  15
ATOM     15  N   UNL     1      49.779   7.147  14.030  0.00  0.00    +0.000 N 
ATOM     16  H   UNL     1      50.788   7.053  14.006  0.00  0.00    +0.000 HD
BRANCH  15  20
ATOM     17  C   UNL     1      48.492   6.926  17.917  0.00  0.00    +0.000 A 
ATOM     18  C   UNL     1      48.867   5.813  17.186  0.00  0.00    +0.000 A 
ATOM     19  N   UNL     1      49.290   5.894  15.902  0.00  0.00    +0.000 NA
ATOM     20  C   UNL     1      49.341   7.128  15.347  0.00  0.00    +0.000 A 
ATOM     21  C   UNL     1      48.951   8.238  16.092  0.00  0.00    +0.000 A 
ATOM     22  N   UNL     1      48.525   8.172  17.384  0.00  0.00    +0.000 NA
BRANCH  17  24
ATOM     23  N   UNL     1      47.683   6.645  20.366  0.00  0.00    +0.000 NA
ATOM     24  C   UNL     1      48.061   6.793  19.273  0.00  0.00    +0.000 C 
ENDBRANCH  17  24
ENDBRANCH  15  20
ENDBRANCH   1  15
TORSDOF 6
ENDMDL
MODEL 8
REMARK VINA RESULT:    -5.105      4.945      7.682
REMARK INTER + INTRA:          -7.550
REMARK INTER:                  -6.630
REMARK INTRA:                  -0.920
REMARK UNBOUND:                -0.654
REMARK  Name = 
REMARK  6 active torsions:
REMARK  status: ('A' for Active; 'I' for Inactive)
REMARK    1  A    between atoms: C_2  and  C_3
REMARK    2  A    between atoms: C_6  and  N_7
REMARK    3  A    between atoms: N_7  and  C_8
REMARK    4  A    between atoms: C_8  and  C_9
REMARK    5  A    between atoms: C_12  and  O_13
REMARK    6  A    between atoms: O_13  and  C_14
REMARK                            x       y       z     vdW  Elec       q    Type
REMARK                         _______ _______ _______ _____ _____    ______ ____
ROOT
ATOM      1  C   UNL     1      48.528   8.597  12.898  0.00  0.00    +0.000 C 
ATOM      2  C   UNL     1      49.107   9.729  12.047  0.00  0.00    +0.000 C 
ATOM      3  C   UNL     1      48.411  10.050  13.325  0.00  0.00    +0.000 C 
ENDROOT
BRANCH   1   4
ATOM      4  C   UNL     1      47.259   7.937  12.378  0.00  0.00    +0.000 A 
ATOM      5  C   UNL     1      47.315   6.898  11.438  0.00  0.00    +0.000 A 
ATOM      6  C   UNL     1      46.184   6.138  11.137  0.00  0.00    +0.000 A 
ATOM      7  C   UNL     1      44.968   6.407  11.764  0.00  0.00    +0.000 A 
ATOM      8  C   UNL     1      44.855   7.532  12.573  0.00  0.00    +0.000 A 
ATOM      9  C   UNL     1      45.993   8.283  12.881  0.00  0.00    +0.000 A 
BRANCH   7  10
ATOM     10  O   UNL     1      43.953   5.546  11.479  0.00  0.00    +0.000 OA
BRANCH  10  11
ATOM     11  C   UNL     1      43.530   4.642  12.495  0.00  0.00    +0.000 C 
ATOM     12  F   UNL     1      42.632   5.150  13.368  0.00  0.00    +0.000 F 
ATOM     13  F   UNL     1      42.987   3.554  11.909  0.00  0.00    +0.000 F 
ATOM     14  F   UNL     1      44.611   4.245  13.204  0.00  0.00    +0.000 F 
ENDBRANCH  10  11
ENDBRANCH   7  10
ENDBRANCH   1   4
BRANCH   1  15
ATOM     15  N   UNL     1      49.503   7.657  13.436  0.00  0.00    +0.000 N 
ATOM     16  H   UNL     1      50.429   7.614  13.028  0.00  0.00    +0.000 HD
BRANCH  15  20
ATOM     17  C   UNL     1      49.693   5.892  17.132  0.00  0.00    +0.000 A 
ATOM     18  C   UNL     1      50.749   6.595  16.580  0.00  0.00    +0.000 A 
ATOM     19  N   UNL     1      50.679   7.174  15.358  0.00  0.00    +0.000 NA
ATOM     20  C   UNL     1      49.513   7.045  14.682  0.00  0.00    +0.000 A 
ATOM     21  C   UNL     1      48.462   6.326  15.246  0.00  0.00    +0.000 A 
ATOM     22  N   UNL     1      48.518   5.740  16.473  0.00  0.00    +0.000 NA
BRANCH  17  24
ATOM     23  N   UNL     1      49.891   4.871  19.509  0.00  0.00    +0.000 NA
ATOM     24  C   UNL     1      49.809   5.305  18.430  0.00  0.00    +0.000 C 
ENDBRANCH  17  24
ENDBRANCH  15  20
ENDBRANCH   1  15
TORSDOF 6
ENDMDL
