MODEL 1
REMARK VINA RESULT:    -7.722      0.000      0.000
REMARK INTER + INTRA:         -11.826
REMARK INTER:                 -10.882
REMARK INTRA:                  -0.944
REMARK UNBOUND:                -0.944
REMARK  Name = 
REMARK  7 active torsions:
REMARK  status: ('A' for Active; 'I' for Inactive)
REMARK    1  A    between atoms: C_2  and  C_3
REMARK    2  A    between atoms: C_7  and  C_8
REMARK    3  A    between atoms: N_10  and  C_11
REMARK    4  A    between atoms: C_11  and  C_12
REMARK    5  A    between atoms: C_15  and  C_16
REMARK    6  A    between atoms: C_16  and  N_17
REMARK    7  A    between atoms: C_18  and  C_20
REMARK                            x       y       z     vdW  Elec       q    Type
REMARK                         _______ _______ _______ _____ _____    ______ ____
ROOT
ATOM      1  C   UNL     1      46.334   4.929  13.883  0.00  0.00    +0.000 A 
ATOM      2  C   UNL     1      46.736   4.393  15.115  0.00  0.00    +0.000 A 
ATOM      3  C   UNL     1      47.763   4.991  15.861  0.00  0.00    +0.000 A 
ATOM      4  C   UNL     1      48.399   6.151  15.399  0.00  0.00    +0.000 A 
ATOM      5  C   UNL     1      48.009   6.675  14.160  0.00  0.00    +0.000 A 
ATOM      6  C   UNL     1      46.981   6.080  13.417  0.00  0.00    +0.000 A 
ENDROOT
BRANCH   1   7
ATOM      7  C   UNL     1      45.241   4.269  13.077  0.00  0.00    +0.000 C 
BRANCH   7  10
ATOM      8  C   UNL     1      44.752   3.473  10.792  0.00  0.00    +0.000 C 
ATOM      9  O   UNL     1      43.566   3.265  11.026  0.00  0.00    +0.000 OA
ATOM     10  N   UNL     1      45.645   3.965  11.725  0.00  0.00    +0.000 N 
ATOM     11  H   UNL     1      46.615   4.071  11.441  0.00  0.00    +0.000 HD
BRANCH   8  16
ATOM     12  C   UNL     1      46.189   1.648   7.952  0.00  0.00    +0.000 A 
ATOM     13  C   UNL     1      46.398   2.618   6.978  0.00  0.00    +0.000 A 
ATOM     14  C   UNL     1      46.049   3.934   7.271  0.00  0.00    +0.000 A 
ATOM     15  C   UNL     1      45.507   4.233   8.518  0.00  0.00    +0.000 A 
ATOM     16  C   UNL     1      45.331   3.199   9.433  0.00  0.00    +0.000 A 
ATOM     17  N   UNL     1      45.658   1.902   9.177  0.00  0.00    +0.000 NA
BRANCH  12  19
ATOM     18  N   UNL     1      46.807  -0.840   7.525  0.00  0.00    +0.000 NA
ATOM     19  C   UNL     1      46.537   0.280   7.698  0.00  0.00    +0.000 C 
ENDBRANCH  12  19
ENDBRANCH   8  16
ENDBRANCH   7  10
ENDBRANCH   1   7
BRANCH   4  20
ATOM     20  C   UNL     1      49.489   6.822  16.202  0.00  0.00    +0.000 C 
BRANCH  20  21
ATOM     21  N   UNL     1      50.493   5.882  16.631  0.00  0.00    +0.000 N 
ATOM     22  C   UNL     1      50.672   5.586  17.962  0.00  0.00    +0.000 C 
ATOM     23  O   UNL     1      49.969   6.075  18.841  0.00  0.00    +0.000 OA
ATOM     24  H   UNL     1      51.244   5.685  15.980  0.00  0.00    +0.000 HD
BRANCH  22  25
ATOM     25  C   UNL     1      51.713   4.599  18.274  0.00  0.00    +0.000 A 
ATOM     26  C   UNL     1      52.862   4.990  18.948  0.00  0.00    +0.000 A 
ATOM     27  S   UNL     1      53.935   3.704  19.276  0.00  0.00    +0.000 S 
ATOM     28  C   UNL     1      52.926   2.588  18.480  0.00  0.00    +0.000 A 
ATOM     29  N   UNL     1      53.276   1.277  18.373  0.00  0.00    +0.000 NA
ATOM     30  C   UNL     1      52.432   0.552  17.717  0.00  0.00    +0.000 A 
ATOM     31  N   UNL     1      51.266   1.016  17.165  0.00  0.00    +0.000 N 
ATOM     32  C   UNL     1      50.858   2.323  17.275  0.00  0.00    +0.000 A 
ATOM     33  O   UNL     1      49.787   2.696  16.808  0.00  0.00    +0.000 OA
ATOM     34  C   UNL     1      51.778   3.185  17.990  0.00  0.00    +0.000 A 
ATOM     35  H   UNL     1      50.641   0.396  16.674  0.00  0.00    +0.000 HD
ENDBRANCH  22  25
ENDBRANCH  20  21
ENDBRANCH   4  20
TORSDOF 7
ENDMDL
MODEL 2
REMARK VINA RESULT:    -7.387      2.677      3.206
REMARK INTER + INTRA:         -11.354
REMARK INTER:                 -10.507
REMARK INTRA:                  -0.847
REMARK UNBOUND:                -0.944
REMARK  Name = 
REMARK  7 active torsions:
REMARK  status: ('A' for Active; 'I' for Inactive)
REMARK    1  A    between atoms: C_2  and  C_3
REMARK    2  A    between atoms: C_7  and  C_8
REMARK    3  A    between atoms: N_10  and  C_11
REMARK    4  A    between atoms: C_11  and  C_12
REMARK    5  A    between atoms: C_15  and  C_16
REMARK    6  A    between atoms: C_16  and  N_17
REMARK    7  A    between atoms: C_18  and  C_20
REMARK                            x       y       z     vdW  Elec       q    Type
REMARK                         _______ _______ _______ _____ _____    ______ ____
ROOT
ATOM      1  C   UNL     1      44.857   6.659  11.682  0.00  0.00    +0.000 A 
ATOM      2  C   UNL     1      45.717   6.018  12.585  0.00  0.00    +0.000 A 
ATOM      3  C   UNL     1      46.612   6.754  13.375  0.00  0.00    +0.000 A 
ATOM      4  C   UNL     1      46.653   8.152  13.295  0.00  0.00    +0.000 A 
ATOM      5  C   UNL     1      45.806   8.792  12.380  0.00  0.00    +0.000 A 
ATOM      6  C   UNL     1      44.910   8.056  11.593  0.00  0.00    +0.000 A 
ENDROOT
BRANCH   1   7
ATOM      7  C   UNL     1      43.910   5.859  10.820  0.00  0.00    +0.000 C 
BRANCH   7  10
ATOM      8  C   UNL     1      44.901   3.827   9.830  0.00  0.00    +0.000 C 
ATOM      9  O   UNL     1      44.646   3.125  10.803  0.00  0.00    +0.000 OA
ATOM     10  N   UNL     1      44.578   5.168   9.743  0.00  0.00    +0.000 N 
ATOM     11  H   UNL     1      44.862   5.669   8.907  0.00  0.00    +0.000 HD
BRANCH   8  16
ATOM     12  C   UNL     1      46.424   1.388   7.552  0.00  0.00    +0.000 A 
ATOM     13  C   UNL     1      46.879   2.144   6.477  0.00  0.00    +0.000 A 
ATOM     14  C   UNL     1      46.673   3.521   6.505  0.00  0.00    +0.000 A 
ATOM     15  C   UNL     1      46.025   4.091   7.597  0.00  0.00    +0.000 A 
ATOM     16  C   UNL     1      45.602   3.258   8.629  0.00  0.00    +0.000 A 
ATOM     17  N   UNL     1      45.785   1.909   8.631  0.00  0.00    +0.000 NA
BRANCH  12  19
ATOM     18  N   UNL     1      46.794  -1.185   7.556  0.00  0.00    +0.000 NA
ATOM     19  C   UNL     1      46.618  -0.033   7.571  0.00  0.00    +0.000 C 
ENDBRANCH  12  19
ENDBRANCH   8  16
ENDBRANCH   7  10
ENDBRANCH   1   7
BRANCH   4  20
ATOM     20  C   UNL     1      47.593   8.962  14.158  0.00  0.00    +0.000 C 
BRANCH  20  21
ATOM     21  N   UNL     1      47.891   8.294  15.398  0.00  0.00    +0.000 N 
ATOM     22  C   UNL     1      49.000   7.491  15.530  0.00  0.00    +0.000 C 
ATOM     23  O   UNL     1      49.806   7.335  14.617  0.00  0.00    +0.000 OA
ATOM     24  H   UNL     1      47.126   8.182  16.053  0.00  0.00    +0.000 HD
BRANCH  22  25
ATOM     25  C   UNL     1      49.207   6.880  16.848  0.00  0.00    +0.000 A 
ATOM     26  C   UNL     1      49.845   7.595  17.853  0.00  0.00    +0.000 A 
ATOM     27  S   UNL     1      49.946   6.751  19.334  0.00  0.00    +0.000 S 
ATOM     28  C   UNL     1      49.190   5.380  18.667  0.00  0.00    +0.000 A 
ATOM     29  N   UNL     1      48.987   4.259  19.411  0.00  0.00    +0.000 NA
ATOM     30  C   UNL     1      48.432   3.286  18.768  0.00  0.00    +0.000 A 
ATOM     31  N   UNL     1      48.056   3.334  17.451  0.00  0.00    +0.000 N 
ATOM     32  C   UNL     1      48.214   4.453  16.670  0.00  0.00    +0.000 A 
ATOM     33  O   UNL     1      47.826   4.477  15.507  0.00  0.00    +0.000 OA
ATOM     34  C   UNL     1      48.847   5.572  17.340  0.00  0.00    +0.000 A 
ATOM     35  H   UNL     1      47.615   2.542  17.007  0.00  0.00    +0.000 HD
ENDBRANCH  22  25
ENDBRANCH  20  21
ENDBRANCH   4  20
TORSDOF 7
ENDMDL
MODEL 3
REMARK VINA RESULT:    -7.254      4.064     10.482
REMARK INTER + INTRA:         -11.167
REMARK INTER:                 -10.301
REMARK INTRA:                  -0.867
REMARK UNBOUND:                -0.944
REMARK  Name = 
REMARK  7 active torsions:
REMARK  status: ('A' for Active; 'I' for Inactive)
REMARK    1  A    between atoms: C_2  and  C_3
REMARK    2  A    between atoms: C_7  and  C_8
REMARK    3  A    between atoms: N_10  and  C_11
REMARK    4  A    between atoms: C_11  and  C_12
REMARK    5  A    between atoms: C_15  and  C_16
REMARK    6  A    between atoms: C_16  and  N_17
REMARK    7  A    between atoms: C_18  and  C_20
REMARK                            x       y       z     vdW  Elec       q    Type
REMARK                         _______ _______ _______ _____ _____    ______ ____
ROOT
ATOM      1  C   UNL     1      51.447   3.280  17.768  0.00  0.00    +0.000 A 
ATOM      2  C   UNL     1      50.707   4.455  17.969  0.00  0.00    +0.000 A 
ATOM      3  C   UNL     1      49.334   4.499  17.685  0.00  0.00    +0.000 A 
ATOM      4  C   UNL     1      48.665   3.363  17.212  0.00  0.00    +0.000 A 
ATOM      5  C   UNL     1      49.408   2.195  16.995  0.00  0.00    +0.000 A 
ATOM      6  C   UNL     1      50.778   2.150  17.281  0.00  0.00    +0.000 A 
ENDROOT
BRANCH   1   7
ATOM      7  C   UNL     1      52.929   3.245  18.058  0.00  0.00    +0.000 C 
BRANCH   7  10
ATOM      8  C   UNL     1      54.255   1.172  18.245  0.00  0.00    +0.000 C 
ATOM      9  O   UNL     1      54.800   1.321  17.156  0.00  0.00    +0.000 OA
ATOM     10  N   UNL     1      53.334   2.057  18.771  0.00  0.00    +0.000 N 
ATOM     11  H   UNL     1      52.915   1.826  19.667  0.00  0.00    +0.000 HD
BRANCH   8  16
ATOM     12  C   UNL     1      54.123  -2.229  19.615  0.00  0.00    +0.000 A 
ATOM     13  C   UNL     1      55.063  -2.234  20.639  0.00  0.00    +0.000 A 
ATOM     14  C   UNL     1      55.775  -1.063  20.888  0.00  0.00    +0.000 A 
ATOM     15  C   UNL     1      55.523   0.064  20.112  0.00  0.00    +0.000 A 
ATOM     16  C   UNL     1      54.564  -0.019  19.107  0.00  0.00    +0.000 A 
ATOM     17  N   UNL     1      53.854  -1.150  18.835  0.00  0.00    +0.000 NA
BRANCH  12  19
ATOM     18  N   UNL     1      52.774  -4.388  19.092  0.00  0.00    +0.000 NA
ATOM     19  C   UNL     1      53.362  -3.410  19.324  0.00  0.00    +0.000 C 
ENDBRANCH  12  19
ENDBRANCH   8  16
ENDBRANCH   7  10
ENDBRANCH   1   7
BRANCH   4  20
ATOM     20  C   UNL     1      47.181   3.387  16.925  0.00  0.00    +0.000 C 
BRANCH  20  21
ATOM     21  N   UNL     1      46.841   4.392  15.951  0.00  0.00    +0.000 N 
ATOM     22  C   UNL     1      46.959   4.148  14.602  0.00  0.00    +0.000 C 
ATOM     23  O   UNL     1      47.320   3.061  14.163  0.00  0.00    +0.000 OA
ATOM     24  H   UNL     1      46.810   5.352  16.274  0.00  0.00    +0.000 HD
BRANCH  22  25
ATOM     25  C   UNL     1      46.564   5.243  13.707  0.00  0.00    +0.000 A 
ATOM     26  C   UNL     1      47.431   6.305  13.483  0.00  0.00    +0.000 A 
ATOM     27  S   UNL     1      46.832   7.455  12.373  0.00  0.00    +0.000 S 
ATOM     28  C   UNL     1      45.370   6.602  12.195  0.00  0.00    +0.000 A 
ATOM     29  N   UNL     1      44.381   7.067  11.385  0.00  0.00    +0.000 NA
ATOM     30  C   UNL     1      43.316   6.335  11.370  0.00  0.00    +0.000 A 
ATOM     31  N   UNL     1      43.154   5.177  12.085  0.00  0.00    +0.000 N 
ATOM     32  C   UNL     1      44.136   4.654  12.891  0.00  0.00    +0.000 A 
ATOM     33  O   UNL     1      43.975   3.592  13.482  0.00  0.00    +0.000 OA
ATOM     34  C   UNL     1      45.349   5.446  12.955  0.00  0.00    +0.000 A 
ATOM     35  H   UNL     1      42.301   4.643  12.021  0.00  0.00    +0.000 HD
ENDBRANCH  22  25
ENDBRANCH  20  21
ENDBRANCH   4  20
TORSDOF 7
ENDMDL
MODEL 4
REMARK VINA RESULT:    -6.906      4.322     10.094
REMARK INTER + INTRA:         -10.676
REMARK INTER:                  -9.595
REMARK INTRA:                  -1.081
REMARK UNBOUND:                -0.944
REMARK  Name = 
REMARK  7 active torsions:
REMARK  status: ('A' for Active; 'I' for Inactive)
REMARK    1  A    between atoms: C_2  and  C_3
REMARK    2  A    between atoms: C_7  and  C_8
REMARK    3  A    between atoms: N_10  and  C_11
REMARK    4  A    between atoms: C_11  and  C_12
REMARK    5  A    between atoms: C_15  and  C_16
REMARK    6  A    between atoms: C_16  and  N_17
REMARK    7  A    between atoms: C_18  and  C_20
REMARK                            x       y       z     vdW  Elec       q    Type
REMARK                         _______ _______ _______ _____ _____    ______ ____
ROOT
ATOM      1  C   UNL     1      51.342   2.770  17.755  0.00  0.00    +0.000 A 
ATOM      2  C   UNL     1      50.816   4.020  18.112  0.00  0.00    +0.000 A 
ATOM      3  C   UNL     1      49.487   4.355  17.813  0.00  0.00    +0.000 A 
ATOM      4  C   UNL     1      48.647   3.439  17.166  0.00  0.00    +0.000 A 
ATOM      5  C   UNL     1      49.179   2.197  16.793  0.00  0.00    +0.000 A 
ATOM      6  C   UNL     1      50.505   1.861  17.095  0.00  0.00    +0.000 A 
ENDROOT
BRANCH   1   7
ATOM      7  C   UNL     1      52.779   2.423  18.063  0.00  0.00    +0.000 C 
BRANCH   7  10
ATOM      8  C   UNL     1      54.279   0.482  18.330  0.00  0.00    +0.000 C 
ATOM      9  O   UNL     1      55.272   1.170  18.545  0.00  0.00    +0.000 OA
ATOM     10  N   UNL     1      53.021   1.000  18.089  0.00  0.00    +0.000 N 
ATOM     11  H   UNL     1      52.271   0.347  17.889  0.00  0.00    +0.000 HD
BRANCH   8  16
ATOM     12  C   UNL     1      53.749  -3.021  19.285  0.00  0.00    +0.000 A 
ATOM     13  C   UNL     1      54.481  -3.755  18.359  0.00  0.00    +0.000 A 
ATOM     14  C   UNL     1      55.181  -3.063  17.373  0.00  0.00    +0.000 A 
ATOM     15  C   UNL     1      55.126  -1.673  17.348  0.00  0.00    +0.000 A 
ATOM     16  C   UNL     1      54.367  -1.018  18.314  0.00  0.00    +0.000 A 
ATOM     17  N   UNL     1      53.669  -1.665  19.289  0.00  0.00    +0.000 NA
BRANCH  12  19
ATOM     18  N   UNL     1      52.397  -4.241  21.139  0.00  0.00    +0.000 NA
ATOM     19  C   UNL     1      53.016  -3.689  20.322  0.00  0.00    +0.000 C 
ENDBRANCH  12  19
ENDBRANCH   8  16
ENDBRANCH   7  10
ENDBRANCH   1   7
BRANCH   4  20
ATOM     20  C   UNL     1      47.206   3.774  16.859  0.00  0.00    +0.000 C 
BRANCH  20  21
ATOM     21  N   UNL     1      47.096   4.725  15.783  0.00  0.00    +0.000 N 
ATOM     22  C   UNL     1      47.084   4.318  14.468  0.00  0.00    +0.000 C 
ATOM     23  O   UNL     1      47.129   3.134  14.149  0.00  0.00    +0.000 OA
ATOM     24  H   UNL     1      47.332   5.687  15.995  0.00  0.00    +0.000 HD
BRANCH  22  25
ATOM     25  C   UNL     1      46.948   5.378  13.462  0.00  0.00    +0.000 A 
ATOM     26  C   UNL     1      45.933   5.312  12.516  0.00  0.00    +0.000 A 
ATOM     27  S   UNL     1      45.890   6.655  11.463  0.00  0.00    +0.000 S 
ATOM     28  C   UNL     1      47.260   7.346  12.201  0.00  0.00    +0.000 A 
ATOM     29  N   UNL     1      47.780   8.521  11.754  0.00  0.00    +0.000 NA
ATOM     30  C   UNL     1      48.837   8.911  12.386  0.00  0.00    +0.000 A 
ATOM     31  N   UNL     1      49.417   8.236  13.429  0.00  0.00    +0.000 N 
ATOM     32  C   UNL     1      48.910   7.062  13.932  0.00  0.00    +0.000 A 
ATOM     33  O   UNL     1      49.427   6.507  14.896  0.00  0.00    +0.000 OA
ATOM     34  C   UNL     1      47.730   6.572  13.248  0.00  0.00    +0.000 A 
ATOM     35  H   UNL     1      50.237   8.599  13.890  0.00  0.00    +0.000 HD
ENDBRANCH  22  25
ENDBRANCH  20  21
ENDBRANCH   4  20
TORSDOF 7
ENDMDL
MODEL 5
REMARK VINA RESULT:    -6.837      5.988      7.732
REMARK INTER + INTRA:         -10.579
REMARK INTER:                  -9.710
REMARK INTRA:                  -0.868
REMARK UNBOUND:                -0.944
REMARK  Name = 
REMARK  7 active torsions:
REMARK  status: ('A' for Active; 'I' for Inactive)
REMARK    1  A    between atoms: C_2  and  C_3
REMARK    2  A    between atoms: C_7  and  C_8
REMARK    3  A    between atoms: N_10  and  C_11
REMARK    4  A    between atoms: C_11  and  C_12
REMARK    5  A    between atoms: C_15  and  C_16
REMARK    6  A    between atoms: C_16  and  N_17
REMARK    7  A    between atoms: C_18  and  C_20
REMARK                            x       y       z     vdW  Elec       q    Type
REMARK                         _______ _______ _______ _____ _____    ______ ____
ROOT
ATOM      1  C   UNL     1      49.115   7.139  13.825  0.00  0.00    +0.000 A 
ATOM      2  C   UNL     1      50.227   7.719  14.452  0.00  0.00    +0.000 A 
ATOM      3  C   UNL     1      51.129   8.515  13.730  0.00  0.00    +0.000 A 
ATOM      4  C   UNL     1      50.927   8.764  12.366  0.00  0.00    +0.000 A 
ATOM      5  C   UNL     1      49.826   8.169  11.736  0.00  0.00    +0.000 A 
ATOM      6  C   UNL     1      48.924   7.378  12.458  0.00  0.00    +0.000 A 
ENDROOT
BRANCH   1   7
ATOM      7  C   UNL     1      48.159   6.268  14.605  0.00  0.00    +0.000 C 
BRANCH   7  10
ATOM      8  C   UNL     1      46.560   4.610  13.719  0.00  0.00    +0.000 C 
ATOM      9  O   UNL     1      47.143   3.654  14.218  0.00  0.00    +0.000 OA
ATOM     10  N   UNL     1      46.975   5.921  13.855  0.00  0.00    +0.000 N 
ATOM     11  H   UNL     1      46.441   6.639  13.375  0.00  0.00    +0.000 HD
BRANCH   8  16
ATOM     12  C   UNL     1      44.314   3.413  11.076  0.00  0.00    +0.000 A 
ATOM     13  C   UNL     1      43.091   4.012  11.354  0.00  0.00    +0.000 A 
ATOM     14  C   UNL     1      43.001   4.848  12.464  0.00  0.00    +0.000 A 
ATOM     15  C   UNL     1      44.130   5.056  13.251  0.00  0.00    +0.000 A 
ATOM     16  C   UNL     1      45.315   4.415  12.900  0.00  0.00    +0.000 A 
ATOM     17  N   UNL     1      45.434   3.589  11.824  0.00  0.00    +0.000 NA
BRANCH  12  19
ATOM     18  N   UNL     1      44.595   1.825   9.037  0.00  0.00    +0.000 NA
ATOM     19  C   UNL     1      44.456   2.547   9.941  0.00  0.00    +0.000 C 
ENDBRANCH  12  19
ENDBRANCH   8  16
ENDBRANCH   7  10
ENDBRANCH   1   7
BRANCH   4  20
ATOM     20  C   UNL     1      51.875   9.639  11.579  0.00  0.00    +0.000 C 
BRANCH  20  21
ATOM     21  N   UNL     1      52.084   9.137  10.245  0.00  0.00    +0.000 N 
ATOM     22  C   UNL     1      53.292   8.601   9.864  0.00  0.00    +0.000 C 
ATOM     23  O   UNL     1      54.233   8.490  10.643  0.00  0.00    +0.000 OA
ATOM     24  H   UNL     1      51.444   9.459   9.529  0.00  0.00    +0.000 HD
BRANCH  22  25
ATOM     25  C   UNL     1      53.377   8.105   8.485  0.00  0.00    +0.000 A 
ATOM     26  C   UNL     1      53.248   8.988   7.420  0.00  0.00    +0.000 A 
ATOM     27  S   UNL     1      53.431   8.249   5.893  0.00  0.00    +0.000 S 
ATOM     28  C   UNL     1      53.634   6.714   6.599  0.00  0.00    +0.000 A 
ATOM     29  N   UNL     1      53.814   5.605   5.830  0.00  0.00    +0.000 NA
ATOM     30  C   UNL     1      53.923   4.505   6.499  0.00  0.00    +0.000 A 
ATOM     31  N   UNL     1      53.876   4.413   7.865  0.00  0.00    +0.000 N 
ATOM     32  C   UNL     1      53.726   5.508   8.682  0.00  0.00    +0.000 A 
ATOM     33  O   UNL     1      53.733   5.396   9.903  0.00  0.00    +0.000 OA
ATOM     34  C   UNL     1      53.584   6.769   7.981  0.00  0.00    +0.000 A 
ATOM     35  H   UNL     1      53.979   3.524   8.330  0.00  0.00    +0.000 HD
ENDBRANCH  22  25
ENDBRANCH  20  21
ENDBRANCH   4  20
TORSDOF 7
ENDMDL
MODEL 6
REMARK VINA RESULT:    -6.826      3.856      9.326
REMARK INTER + INTRA:         -10.564
REMARK INTER:                  -9.502
REMARK INTRA:                  -1.062
REMARK UNBOUND:                -0.944
REMARK  Name = 
REMARK  7 active torsions:
REMARK  status: ('A' for Active; 'I' for Inactive)
REMARK    1  A    between atoms: C_2  and  C_3
REMARK    2  A    between atoms: C_7  and  C_8
REMARK    3  A    between atoms: N_10  and  C_11
REMARK    4  A    between atoms: C_11  and  C_12
REMARK    5  A    between atoms: C_15  and  C_16
REMARK    6  A    between atoms: C_16  and  N_17
REMARK    7  A    between atoms: C_18  and  C_20
REMARK                            x       y       z     vdW  Elec       q    Type
REMARK                         _______ _______ _______ _____ _____    ______ ____
ROOT
ATOM      1  C   UNL     1      49.639   4.670  17.606  0.00  0.00    +0.000 A 
ATOM      2  C   UNL     1      48.453   4.450  16.890  0.00  0.00    +0.000 A 
ATOM      3  C   UNL     1      47.999   5.380  15.944  0.00  0.00    +0.000 A 
ATOM      4  C   UNL     1      48.731   6.544  15.677  0.00  0.00    +0.000 A 
ATOM      5  C   UNL     1      49.906   6.773  16.405  0.00  0.00    +0.000 A 
ATOM      6  C   UNL     1      50.361   5.842  17.348  0.00  0.00    +0.000 A 
ENDROOT
BRANCH   1   7
ATOM      7  C   UNL     1      50.112   3.674  18.638  0.00  0.00    +0.000 C 
BRANCH   7  10
ATOM      8  C   UNL     1      51.694   2.059  17.650  0.00  0.00    +0.000 C 
ATOM      9  O   UNL     1      50.811   1.371  17.147  0.00  0.00    +0.000 OA
ATOM     10  N   UNL     1      51.452   3.200  18.389  0.00  0.00    +0.000 N 
ATOM     11  H   UNL     1      52.252   3.681  18.790  0.00  0.00    +0.000 HD
BRANCH   8  16
ATOM     12  C   UNL     1      54.700   0.100  16.881  0.00  0.00    +0.000 A 
ATOM     13  C   UNL     1      55.760   0.950  17.173  0.00  0.00    +0.000 A 
ATOM     14  C   UNL     1      55.471   2.229  17.643  0.00  0.00    +0.000 A 
ATOM     15  C   UNL     1      54.142   2.610  17.806  0.00  0.00    +0.000 A 
ATOM     16  C   UNL     1      53.142   1.694  17.488  0.00  0.00    +0.000 A 
ATOM     17  N   UNL     1      53.392   0.438  17.023  0.00  0.00    +0.000 NA
BRANCH  12  19
ATOM     18  N   UNL     1      55.148  -2.294  15.973  0.00  0.00    +0.000 NA
ATOM     19  C   UNL     1      54.948  -1.228  16.399  0.00  0.00    +0.000 C 
ENDBRANCH  12  19
ENDBRANCH   8  16
ENDBRANCH   7  10
ENDBRANCH   1   7
BRANCH   4  20
ATOM     20  C   UNL     1      48.269   7.544  14.642  0.00  0.00    +0.000 C 
BRANCH  20  21
ATOM     21  N   UNL     1      47.036   7.137  14.019  0.00  0.00    +0.000 N 
ATOM     22  C   UNL     1      47.025   6.534  12.782  0.00  0.00    +0.000 C 
ATOM     23  O   UNL     1      48.058   6.281  12.169  0.00  0.00    +0.000 OA
ATOM     24  H   UNL     1      46.186   7.570  14.360  0.00  0.00    +0.000 HD
BRANCH  22  25
ATOM     25  C   UNL     1      45.709   6.148  12.259  0.00  0.00    +0.000 A 
ATOM     26  C   UNL     1      44.877   7.107  11.696  0.00  0.00    +0.000 A 
ATOM     27  S   UNL     1      43.414   6.471  11.089  0.00  0.00    +0.000 S 
ATOM     28  C   UNL     1      43.818   4.900  11.607  0.00  0.00    +0.000 A 
ATOM     29  N   UNL     1      42.966   3.857  11.416  0.00  0.00    +0.000 NA
ATOM     30  C   UNL     1      43.388   2.730  11.886  0.00  0.00    +0.000 A 
ATOM     31  N   UNL     1      44.588   2.551  12.524  0.00  0.00    +0.000 N 
ATOM     32  C   UNL     1      45.493   3.568  12.713  0.00  0.00    +0.000 A 
ATOM     33  O   UNL     1      46.577   3.364  13.247  0.00  0.00    +0.000 OA
ATOM     34  C   UNL     1      45.060   4.860  12.215  0.00  0.00    +0.000 A 
ATOM     35  H   UNL     1      44.867   1.642  12.860  0.00  0.00    +0.000 HD
ENDBRANCH  22  25
ENDBRANCH  20  21
ENDBRANCH   4  20
TORSDOF 7
ENDMDL
MODEL 7
REMARK VINA RESULT:    -6.618      2.024      2.996
REMARK INTER + INTRA:         -10.271
REMARK INTER:                  -9.309
REMARK INTRA:                  -0.962
REMARK UNBOUND:                -0.944
REMARK  Name = 
REMARK  7 active torsions:
REMARK  status: ('A' for Active; 'I' for Inactive)
REMARK    1  A    between atoms: C_2  and  C_3
REMARK    2  A    between atoms: C_7  and  C_8
REMARK    3  A    between atoms: N_10  and  C_11
REMARK    4  A    between atoms: C_11  and  C_12
REMARK    5  A    between atoms: C_15  and  C_16
REMARK    6  A    between atoms: C_16  and  N_17
REMARK    7  A    between atoms: C_18  and  C_20
REMARK                            x       y       z     vdW  Elec       q    Type
REMARK                         _______ _______ _______ _____ _____    ______ ____
ROOT
ATOM      1  C   UNL     1      48.481   7.961  13.426  0.00  0.00    +0.000 A 
ATOM      2  C   UNL     1      49.752   7.400  13.613  0.00  0.00    +0.000 A 
ATOM      3  C   UNL     1      50.420   7.522  14.841  0.00  0.00    +0.000 A 
ATOM      4  C   UNL     1      49.821   8.191  15.916  0.00  0.00    +0.000 A 
ATOM      5  C   UNL     1      48.559   8.767  15.723  0.00  0.00    +0.000 A 
ATOM      6  C   UNL     1      47.891   8.642  14.498  0.00  0.00    +0.000 A 
ENDROOT
BRANCH   1   7
ATOM      7  C   UNL     1      47.776   7.843  12.095  0.00  0.00    +0.000 C 
BRANCH   7  10
ATOM      8  C   UNL     1      45.594   6.703  11.918  0.00  0.00    +0.000 C 
ATOM      9  O   UNL     1      44.951   7.748  11.932  0.00  0.00    +0.000 OA
ATOM     10  N   UNL     1      46.973   6.648  11.988  0.00  0.00    +0.000 N 
ATOM     11  H   UNL     1      47.409   5.731  12.003  0.00  0.00    +0.000 HD
BRANCH   8  16
ATOM     12  C   UNL     1      44.645   3.386  10.668  0.00  0.00    +0.000 A 
ATOM     13  C   UNL     1      43.686   2.932  11.566  0.00  0.00    +0.000 A 
ATOM     14  C   UNL     1      43.336   3.756  12.632  0.00  0.00    +0.000 A 
ATOM     15  C   UNL     1      43.952   4.997  12.764  0.00  0.00    +0.000 A 
ATOM     16  C   UNL     1      44.904   5.372  11.819  0.00  0.00    +0.000 A 
ATOM     17  N   UNL     1      45.271   4.589  10.767  0.00  0.00    +0.000 NA
BRANCH  12  19
ATOM     18  N   UNL     1      45.385   1.917   8.656  0.00  0.00    +0.000 NA
ATOM     19  C   UNL     1      45.035   2.575   9.551  0.00  0.00    +0.000 C 
ENDBRANCH  12  19
ENDBRANCH   8  16
ENDBRANCH   7  10
ENDBRANCH   1   7
BRANCH   4  20
ATOM     20  C   UNL     1      50.516   8.309  17.253  0.00  0.00    +0.000 C 
BRANCH  20  21
ATOM     21  N   UNL     1      51.324   7.152  17.540  0.00  0.00    +0.000 N 
ATOM     22  C   UNL     1      50.841   6.115  18.304  0.00  0.00    +0.000 C 
ATOM     23  O   UNL     1      49.695   6.106  18.745  0.00  0.00    +0.000 OA
ATOM     24  H   UNL     1      52.326   7.254  17.432  0.00  0.00    +0.000 HD
BRANCH  22  25
ATOM     25  C   UNL     1      51.751   4.982  18.512  0.00  0.00    +0.000 A 
ATOM     26  C   UNL     1      52.940   5.165  19.207  0.00  0.00    +0.000 A 
ATOM     27  S   UNL     1      53.844   3.730  19.403  0.00  0.00    +0.000 S 
ATOM     28  C   UNL     1      52.704   2.826  18.519  0.00  0.00    +0.000 A 
ATOM     29  N   UNL     1      52.890   1.498  18.288  0.00  0.00    +0.000 NA
ATOM     30  C   UNL     1      51.962   0.946  17.578  0.00  0.00    +0.000 A 
ATOM     31  N   UNL     1      50.863   1.600  17.084  0.00  0.00    +0.000 N 
ATOM     32  C   UNL     1      50.620   2.932  17.318  0.00  0.00    +0.000 A 
ATOM     33  O   UNL     1      49.604   3.476  16.900  0.00  0.00    +0.000 OA
ATOM     34  C   UNL     1      51.640   3.604  18.099  0.00  0.00    +0.000 A 
ATOM     35  H   UNL     1      50.166   1.110  16.545  0.00  0.00    +0.000 HD
ENDBRANCH  22  25
ENDBRANCH  20  21
ENDBRANCH   4  20
TORSDOF 7
ENDMDL
MODEL 8
REMARK VINA RESULT:    -6.566      3.304      9.843
REMARK INTER + INTRA:         -10.197
REMARK INTER:                  -9.187
REMARK INTRA:                  -1.010
REMARK UNBOUND:                -0.944
REMARK  Name = 
REMARK  7 active torsions:
REMARK  status: ('A' for Active; 'I' for Inactive)
REMARK    1  A    between atoms: C_2  and  C_3
REMARK    2  A    between atoms: C_7  and  C_8
REMARK    3  A    between atoms: N_10  and  C_11
REMARK    4  A    between atoms: C_11  and  C_12
REMARK    5  A    between atoms: C_15  and  C_16
REMARK    6  A    between atoms: C_16  and  N_17
REMARK    7  A    between atoms: C_18  and  C_20
REMARK                            x       y       z     vdW  Elec       q    Type
REMARK                         _______ _______ _______ _____ _____    ______ ____
ROOT
ATOM      1  C   UNL     1      50.555   8.102  13.966  0.00  0.00    +0.000 A 
ATOM      2  C   UNL     1      49.486   7.308  14.406  0.00  0.00    +0.000 A 
ATOM      3  C   UNL     1      48.259   7.309  13.726  0.00  0.00    +0.000 A 
ATOM      4  C   UNL     1      48.079   8.091  12.578  0.00  0.00    +0.000 A 
ATOM      5  C   UNL     1      49.141   8.898  12.149  0.00  0.00    +0.000 A 
ATOM      6  C   UNL     1      50.367   8.894  12.826  0.00  0.00    +0.000 A 
ENDROOT
BRANCH   1   7
ATOM      7  C   UNL     1      51.867   8.111  14.714  0.00  0.00    +0.000 C 
BRANCH   7  10
ATOM      8  C   UNL     1      52.247   7.005  16.886  0.00  0.00    +0.000 C 
ATOM      9  O   UNL     1      52.253   8.056  17.518  0.00  0.00    +0.000 OA
ATOM     10  N   UNL     1      52.063   6.929  15.519  0.00  0.00    +0.000 N 
ATOM     11  H   UNL     1      52.108   6.012  15.086  0.00  0.00    +0.000 HD
BRANCH   8  16
ATOM     12  C   UNL     1      51.863   3.458  17.743  0.00  0.00    +0.000 A 
ATOM     13  C   UNL     1      52.748   3.250  18.795  0.00  0.00    +0.000 A 
ATOM     14  C   UNL     1      53.507   4.329  19.241  0.00  0.00    +0.000 A 
ATOM     15  C   UNL     1      53.356   5.568  18.627  0.00  0.00    +0.000 A 
ATOM     16  C   UNL     1      52.447   5.686  17.579  0.00  0.00    +0.000 A 
ATOM     17  N   UNL     1      51.693   4.651  17.117  0.00  0.00    +0.000 NA
BRANCH  12  19
ATOM     18  N   UNL     1      50.379   1.526  16.836  0.00  0.00    +0.000 NA
ATOM     19  C   UNL     1      51.056   2.378  17.252  0.00  0.00    +0.000 C 
ENDBRANCH  12  19
ENDBRANCH   8  16
ENDBRANCH   7  10
ENDBRANCH   1   7
BRANCH   4  20
ATOM     20  C   UNL     1      46.772   8.084  11.820  0.00  0.00    +0.000 C 
BRANCH  20  21
ATOM     21  N   UNL     1      46.281   6.747  11.611  0.00  0.00    +0.000 N 
ATOM     22  C   UNL     1      44.941   6.498  11.421  0.00  0.00    +0.000 C 
ATOM     23  O   UNL     1      44.108   7.398  11.382  0.00  0.00    +0.000 OA
ATOM     24  H   UNL     1      46.883   5.987  11.907  0.00  0.00    +0.000 HD
BRANCH  22  25
ATOM     25  C   UNL     1      44.566   5.096  11.200  0.00  0.00    +0.000 A 
ATOM     26  C   UNL     1      43.802   4.424  12.145  0.00  0.00    +0.000 A 
ATOM     27  S   UNL     1      43.411   2.824  11.697  0.00  0.00    +0.000 S 
ATOM     28  C   UNL     1      44.295   2.956  10.249  0.00  0.00    +0.000 A 
ATOM     29  N   UNL     1      44.394   1.906   9.389  0.00  0.00    +0.000 NA
ATOM     30  C   UNL     1      45.121   2.138   8.346  0.00  0.00    +0.000 A 
ATOM     31  N   UNL     1      45.752   3.326   8.082  0.00  0.00    +0.000 N 
ATOM     32  C   UNL     1      45.657   4.421   8.906  0.00  0.00    +0.000 A 
ATOM     33  O   UNL     1      46.197   5.483   8.618  0.00  0.00    +0.000 OA
ATOM     34  C   UNL     1      44.862   4.209  10.100  0.00  0.00    +0.000 A 
ATOM     35  H   UNL     1      46.298   3.448   7.243  0.00  0.00    +0.000 HD
ENDBRANCH  22  25
ENDBRANCH  20  21
ENDBRANCH   4  20
TORSDOF 7
ENDMDL
MODEL 9
REMARK VINA RESULT:    -6.522      6.218      8.193
REMARK INTER + INTRA:         -10.135
REMARK INTER:                  -9.122
REMARK INTRA:                  -1.013
REMARK UNBOUND:                -0.944
REMARK  Name = 
REMARK  7 active torsions:
REMARK  status: ('A' for Active; 'I' for Inactive)
REMARK    1  A    between atoms: C_2  and  C_3
REMARK    2  A    between atoms: C_7  and  C_8
REMARK    3  A    between atoms: N_10  and  C_11
REMARK    4  A    between atoms: C_11  and  C_12
REMARK    5  A    between atoms: C_15  and  C_16
REMARK    6  A    between atoms: C_16  and  N_17
REMARK    7  A    between atoms: C_18  and  C_20
REMARK                            x       y       z     vdW  Elec       q    Type
REMARK                         _______ _______ _______ _____ _____    ______ ____
ROOT
ATOM      1  C   UNL     1      49.100   7.047  13.915  0.00  0.00    +0.000 A 
ATOM      2  C   UNL     1      48.979   7.099  12.519  0.00  0.00    +0.000 A 
ATOM      3  C   UNL     1      49.889   7.833  11.743  0.00  0.00    +0.000 A 
ATOM      4  C   UNL     1      50.954   8.515  12.346  0.00  0.00    +0.000 A 
ATOM      5  C   UNL     1      51.064   8.477  13.742  0.00  0.00    +0.000 A 
ATOM      6  C   UNL     1      50.157   7.742  14.516  0.00  0.00    +0.000 A 
ENDROOT
BRANCH   1   7
ATOM      7  C   UNL     1      48.105   6.271  14.746  0.00  0.00    +0.000 C 
BRANCH   7  10
ATOM      8  C   UNL     1      46.641   4.599  13.673  0.00  0.00    +0.000 C 
ATOM      9  O   UNL     1      47.360   3.651  13.972  0.00  0.00    +0.000 OA
ATOM     10  N   UNL     1      46.918   5.910  14.009  0.00  0.00    +0.000 N 
ATOM     11  H   UNL     1      46.275   6.627  13.685  0.00  0.00    +0.000 HD
BRANCH   8  16
ATOM     12  C   UNL     1      44.325   3.402  11.091  0.00  0.00    +0.000 A 
ATOM     13  C   UNL     1      43.100   3.966  11.426  0.00  0.00    +0.000 A 
ATOM     14  C   UNL     1      43.034   4.777  12.556  0.00  0.00    +0.000 A 
ATOM     15  C   UNL     1      44.186   4.996  13.305  0.00  0.00    +0.000 A 
ATOM     16  C   UNL     1      45.371   4.391  12.897  0.00  0.00    +0.000 A 
ATOM     17  N   UNL     1      45.469   3.589  11.800  0.00  0.00    +0.000 NA
BRANCH  12  19
ATOM     18  N   UNL     1      44.545   1.853   9.015  0.00  0.00    +0.000 NA
ATOM     19  C   UNL     1      44.444   2.563   9.933  0.00  0.00    +0.000 C 
ENDBRANCH  12  19
ENDBRANCH   8  16
ENDBRANCH   7  10
ENDBRANCH   1   7
BRANCH   4  20
ATOM     20  C   UNL     1      51.957   9.289  11.523  0.00  0.00    +0.000 C 
BRANCH  20  21
ATOM     21  N   UNL     1      52.254   8.627  10.279  0.00  0.00    +0.000 N 
ATOM     22  C   UNL     1      53.274   7.709  10.183  0.00  0.00    +0.000 C 
ATOM     23  O   UNL     1      53.953   7.383  11.152  0.00  0.00    +0.000 OA
ATOM     24  H   UNL     1      51.908   9.064   9.433  0.00  0.00    +0.000 HD
BRANCH  22  25
ATOM     25  C   UNL     1      53.466   7.086   8.868  0.00  0.00    +0.000 A 
ATOM     26  C   UNL     1      53.594   5.707   8.764  0.00  0.00    +0.000 A 
ATOM     27  S   UNL     1      53.752   5.154   7.156  0.00  0.00    +0.000 S 
ATOM     28  C   UNL     1      53.711   6.744   6.548  0.00  0.00    +0.000 A 
ATOM     29  N   UNL     1      53.827   6.988   5.214  0.00  0.00    +0.000 NA
ATOM     30  C   UNL     1      53.810   8.240   4.898  0.00  0.00    +0.000 A 
ATOM     31  N   UNL     1      53.681   9.270   5.794  0.00  0.00    +0.000 N 
ATOM     32  C   UNL     1      53.530   9.070   7.145  0.00  0.00    +0.000 A 
ATOM     33  O   UNL     1      53.371  10.012   7.913  0.00  0.00    +0.000 OA
ATOM     34  C   UNL     1      53.557   7.679   7.555  0.00  0.00    +0.000 A 
ATOM     35  H   UNL     1      53.663  10.229   5.483  0.00  0.00    +0.000 HD
ENDBRANCH  22  25
ENDBRANCH  20  21
ENDBRANCH   4  20
TORSDOF 7
ENDMDL
