MODEL 1
REMARK VINA RESULT:    -7.655      0.000      0.000
REMARK INTER + INTRA:         -11.269
REMARK INTER:                 -10.340
REMARK INTRA:                  -0.929
REMARK UNBOUND:                -0.929
REMARK  Name = 
REMARK  6 active torsions:
REMARK  status: ('A' for Active; 'I' for Inactive)
REMARK    1  A    between atoms: C_2  and  C_25
REMARK    2  A    between atoms: N_3  and  C_4
REMARK    3  A    between atoms: C_4  and  C_5
REMARK    4  A    between atoms: C_8  and  C_9
REMARK    5  A    between atoms: C_9  and  N_10
REMARK    6  A    between atoms: C_11  and  C_13
REMARK                            x       y       z     vdW  Elec       q    Type
REMARK                         _______ _______ _______ _____ _____    ______ ____
ROOT
ATOM      1  C   UNL     1      46.318   4.901  13.739  0.00  0.00    +0.000 A 
ATOM      2  C   UNL     1      46.932   6.090  13.323  0.00  0.00    +0.000 A 
ATOM      3  C   UNL     1      47.894   6.715  14.124  0.00  0.00    +0.000 A 
ATOM      4  C   UNL     1      48.276   6.152  15.349  0.00  0.00    +0.000 A 
ATOM      5  C   UNL     1      47.658   4.966  15.766  0.00  0.00    +0.000 A 
ATOM      6  C   UNL     1      46.698   4.342  14.965  0.00  0.00    +0.000 A 
ENDROOT
BRANCH   1   7
ATOM      7  C   UNL     1      45.255   4.246  12.898  0.00  0.00    +0.000 C 
BRANCH   7  10
ATOM      8  O   UNL     1      43.673   3.097  10.904  0.00  0.00    +0.000 OA
ATOM      9  C   UNL     1      44.846   3.355  10.654  0.00  0.00    +0.000 C 
ATOM     10  N   UNL     1      45.711   3.913  11.573  0.00  0.00    +0.000 N 
ATOM     11  H   UNL     1      46.670   4.084  11.286  0.00  0.00    +0.000 HD
BRANCH   9  12
ATOM     12  C   UNL     1      45.424   3.075   9.301  0.00  0.00    +0.000 A 
ATOM     13  C   UNL     1      45.623   4.132   8.413  0.00  0.00    +0.000 A 
ATOM     14  C   UNL     1      46.178   3.856   7.163  0.00  0.00    +0.000 A 
ATOM     15  C   UNL     1      46.512   2.546   6.846  0.00  0.00    +0.000 A 
ATOM     16 CL   UNL     1      47.202   2.168   5.321  0.00  0.00    +0.000 Cl
ATOM     17  C   UNL     1      46.277   1.554   7.791  0.00  0.00    +0.000 A 
ATOM     18  N   UNL     1      45.739   1.783   9.016  0.00  0.00    +0.000 NA
ENDBRANCH   9  12
ENDBRANCH   7  10
ENDBRANCH   1   7
BRANCH   4  19
ATOM     19  C   UNL     1      49.301   6.824  16.228  0.00  0.00    +0.000 C 
BRANCH  19  20
ATOM     20  N   UNL     1      50.322   5.898  16.648  0.00  0.00    +0.000 N 
ATOM     21  C   UNL     1      50.477   5.565  17.970  0.00  0.00    +0.000 C 
ATOM     22  O   UNL     1      49.724   5.995  18.841  0.00  0.00    +0.000 OA
ATOM     23  H   UNL     1      51.079   5.719  15.995  0.00  0.00    +0.000 HD
BRANCH  21  24
ATOM     24  C   UNL     1      51.553   4.617  18.289  0.00  0.00    +0.000 A 
ATOM     25  C   UNL     1      52.673   5.059  18.982  0.00  0.00    +0.000 A 
ATOM     26  S   UNL     1      53.799   3.824  19.323  0.00  0.00    +0.000 S 
ATOM     27  C   UNL     1      52.856   2.664  18.511  0.00  0.00    +0.000 A 
ATOM     28  N   UNL     1      53.268   1.372  18.411  0.00  0.00    +0.000 NA
ATOM     29  C   UNL     1      52.472   0.608  17.741  0.00  0.00    +0.000 A 
ATOM     30  N   UNL     1      51.299   1.018  17.164  0.00  0.00    +0.000 N 
ATOM     31  C   UNL     1      50.830   2.307  17.258  0.00  0.00    +0.000 A 
ATOM     32  O   UNL     1      49.759   2.634  16.758  0.00  0.00    +0.000 OA
ATOM     33  C   UNL     1      51.691   3.209  17.998  0.00  0.00    +0.000 A 
ATOM     34  H   UNL     1      50.718   0.369  16.654  0.00  0.00    +0.000 HD
ENDBRANCH  21  24
ENDBRANCH  19  20
ENDBRANCH   4  19
TORSDOF 6
ENDMDL
MODEL 2
REMARK VINA RESULT:    -7.155      2.732      3.346
REMARK INTER + INTRA:         -10.594
REMARK INTER:                  -9.595
REMARK INTRA:                  -1.000
REMARK UNBOUND:                -0.929
REMARK  Name = 
REMARK  6 active torsions:
REMARK  status: ('A' for Active; 'I' for Inactive)
REMARK    1  A    between atoms: C_2  and  C_25
REMARK    2  A    between atoms: N_3  and  C_4
REMARK    3  A    between atoms: C_4  and  C_5
REMARK    4  A    between atoms: C_8  and  C_9
REMARK    5  A    between atoms: C_9  and  N_10
REMARK    6  A    between atoms: C_11  and  C_13
REMARK                            x       y       z     vdW  Elec       q    Type
REMARK                         _______ _______ _______ _____ _____    ______ ____
ROOT
ATOM      1  C   UNL     1      45.184   6.666  11.924  0.00  0.00    +0.000 A 
ATOM      2  C   UNL     1      46.257   6.049  12.583  0.00  0.00    +0.000 A 
ATOM      3  C   UNL     1      47.121   6.796  13.392  0.00  0.00    +0.000 A 
ATOM      4  C   UNL     1      46.918   8.170  13.574  0.00  0.00    +0.000 A 
ATOM      5  C   UNL     1      45.849   8.786  12.911  0.00  0.00    +0.000 A 
ATOM      6  C   UNL     1      44.985   8.040  12.104  0.00  0.00    +0.000 A 
ENDROOT
BRANCH   1   7
ATOM      7  C   UNL     1      44.274   5.875  11.023  0.00  0.00    +0.000 C 
BRANCH   7  10
ATOM      8  O   UNL     1      44.481   3.131  10.547  0.00  0.00    +0.000 OA
ATOM      9  C   UNL     1      45.003   3.910   9.756  0.00  0.00    +0.000 C 
ATOM     10  N   UNL     1      44.965   5.281   9.907  0.00  0.00    +0.000 N 
ATOM     11  H   UNL     1      45.434   5.853   9.211  0.00  0.00    +0.000 HD
BRANCH   9  12
ATOM     12  C   UNL     1      45.728   3.407   8.545  0.00  0.00    +0.000 A 
ATOM     13  C   UNL     1      45.999   2.043   8.431  0.00  0.00    +0.000 A 
ATOM     14  C   UNL     1      46.659   1.589   7.290  0.00  0.00    +0.000 A 
ATOM     15  C   UNL     1      47.023   2.504   6.310  0.00  0.00    +0.000 A 
ATOM     16 CL   UNL     1      47.831   1.982   4.888  0.00  0.00    +0.000 Cl
ATOM     17  C   UNL     1      46.714   3.844   6.506  0.00  0.00    +0.000 A 
ATOM     18  N   UNL     1      46.073   4.325   7.603  0.00  0.00    +0.000 NA
ENDBRANCH   9  12
ENDBRANCH   7  10
ENDBRANCH   1   7
BRANCH   4  19
ATOM     19  C   UNL     1      47.852   8.987  14.430  0.00  0.00    +0.000 C 
BRANCH  19  20
ATOM     20  N   UNL     1      48.109   8.341  15.693  0.00  0.00    +0.000 N 
ATOM     21  C   UNL     1      49.390   8.130  16.134  0.00  0.00    +0.000 C 
ATOM     22  O   UNL     1      50.367   8.527  15.505  0.00  0.00    +0.000 OA
ATOM     23  H   UNL     1      47.345   7.813  16.103  0.00  0.00    +0.000 HD
BRANCH  21  24
ATOM     24  C   UNL     1      49.538   7.456  17.431  0.00  0.00    +0.000 A 
ATOM     25  C   UNL     1      50.106   8.140  18.499  0.00  0.00    +0.000 A 
ATOM     26  S   UNL     1      50.151   7.236  19.945  0.00  0.00    +0.000 S 
ATOM     27  C   UNL     1      49.460   5.880  19.184  0.00  0.00    +0.000 A 
ATOM     28  N   UNL     1      49.240   4.729  19.872  0.00  0.00    +0.000 NA
ATOM     29  C   UNL     1      48.742   3.770  19.164  0.00  0.00    +0.000 A 
ATOM     30  N   UNL     1      48.442   3.861  17.830  0.00  0.00    +0.000 N 
ATOM     31  C   UNL     1      48.624   5.011  17.099  0.00  0.00    +0.000 A 
ATOM     32  O   UNL     1      48.314   5.069  15.914  0.00  0.00    +0.000 OA
ATOM     33  C   UNL     1      49.187   6.118  17.848  0.00  0.00    +0.000 A 
ATOM     34  H   UNL     1      48.050   3.075  17.333  0.00  0.00    +0.000 HD
ENDBRANCH  21  24
ENDBRANCH  19  20
ENDBRANCH   4  19
TORSDOF 6
ENDMDL
MODEL 3
REMARK VINA RESULT:    -7.003      3.889      9.548
REMARK INTER + INTRA:         -10.388
REMARK INTER:                  -9.496
REMARK INTRA:                  -0.892
REMARK UNBOUND:                -0.929
REMARK  Name = 
REMARK  6 active torsions:
REMARK  status: ('A' for Active; 'I' for Inactive)
REMARK    1  A    between atoms: C_2  and  C_25
REMARK    2  A    between atoms: N_3  and  C_4
REMARK    3  A    between atoms: C_4  and  C_5
REMARK    4  A    between atoms: C_8  and  C_9
REMARK    5  A    between atoms: C_9  and  N_10
REMARK    6  A    between atoms: C_11  and  C_13
REMARK                            x       y       z     vdW  Elec       q    Type
REMARK                         _______ _______ _______ _____ _____    ______ ____
ROOT
ATOM      1  C   UNL     1      49.903   7.380  15.625  0.00  0.00    +0.000 A 
ATOM      2  C   UNL     1      50.350   8.209  14.588  0.00  0.00    +0.000 A 
ATOM      3  C   UNL     1      49.625   8.312  13.394  0.00  0.00    +0.000 A 
ATOM      4  C   UNL     1      48.428   7.603  13.224  0.00  0.00    +0.000 A 
ATOM      5  C   UNL     1      47.986   6.771  14.260  0.00  0.00    +0.000 A 
ATOM      6  C   UNL     1      48.709   6.669  15.452  0.00  0.00    +0.000 A 
ENDROOT
BRANCH   1   7
ATOM      7  C   UNL     1      50.699   7.237  16.895  0.00  0.00    +0.000 C 
BRANCH   7  10
ATOM      8  O   UNL     1      49.707   5.071  18.353  0.00  0.00    +0.000 OA
ATOM      9  C   UNL     1      50.768   4.943  17.751  0.00  0.00    +0.000 C 
ATOM     10  N   UNL     1      51.345   5.955  17.011  0.00  0.00    +0.000 N 
ATOM     11  H   UNL     1      52.232   5.767  16.553  0.00  0.00    +0.000 HD
BRANCH   9  12
ATOM     12  C   UNL     1      51.517   3.646  17.780  0.00  0.00    +0.000 A 
ATOM     13  C   UNL     1      50.858   2.471  17.420  0.00  0.00    +0.000 A 
ATOM     14  C   UNL     1      51.575   1.274  17.435  0.00  0.00    +0.000 A 
ATOM     15  C   UNL     1      52.913   1.293  17.807  0.00  0.00    +0.000 A 
ATOM     16 CL   UNL     1      53.829  -0.158  17.832  0.00  0.00    +0.000 Cl
ATOM     17  C   UNL     1      53.489   2.509  18.152  0.00  0.00    +0.000 A 
ATOM     18  N   UNL     1      52.825   3.693  18.149  0.00  0.00    +0.000 NA
ENDBRANCH   9  12
ENDBRANCH   7  10
ENDBRANCH   1   7
BRANCH   4  19
ATOM     19  C   UNL     1      47.647   7.694  11.937  0.00  0.00    +0.000 C 
BRANCH  19  20
ATOM     20  N   UNL     1      46.943   6.468  11.662  0.00  0.00    +0.000 N 
ATOM     21  C   UNL     1      45.585   6.375  11.832  0.00  0.00    +0.000 C 
ATOM     22  O   UNL     1      44.906   7.342  12.171  0.00  0.00    +0.000 OA
ATOM     23  H   UNL     1      47.499   5.619  11.608  0.00  0.00    +0.000 HD
BRANCH  21  24
ATOM     24  C   UNL     1      44.969   5.077  11.529  0.00  0.00    +0.000 A 
ATOM     25  C   UNL     1      44.260   4.406  12.517  0.00  0.00    +0.000 A 
ATOM     26  S   UNL     1      43.561   2.944  11.986  0.00  0.00    +0.000 S 
ATOM     27  C   UNL     1      44.223   3.128  10.430  0.00  0.00    +0.000 A 
ATOM     28  N   UNL     1      44.018   2.191   9.467  0.00  0.00    +0.000 NA
ATOM     29  C   UNL     1      44.605   2.441   8.344  0.00  0.00    +0.000 A 
ATOM     30  N   UNL     1      45.376   3.547   8.097  0.00  0.00    +0.000 N 
ATOM     31  C   UNL     1      45.591   4.532   9.031  0.00  0.00    +0.000 A 
ATOM     32  O   UNL     1      46.259   5.526   8.767  0.00  0.00    +0.000 OA
ATOM     33  C   UNL     1      44.957   4.296  10.313  0.00  0.00    +0.000 A 
ATOM     34  H   UNL     1      45.806   3.687   7.195  0.00  0.00    +0.000 HD
ENDBRANCH  21  24
ENDBRANCH  19  20
ENDBRANCH   4  19
TORSDOF 6
ENDMDL
MODEL 4
REMARK VINA RESULT:    -6.890      4.139      9.434
REMARK INTER + INTRA:         -10.236
REMARK INTER:                  -9.344
REMARK INTRA:                  -0.892
REMARK UNBOUND:                -0.929
REMARK  Name = 
REMARK  6 active torsions:
REMARK  status: ('A' for Active; 'I' for Inactive)
REMARK    1  A    between atoms: C_2  and  C_25
REMARK    2  A    between atoms: N_3  and  C_4
REMARK    3  A    between atoms: C_4  and  C_5
REMARK    4  A    between atoms: C_8  and  C_9
REMARK    5  A    between atoms: C_9  and  N_10
REMARK    6  A    between atoms: C_11  and  C_13
REMARK                            x       y       z     vdW  Elec       q    Type
REMARK                         _______ _______ _______ _____ _____    ______ ____
ROOT
ATOM      1  C   UNL     1      49.773   7.093  16.001  0.00  0.00    +0.000 A 
ATOM      2  C   UNL     1      48.681   6.395  15.467  0.00  0.00    +0.000 A 
ATOM      3  C   UNL     1      48.212   6.681  14.179  0.00  0.00    +0.000 A 
ATOM      4  C   UNL     1      48.839   7.657  13.393  0.00  0.00    +0.000 A 
ATOM      5  C   UNL     1      49.926   8.357  13.930  0.00  0.00    +0.000 A 
ATOM      6  C   UNL     1      50.396   8.070  15.215  0.00  0.00    +0.000 A 
ENDROOT
BRANCH   1   7
ATOM      7  C   UNL     1      50.257   6.816  17.399  0.00  0.00    +0.000 C 
BRANCH   7  10
ATOM      8  O   UNL     1      49.359   4.338  18.322  0.00  0.00    +0.000 OA
ATOM      9  C   UNL     1      50.524   4.445  17.952  0.00  0.00    +0.000 C 
ATOM     10  N   UNL     1      51.065   5.627  17.489  0.00  0.00    +0.000 N 
ATOM     11  H   UNL     1      52.043   5.630  17.213  0.00  0.00    +0.000 HD
BRANCH   9  12
ATOM     12  C   UNL     1      51.450   3.268  17.978  0.00  0.00    +0.000 A 
ATOM     13  C   UNL     1      51.071   2.088  17.338  0.00  0.00    +0.000 A 
ATOM     14  C   UNL     1      51.953   1.008  17.357  0.00  0.00    +0.000 A 
ATOM     15  C   UNL     1      53.173   1.142  18.008  0.00  0.00    +0.000 A 
ATOM     16 CL   UNL     1      54.286  -0.163  18.048  0.00  0.00    +0.000 Cl
ATOM     17  C   UNL     1      53.468   2.353  18.621  0.00  0.00    +0.000 A 
ATOM     18  N   UNL     1      52.637   3.427  18.625  0.00  0.00    +0.000 NA
ENDBRANCH   9  12
ENDBRANCH   7  10
ENDBRANCH   1   7
BRANCH   4  19
ATOM     19  C   UNL     1      48.333   7.984  12.011  0.00  0.00    +0.000 C 
BRANCH  19  20
ATOM     20  N   UNL     1      47.609   6.877  11.440  0.00  0.00    +0.000 N 
ATOM     21  C   UNL     1      46.240   6.892  11.353  0.00  0.00    +0.000 C 
ATOM     22  O   UNL     1      45.578   7.866  11.706  0.00  0.00    +0.000 OA
ATOM     23  H   UNL     1      48.105   5.994  11.361  0.00  0.00    +0.000 HD
BRANCH  21  24
ATOM     24  C   UNL     1      45.603   5.709  10.761  0.00  0.00    +0.000 A 
ATOM     25  C   UNL     1      45.729   5.471   9.398  0.00  0.00    +0.000 A 
ATOM     26  S   UNL     1      44.981   4.028   8.882  0.00  0.00    +0.000 S 
ATOM     27  C   UNL     1      44.417   3.694  10.452  0.00  0.00    +0.000 A 
ATOM     28  N   UNL     1      43.670   2.587  10.706  0.00  0.00    +0.000 NA
ATOM     29  C   UNL     1      43.281   2.475  11.932  0.00  0.00    +0.000 A 
ATOM     30  N   UNL     1      43.576   3.368  12.929  0.00  0.00    +0.000 N 
ATOM     31  C   UNL     1      44.347   4.488  12.725  0.00  0.00    +0.000 A 
ATOM     32  O   UNL     1      44.620   5.251  13.645  0.00  0.00    +0.000 OA
ATOM     33  C   UNL     1      44.805   4.664  11.360  0.00  0.00    +0.000 A 
ATOM     34  H   UNL     1      43.245   3.222  13.871  0.00  0.00    +0.000 HD
ENDBRANCH  21  24
ENDBRANCH  19  20
ENDBRANCH   4  19
TORSDOF 6
ENDMDL
MODEL 5
REMARK VINA RESULT:    -6.778      6.217      9.010
REMARK INTER + INTRA:         -10.084
REMARK INTER:                  -9.117
REMARK INTRA:                  -0.967
REMARK UNBOUND:                -0.929
REMARK  Name = 
REMARK  6 active torsions:
REMARK  status: ('A' for Active; 'I' for Inactive)
REMARK    1  A    between atoms: C_2  and  C_25
REMARK    2  A    between atoms: N_3  and  C_4
REMARK    3  A    between atoms: C_4  and  C_5
REMARK    4  A    between atoms: C_8  and  C_9
REMARK    5  A    between atoms: C_9  and  N_10
REMARK    6  A    between atoms: C_11  and  C_13
REMARK                            x       y       z     vdW  Elec       q    Type
REMARK                         _______ _______ _______ _____ _____    ______ ____
ROOT
ATOM      1  C   UNL     1      50.127   9.090  11.458  0.00  0.00    +0.000 A 
ATOM      2  C   UNL     1      49.741   7.763  11.689  0.00  0.00    +0.000 A 
ATOM      3  C   UNL     1      48.452   7.464  12.145  0.00  0.00    +0.000 A 
ATOM      4  C   UNL     1      47.517   8.485  12.361  0.00  0.00    +0.000 A 
ATOM      5  C   UNL     1      47.906   9.811  12.135  0.00  0.00    +0.000 A 
ATOM      6  C   UNL     1      49.194  10.110  11.678  0.00  0.00    +0.000 A 
ENDROOT
BRANCH   1   7
ATOM      7  C   UNL     1      51.524   9.419  11.004  0.00  0.00    +0.000 C 
BRANCH   7  10
ATOM      8  O   UNL     1      53.894   8.039  11.534  0.00  0.00    +0.000 OA
ATOM      9  C   UNL     1      53.269   7.773  10.513  0.00  0.00    +0.000 C 
ATOM     10  N   UNL     1      52.094   8.404  10.157  0.00  0.00    +0.000 N 
ATOM     11  H   UNL     1      51.647   8.129   9.287  0.00  0.00    +0.000 HD
BRANCH   9  12
ATOM     12  C   UNL     1      53.754   6.716   9.568  0.00  0.00    +0.000 A 
ATOM     13  C   UNL     1      53.040   6.470   8.395  0.00  0.00    +0.000 A 
ATOM     14  C   UNL     1      53.515   5.495   7.518  0.00  0.00    +0.000 A 
ATOM     15  C   UNL     1      54.677   4.804   7.841  0.00  0.00    +0.000 A 
ATOM     16 CL   UNL     1      55.296   3.601   6.785  0.00  0.00    +0.000 Cl
ATOM     17  C   UNL     1      55.323   5.112   9.032  0.00  0.00    +0.000 A 
ATOM     18  N   UNL     1      54.892   6.053   9.910  0.00  0.00    +0.000 NA
ENDBRANCH   9  12
ENDBRANCH   7  10
ENDBRANCH   1   7
BRANCH   4  19
ATOM     19  C   UNL     1      46.131   8.177  12.867  0.00  0.00    +0.000 C 
BRANCH  19  20
ATOM     20  N   UNL     1      45.746   6.824  12.555  0.00  0.00    +0.000 N 
ATOM     21  C   UNL     1      44.766   6.559  11.632  0.00  0.00    +0.000 C 
ATOM     22  O   UNL     1      44.215   7.454  10.996  0.00  0.00    +0.000 OA
ATOM     23  H   UNL     1      46.016   6.103  13.218  0.00  0.00    +0.000 HD
BRANCH  21  24
ATOM     24  C   UNL     1      44.447   5.145  11.395  0.00  0.00    +0.000 A 
ATOM     25  C   UNL     1      43.712   4.440  12.340  0.00  0.00    +0.000 A 
ATOM     26  S   UNL     1      43.379   2.830  11.885  0.00  0.00    +0.000 S 
ATOM     27  C   UNL     1      44.250   3.001  10.434  0.00  0.00    +0.000 A 
ATOM     28  N   UNL     1      44.377   1.961   9.567  0.00  0.00    +0.000 NA
ATOM     29  C   UNL     1      45.090   2.220   8.523  0.00  0.00    +0.000 A 
ATOM     30  N   UNL     1      45.685   3.427   8.265  0.00  0.00    +0.000 N 
ATOM     31  C   UNL     1      45.565   4.513   9.099  0.00  0.00    +0.000 A 
ATOM     32  O   UNL     1      46.083   5.590   8.822  0.00  0.00    +0.000 OA
ATOM     33  C   UNL     1      44.776   4.273  10.291  0.00  0.00    +0.000 A 
ATOM     34  H   UNL     1      46.229   3.568   7.426  0.00  0.00    +0.000 HD
ENDBRANCH  21  24
ENDBRANCH  19  20
ENDBRANCH   4  19
TORSDOF 6
ENDMDL
MODEL 6
REMARK VINA RESULT:    -6.259      3.396      4.441
REMARK INTER + INTRA:          -9.384
REMARK INTER:                  -8.599
REMARK INTRA:                  -0.785
REMARK UNBOUND:                -0.929
REMARK  Name = 
REMARK  6 active torsions:
REMARK  status: ('A' for Active; 'I' for Inactive)
REMARK    1  A    between atoms: C_2  and  C_25
REMARK    2  A    between atoms: N_3  and  C_4
REMARK    3  A    between atoms: C_4  and  C_5
REMARK    4  A    between atoms: C_8  and  C_9
REMARK    5  A    between atoms: C_9  and  N_10
REMARK    6  A    between atoms: C_11  and  C_13
REMARK                            x       y       z     vdW  Elec       q    Type
REMARK                         _______ _______ _______ _____ _____    ______ ____
ROOT
ATOM      1  C   UNL     1      44.963   6.491  11.706  0.00  0.00    +0.000 A 
ATOM      2  C   UNL     1      45.851   5.675  12.418  0.00  0.00    +0.000 A 
ATOM      3  C   UNL     1      46.866   6.238  13.201  0.00  0.00    +0.000 A 
ATOM      4  C   UNL     1      46.999   7.629  13.302  0.00  0.00    +0.000 A 
ATOM      5  C   UNL     1      46.113   8.444  12.586  0.00  0.00    +0.000 A 
ATOM      6  C   UNL     1      45.099   7.881  11.805  0.00  0.00    +0.000 A 
ENDROOT
BRANCH   1   7
ATOM      7  C   UNL     1      43.894   5.890  10.832  0.00  0.00    +0.000 C 
BRANCH   7  10
ATOM      8  O   UNL     1      45.760   5.681   8.764  0.00  0.00    +0.000 OA
ATOM      9  C   UNL     1      45.241   4.658   9.200  0.00  0.00    +0.000 C 
ATOM     10  N   UNL     1      44.303   4.656  10.211  0.00  0.00    +0.000 N 
ATOM     11  H   UNL     1      43.916   3.764  10.504  0.00  0.00    +0.000 HD
BRANCH   9  12
ATOM     12  C   UNL     1      45.608   3.315   8.648  0.00  0.00    +0.000 A 
ATOM     13  C   UNL     1      46.587   3.229   7.658  0.00  0.00    +0.000 A 
ATOM     14  C   UNL     1      46.930   1.970   7.167  0.00  0.00    +0.000 A 
ATOM     15  C   UNL     1      46.288   0.848   7.677  0.00  0.00    +0.000 A 
ATOM     16 CL   UNL     1      46.686  -0.719   7.102  0.00  0.00    +0.000 Cl
ATOM     17  C   UNL     1      45.323   1.026   8.661  0.00  0.00    +0.000 A 
ATOM     18  N   UNL     1      44.963   2.234   9.164  0.00  0.00    +0.000 NA
ENDBRANCH   9  12
ENDBRANCH   7  10
ENDBRANCH   1   7
BRANCH   4  19
ATOM     19  C   UNL     1      48.097   8.247  14.130  0.00  0.00    +0.000 C 
BRANCH  19  20
ATOM     20  N   UNL     1      48.046   7.791  15.496  0.00  0.00    +0.000 N 
ATOM     21  C   UNL     1      48.982   6.917  15.988  0.00  0.00    +0.000 C 
ATOM     22  O   UNL     1      49.929   6.529  15.308  0.00  0.00    +0.000 OA
ATOM     23  H   UNL     1      47.167   7.911  15.989  0.00  0.00    +0.000 HD
BRANCH  21  24
ATOM     24  C   UNL     1      48.832   6.511  17.392  0.00  0.00    +0.000 A 
ATOM     25  C   UNL     1      48.787   5.161  17.715  0.00  0.00    +0.000 A 
ATOM     26  S   UNL     1      48.669   4.861  19.390  0.00  0.00    +0.000 S 
ATOM     27  C   UNL     1      48.621   6.525  19.740  0.00  0.00    +0.000 A 
ATOM     28  N   UNL     1      48.503   6.967  21.021  0.00  0.00    +0.000 NA
ATOM     29  C   UNL     1      48.445   8.252  21.139  0.00  0.00    +0.000 A 
ATOM     30  N   UNL     1      48.499   9.134  20.092  0.00  0.00    +0.000 N 
ATOM     31  C   UNL     1      48.643   8.735  18.784  0.00  0.00    +0.000 A 
ATOM     32  O   UNL     1      48.721   9.553  17.874  0.00  0.00    +0.000 OA
ATOM     33  C   UNL     1      48.707   7.299  18.596  0.00  0.00    +0.000 A 
ATOM     34  H   UNL     1      48.453  10.130  20.251  0.00  0.00    +0.000 HD
ENDBRANCH  21  24
ENDBRANCH  19  20
ENDBRANCH   4  19
TORSDOF 6
ENDMDL
MODEL 7
REMARK VINA RESULT:    -6.073      4.465      9.396
REMARK INTER + INTRA:          -9.132
REMARK INTER:                  -8.178
REMARK INTRA:                  -0.954
REMARK UNBOUND:                -0.929
REMARK  Name = 
REMARK  6 active torsions:
REMARK  status: ('A' for Active; 'I' for Inactive)
REMARK    1  A    between atoms: C_2  and  C_25
REMARK    2  A    between atoms: N_3  and  C_4
REMARK    3  A    between atoms: C_4  and  C_5
REMARK    4  A    between atoms: C_8  and  C_9
REMARK    5  A    between atoms: C_9  and  N_10
REMARK    6  A    between atoms: C_11  and  C_13
REMARK                            x       y       z     vdW  Elec       q    Type
REMARK                         _______ _______ _______ _____ _____    ______ ____
ROOT
ATOM      1  C   UNL     1      51.024   5.299  17.843  0.00  0.00    +0.000 A 
ATOM      2  C   UNL     1      51.992   5.940  17.057  0.00  0.00    +0.000 A 
ATOM      3  C   UNL     1      51.613   6.768  15.993  0.00  0.00    +0.000 A 
ATOM      4  C   UNL     1      50.259   6.987  15.707  0.00  0.00    +0.000 A 
ATOM      5  C   UNL     1      49.294   6.342  16.490  0.00  0.00    +0.000 A 
ATOM      6  C   UNL     1      49.672   5.516  17.553  0.00  0.00    +0.000 A 
ENDROOT
BRANCH   1   7
ATOM      7  C   UNL     1      51.426   4.378  18.963  0.00  0.00    +0.000 C 
BRANCH   7  10
ATOM      8  O   UNL     1      54.161   3.835  19.115  0.00  0.00    +0.000 OA
ATOM      9  C   UNL     1      53.416   2.991  18.627  0.00  0.00    +0.000 C 
ATOM     10  N   UNL     1      52.054   3.168  18.498  0.00  0.00    +0.000 N 
ATOM     11  H   UNL     1      51.512   2.422  18.072  0.00  0.00    +0.000 HD
BRANCH   9  12
ATOM     12  C   UNL     1      53.955   1.684  18.133  0.00  0.00    +0.000 A 
ATOM     13  C   UNL     1      54.820   1.673  17.039  0.00  0.00    +0.000 A 
ATOM     14  C   UNL     1      55.326   0.449  16.602  0.00  0.00    +0.000 A 
ATOM     15  C   UNL     1      54.954  -0.713  17.267  0.00  0.00    +0.000 A 
ATOM     16 CL   UNL     1      55.560  -2.237  16.763  0.00  0.00    +0.000 Cl
ATOM     17  C   UNL     1      54.085  -0.610  18.347  0.00  0.00    +0.000 A 
ATOM     18  N   UNL     1      53.572   0.563  18.801  0.00  0.00    +0.000 NA
ENDBRANCH   9  12
ENDBRANCH   7  10
ENDBRANCH   1   7
BRANCH   4  19
ATOM     19  C   UNL     1      49.840   7.864  14.555  0.00  0.00    +0.000 C 
BRANCH  19  20
ATOM     20  N   UNL     1      48.804   7.241  13.770  0.00  0.00    +0.000 N 
ATOM     21  C   UNL     1      47.531   7.751  13.743  0.00  0.00    +0.000 C 
ATOM     22  O   UNL     1      47.232   8.783  14.338  0.00  0.00    +0.000 OA
ATOM     23  H   UNL     1      48.967   6.285  13.468  0.00  0.00    +0.000 HD
BRANCH  21  24
ATOM     24  C   UNL     1      46.551   7.035  12.916  0.00  0.00    +0.000 A 
ATOM     25  C   UNL     1      45.744   7.746  12.037  0.00  0.00    +0.000 A 
ATOM     26  S   UNL     1      44.705   6.760  11.111  0.00  0.00    +0.000 S 
ATOM     27  C   UNL     1      45.258   5.352  11.889  0.00  0.00    +0.000 A 
ATOM     28  N   UNL     1      44.748   4.131  11.572  0.00  0.00    +0.000 NA
ATOM     29  C   UNL     1      45.233   3.154  12.262  0.00  0.00    +0.000 A 
ATOM     30  N   UNL     1      46.186   3.287  13.238  0.00  0.00    +0.000 N 
ATOM     31  C   UNL     1      46.747   4.495  13.576  0.00  0.00    +0.000 A 
ATOM     32  O   UNL     1      47.622   4.575  14.432  0.00  0.00    +0.000 OA
ATOM     33  C   UNL     1      46.231   5.628  12.833  0.00  0.00    +0.000 A 
ATOM     34  H   UNL     1      46.528   2.481  13.741  0.00  0.00    +0.000 HD
ENDBRANCH  21  24
ENDBRANCH  19  20
ENDBRANCH   4  19
TORSDOF 6
ENDMDL
MODEL 8
REMARK VINA RESULT:    -6.049      4.567      9.935
REMARK INTER + INTRA:          -9.100
REMARK INTER:                  -8.070
REMARK INTRA:                  -1.030
REMARK UNBOUND:                -0.929
REMARK  Name = 
REMARK  6 active torsions:
REMARK  status: ('A' for Active; 'I' for Inactive)
REMARK    1  A    between atoms: C_2  and  C_25
REMARK    2  A    between atoms: N_3  and  C_4
REMARK    3  A    between atoms: C_4  and  C_5
REMARK    4  A    between atoms: C_8  and  C_9
REMARK    5  A    between atoms: C_9  and  N_10
REMARK    6  A    between atoms: C_11  and  C_13
REMARK                            x       y       z     vdW  Elec       q    Type
REMARK                         _______ _______ _______ _____ _____    ______ ____
ROOT
ATOM      1  C   UNL     1      50.416   5.409  18.270  0.00  0.00    +0.000 A 
ATOM      2  C   UNL     1      51.206   6.112  17.351  0.00  0.00    +0.000 A 
ATOM      3  C   UNL     1      50.618   6.792  16.278  0.00  0.00    +0.000 A 
ATOM      4  C   UNL     1      49.226   6.799  16.115  0.00  0.00    +0.000 A 
ATOM      5  C   UNL     1      48.438   6.091  17.032  0.00  0.00    +0.000 A 
ATOM      6  C   UNL     1      49.026   5.413  18.104  0.00  0.00    +0.000 A 
ENDROOT
BRANCH   1   7
ATOM      7  C   UNL     1      51.046   4.644  19.403  0.00  0.00    +0.000 C 
BRANCH   7  10
ATOM      8  O   UNL     1      53.809   4.286  19.601  0.00  0.00    +0.000 OA
ATOM      9  C   UNL     1      53.129   3.389  19.113  0.00  0.00    +0.000 C 
ATOM     10  N   UNL     1      51.760   3.473  18.963  0.00  0.00    +0.000 N 
ATOM     11  H   UNL     1      51.276   2.687  18.538  0.00  0.00    +0.000 HD
BRANCH   9  12
ATOM     12  C   UNL     1      53.761   2.115  18.643  0.00  0.00    +0.000 A 
ATOM     13  C   UNL     1      54.837   1.584  19.354  0.00  0.00    +0.000 A 
ATOM     14  C   UNL     1      55.402   0.388  18.913  0.00  0.00    +0.000 A 
ATOM     15  C   UNL     1      54.878  -0.233  17.787  0.00  0.00    +0.000 A 
ATOM     16 CL   UNL     1      55.542  -1.709  17.217  0.00  0.00    +0.000 Cl
ATOM     17  C   UNL     1      53.805   0.367  17.138  0.00  0.00    +0.000 A 
ATOM     18  N   UNL     1      53.228   1.530  17.536  0.00  0.00    +0.000 NA
ENDBRANCH   9  12
ENDBRANCH   7  10
ENDBRANCH   1   7
BRANCH   4  19
ATOM     19  C   UNL     1      48.582   7.515  14.955  0.00  0.00    +0.000 C 
BRANCH  19  20
ATOM     20  N   UNL     1      47.454   6.779  14.443  0.00  0.00    +0.000 N 
ATOM     21  C   UNL     1      47.589   5.918  13.384  0.00  0.00    +0.000 C 
ATOM     22  O   UNL     1      48.680   5.695  12.864  0.00  0.00    +0.000 OA
ATOM     23  H   UNL     1      46.530   7.115  14.699  0.00  0.00    +0.000 HD
BRANCH  21  24
ATOM     24  C   UNL     1      46.373   5.224  12.938  0.00  0.00    +0.000 A 
ATOM     25  C   UNL     1      46.297   3.841  13.035  0.00  0.00    +0.000 A 
ATOM     26  S   UNL     1      44.800   3.200  12.530  0.00  0.00    +0.000 S 
ATOM     27  C   UNL     1      44.217   4.743  12.115  0.00  0.00    +0.000 A 
ATOM     28  N   UNL     1      42.972   4.903  11.590  0.00  0.00    +0.000 NA
ATOM     29  C   UNL     1      42.672   6.123  11.290  0.00  0.00    +0.000 A 
ATOM     30  N   UNL     1      43.503   7.197  11.471  0.00  0.00    +0.000 N 
ATOM     31  C   UNL     1      44.759   7.088  12.020  0.00  0.00    +0.000 A 
ATOM     32  O   UNL     1      45.464   8.075  12.199  0.00  0.00    +0.000 OA
ATOM     33  C   UNL     1      45.147   5.736  12.370  0.00  0.00    +0.000 A 
ATOM     34  H   UNL     1      43.207   8.129  11.219  0.00  0.00    +0.000 HD
ENDBRANCH  21  24
ENDBRANCH  19  20
ENDBRANCH   4  19
TORSDOF 6
ENDMDL
MODEL 9
REMARK VINA RESULT:    -6.008      3.726      4.633
REMARK INTER + INTRA:          -9.044
REMARK INTER:                  -8.093
REMARK INTRA:                  -0.951
REMARK UNBOUND:                -0.929
REMARK  Name = 
REMARK  6 active torsions:
REMARK  status: ('A' for Active; 'I' for Inactive)
REMARK    1  A    between atoms: C_2  and  C_25
REMARK    2  A    between atoms: N_3  and  C_4
REMARK    3  A    between atoms: C_4  and  C_5
REMARK    4  A    between atoms: C_8  and  C_9
REMARK    5  A    between atoms: C_9  and  N_10
REMARK    6  A    between atoms: C_11  and  C_13
REMARK                            x       y       z     vdW  Elec       q    Type
REMARK                         _______ _______ _______ _____ _____    ______ ____
ROOT
ATOM      1  C   UNL     1      45.360   6.868  12.171  0.00  0.00    +0.000 A 
ATOM      2  C   UNL     1      46.325   6.108  12.846  0.00  0.00    +0.000 A 
ATOM      3  C   UNL     1      47.256   6.725  13.691  0.00  0.00    +0.000 A 
ATOM      4  C   UNL     1      47.226   8.111  13.893  0.00  0.00    +0.000 A 
ATOM      5  C   UNL     1      46.264   8.869  13.214  0.00  0.00    +0.000 A 
ATOM      6  C   UNL     1      45.334   8.253  12.371  0.00  0.00    +0.000 A 
ENDROOT
BRANCH   1   7
ATOM      7  C   UNL     1      44.382   6.215  11.232  0.00  0.00    +0.000 C 
BRANCH   7  10
ATOM      8  O   UNL     1      44.375   3.449  10.840  0.00  0.00    +0.000 OA
ATOM      9  C   UNL     1      44.955   4.161  10.026  0.00  0.00    +0.000 C 
ATOM     10  N   UNL     1      45.024   5.535  10.135  0.00  0.00    +0.000 N 
ATOM     11  H   UNL     1      45.534   6.047   9.422  0.00  0.00    +0.000 HD
BRANCH   9  12
ATOM     12  C   UNL     1      45.637   3.566   8.833  0.00  0.00    +0.000 A 
ATOM     13  C   UNL     1      45.761   2.180   8.740  0.00  0.00    +0.000 A 
ATOM     14  C   UNL     1      46.383   1.641   7.613  0.00  0.00    +0.000 A 
ATOM     15  C   UNL     1      46.855   2.498   6.627  0.00  0.00    +0.000 A 
ATOM     16 CL   UNL     1      47.621   1.873   5.224  0.00  0.00    +0.000 Cl
ATOM     17  C   UNL     1      46.690   3.867   6.803  0.00  0.00    +0.000 A 
ATOM     18  N   UNL     1      46.091   4.429   7.884  0.00  0.00    +0.000 NA
ENDBRANCH   9  12
ENDBRANCH   7  10
ENDBRANCH   1   7
BRANCH   4  19
ATOM     19  C   UNL     1      48.232   8.788  14.789  0.00  0.00    +0.000 C 
BRANCH  19  20
ATOM     20  N   UNL     1      49.581   8.418  14.439  0.00  0.00    +0.000 N 
ATOM     21  C   UNL     1      50.436   9.321  13.859  0.00  0.00    +0.000 C 
ATOM     22  O   UNL     1      50.111  10.490  13.664  0.00  0.00    +0.000 OA
ATOM     23  H   UNL     1      49.785   7.425  14.378  0.00  0.00    +0.000 HD
BRANCH  21  24
ATOM     24  C   UNL     1      51.785   8.838  13.536  0.00  0.00    +0.000 A 
ATOM     25  C   UNL     1      52.350   9.150  12.306  0.00  0.00    +0.000 A 
ATOM     26  S   UNL     1      53.940   8.564  12.114  0.00  0.00    +0.000 S 
ATOM     27  C   UNL     1      53.911   7.825  13.646  0.00  0.00    +0.000 A 
ATOM     28  N   UNL     1      54.981   7.120  14.102  0.00  0.00    +0.000 NA
ATOM     29  C   UNL     1      54.811   6.586  15.265  0.00  0.00    +0.000 A 
ATOM     30  N   UNL     1      53.669   6.696  16.015  0.00  0.00    +0.000 N 
ATOM     31  C   UNL     1      52.573   7.417  15.606  0.00  0.00    +0.000 A 
ATOM     32  O   UNL     1      51.579   7.523  16.316  0.00  0.00    +0.000 OA
ATOM     33  C   UNL     1      52.710   8.034  14.301  0.00  0.00    +0.000 A 
ATOM     34  H   UNL     1      53.600   6.257  16.921  0.00  0.00    +0.000 HD
ENDBRANCH  21  24
ENDBRANCH  19  20
ENDBRANCH   4  19
TORSDOF 6
ENDMDL
