MODEL 1
REMARK VINA RESULT:    -8.569      0.000      0.000
REMARK INTER + INTRA:         -13.602
REMARK INTER:                 -12.827
REMARK INTRA:                  -0.774
REMARK UNBOUND:                -0.774
REMARK  Name = 
REMARK  9 active torsions:
REMARK  status: ('A' for Active; 'I' for Inactive)
REMARK    1  A    between atoms: N_1  and  C_2
REMARK    2  A    between atoms: C_2  and  C_3
REMARK    3  A    between atoms: C_3  and  N_4
REMARK    4  A    between atoms: C_3  and  C_26
REMARK    5  A    between atoms: N_4  and  C_5
REMARK    6  A    between atoms: C_5  and  C_6
REMARK    7  A    between atoms: C_9  and  C_10
REMARK    8  A    between atoms: C_10  and  N_11
REMARK    9  A    between atoms: C_12  and  C_14
REMARK                            x       y       z     vdW  Elec       q    Type
REMARK                         _______ _______ _______ _____ _____    ______ ____
ROOT
ATOM      1  C   UNL     1      44.207   6.735  11.673  0.00  0.00    +0.000 A 
ATOM      2  C   UNL     1      44.511   8.055  11.333  0.00  0.00    +0.000 A 
ATOM      3  C   UNL     1      45.567   8.705  11.962  0.00  0.00    +0.000 A 
ATOM      4  C   UNL     1      46.303   8.012  12.917  0.00  0.00    +0.000 A 
ATOM      5  N   UNL     1      46.014   6.737  13.286  0.00  0.00    +0.000 NA
ATOM      6  C   UNL     1      44.983   6.133  12.656  0.00  0.00    +0.000 A 
ENDROOT
BRANCH   1   7
ATOM      7  C   UNL     1      43.029   6.024  11.073  0.00  0.00    +0.000 C 
BRANCH   7   8
ATOM      8  N   UNL     1      43.424   5.115   9.996  0.00  0.00    +0.000 NA
ATOM      9  H   UNL     1      43.956   5.640   9.300  0.00  0.00    +0.000 HD
BRANCH   8  10
ATOM     10  C   UNL     1      44.269   4.003  10.476  0.00  0.00    +0.000 C 
BRANCH  10  11
ATOM     11  C   UNL     1      45.103   3.453   9.321  0.00  0.00    +0.000 A 
ATOM     12  C   UNL     1      45.688   4.331   8.391  0.00  0.00    +0.000 A 
ATOM     13  C   UNL     1      46.467   3.845   7.340  0.00  0.00    +0.000 A 
ATOM     14  C   UNL     1      46.678   2.472   7.203  0.00  0.00    +0.000 A 
ATOM     15  C   UNL     1      46.101   1.589   8.111  0.00  0.00    +0.000 A 
ATOM     16  C   UNL     1      45.320   2.072   9.164  0.00  0.00    +0.000 A 
ENDBRANCH  10  11
BRANCH  10  17
ATOM     17  C   UNL     1      43.450   2.869  11.178  0.00  0.00    +0.000 C 
BRANCH  17  18
ATOM     18  N   UNL     1      43.898   2.521  12.533  0.00  0.00    +0.000 NA
ATOM     19  H   UNL     1      44.627   3.178  12.812  0.00  0.00    +0.000 HD
ATOM     20  H   UNL     1      43.132   2.661  13.189  0.00  0.00    +0.000 HD
ENDBRANCH  17  18
ENDBRANCH  10  17
ENDBRANCH   8  10
ENDBRANCH   7   8
ENDBRANCH   1   7
BRANCH   4  21
ATOM     21  C   UNL     1      47.434   8.691  13.647  0.00  0.00    +0.000 C 
BRANCH  21  22
ATOM     22  N   UNL     1      47.800   7.962  14.842  0.00  0.00    +0.000 N 
ATOM     23  C   UNL     1      48.805   7.024  14.836  0.00  0.00    +0.000 C 
ATOM     24  O   UNL     1      49.407   6.700  13.820  0.00  0.00    +0.000 OA
ATOM     25  H   UNL     1      47.495   8.362  15.719  0.00  0.00    +0.000 HD
BRANCH  23  26
ATOM     26  C   UNL     1      49.061   6.403  16.135  0.00  0.00    +0.000 A 
ATOM     27  C   UNL     1      49.883   7.009  17.076  0.00  0.00    +0.000 A 
ATOM     28  S   UNL     1      49.937   6.178  18.558  0.00  0.00    +0.000 S 
ATOM     29  C   UNL     1      48.869   4.987  17.985  0.00  0.00    +0.000 A 
ATOM     30  N   UNL     1      48.505   3.985  18.802  0.00  0.00    +0.000 NA
ATOM     31  C   UNL     1      47.691   3.106  18.220  0.00  0.00    +0.000 A 
ATOM     32  N   UNL     1      47.256   3.128  16.958  0.00  0.00    +0.000 NA
ATOM     33  C   UNL     1      47.650   4.159  16.194  0.00  0.00    +0.000 A 
ATOM     34 CL   UNL     1      47.196   4.072  14.561  0.00  0.00    +0.000 Cl
ATOM     35  C   UNL     1      48.479   5.179  16.664  0.00  0.00    +0.000 A 
ENDBRANCH  23  26
ENDBRANCH  21  22
ENDBRANCH   4  21
TORSDOF 9
ENDMDL
MODEL 2
REMARK VINA RESULT:    -7.984      2.118      2.539
REMARK INTER + INTRA:         -12.726
REMARK INTER:                 -11.667
REMARK INTRA:                  -1.059
REMARK UNBOUND:                -0.774
REMARK  Name = 
REMARK  9 active torsions:
REMARK  status: ('A' for Active; 'I' for Inactive)
REMARK    1  A    between atoms: N_1  and  C_2
REMARK    2  A    between atoms: C_2  and  C_3
REMARK    3  A    between atoms: C_3  and  N_4
REMARK    4  A    between atoms: C_3  and  C_26
REMARK    5  A    between atoms: N_4  and  C_5
REMARK    6  A    between atoms: C_5  and  C_6
REMARK    7  A    between atoms: C_9  and  C_10
REMARK    8  A    between atoms: C_10  and  N_11
REMARK    9  A    between atoms: C_12  and  C_14
REMARK                            x       y       z     vdW  Elec       q    Type
REMARK                         _______ _______ _______ _____ _____    ______ ____
ROOT
ATOM      1  C   UNL     1      44.663   5.772  11.661  0.00  0.00    +0.000 A 
ATOM      2  C   UNL     1      45.654   6.542  11.047  0.00  0.00    +0.000 A 
ATOM      3  C   UNL     1      46.826   6.837  11.735  0.00  0.00    +0.000 A 
ATOM      4  C   UNL     1      46.983   6.344  13.026  0.00  0.00    +0.000 A 
ATOM      5  N   UNL     1      46.026   5.615  13.658  0.00  0.00    +0.000 NA
ATOM      6  C   UNL     1      44.900   5.345  12.962  0.00  0.00    +0.000 A 
ENDROOT
BRANCH   1   7
ATOM      7  C   UNL     1      43.353   5.497  10.982  0.00  0.00    +0.000 C 
BRANCH   7   8
ATOM      8  N   UNL     1      43.482   4.496   9.923  0.00  0.00    +0.000 NA
ATOM      9  H   UNL     1      43.822   4.954   9.076  0.00  0.00    +0.000 HD
BRANCH   8  10
ATOM     10  C   UNL     1      44.429   3.419  10.274  0.00  0.00    +0.000 C 
BRANCH  10  11
ATOM     11  C   UNL     1      45.295   3.078   9.062  0.00  0.00    +0.000 A 
ATOM     12  C   UNL     1      45.727   4.095   8.194  0.00  0.00    +0.000 A 
ATOM     13  C   UNL     1      46.532   3.801   7.092  0.00  0.00    +0.000 A 
ATOM     14  C   UNL     1      46.922   2.484   6.843  0.00  0.00    +0.000 A 
ATOM     15  C   UNL     1      46.497   1.464   7.690  0.00  0.00    +0.000 A 
ATOM     16  C   UNL     1      45.691   1.755   8.793  0.00  0.00    +0.000 A 
ENDBRANCH  10  11
BRANCH  10  17
ATOM     17  C   UNL     1      43.725   2.145  10.849  0.00  0.00    +0.000 C 
BRANCH  17  18
ATOM     18  N   UNL     1      43.480   2.165  12.297  0.00  0.00    +0.000 NA
ATOM     19  H   UNL     1      42.562   2.579  12.464  0.00  0.00    +0.000 HD
ATOM     20  H   UNL     1      43.422   1.210  12.644  0.00  0.00    +0.000 HD
ENDBRANCH  17  18
ENDBRANCH  10  17
ENDBRANCH   8  10
ENDBRANCH   7   8
ENDBRANCH   1   7
BRANCH   4  21
ATOM     21  C   UNL     1      48.224   6.668  13.819  0.00  0.00    +0.000 C 
BRANCH  21  22
ATOM     22  N   UNL     1      48.074   6.288  15.207  0.00  0.00    +0.000 N 
ATOM     23  C   UNL     1      49.105   6.422  16.107  0.00  0.00    +0.000 C 
ATOM     24  O   UNL     1      50.222   6.804  15.787  0.00  0.00    +0.000 OA
ATOM     25  H   UNL     1      47.126   6.196  15.543  0.00  0.00    +0.000 HD
BRANCH  23  26
ATOM     26  C   UNL     1      48.772   6.015  17.472  0.00  0.00    +0.000 A 
ATOM     27  C   UNL     1      48.927   4.700  17.891  0.00  0.00    +0.000 A 
ATOM     28  S   UNL     1      48.603   4.477  19.545  0.00  0.00    +0.000 S 
ATOM     29  C   UNL     1      48.245   6.126  19.747  0.00  0.00    +0.000 A 
ATOM     30  N   UNL     1      47.903   6.579  20.964  0.00  0.00    +0.000 NA
ATOM     31  C   UNL     1      47.620   7.880  20.977  0.00  0.00    +0.000 A 
ATOM     32  N   UNL     1      47.623   8.713  19.934  0.00  0.00    +0.000 NA
ATOM     33  C   UNL     1      47.979   8.201  18.745  0.00  0.00    +0.000 A 
ATOM     34 CL   UNL     1      47.829   9.255  17.422  0.00  0.00    +0.000 Cl
ATOM     35  C   UNL     1      48.334   6.863  18.570  0.00  0.00    +0.000 A 
ENDBRANCH  23  26
ENDBRANCH  21  22
ENDBRANCH   4  21
TORSDOF 9
ENDMDL
MODEL 3
REMARK VINA RESULT:    -7.948      1.856      2.382
REMARK INTER + INTRA:         -12.672
REMARK INTER:                 -11.877
REMARK INTRA:                  -0.795
REMARK UNBOUND:                -0.774
REMARK  Name = 
REMARK  9 active torsions:
REMARK  status: ('A' for Active; 'I' for Inactive)
REMARK    1  A    between atoms: N_1  and  C_2
REMARK    2  A    between atoms: C_2  and  C_3
REMARK    3  A    between atoms: C_3  and  N_4
REMARK    4  A    between atoms: C_3  and  C_26
REMARK    5  A    between atoms: N_4  and  C_5
REMARK    6  A    between atoms: C_5  and  C_6
REMARK    7  A    between atoms: C_9  and  C_10
REMARK    8  A    between atoms: C_10  and  N_11
REMARK    9  A    between atoms: C_12  and  C_14
REMARK                            x       y       z     vdW  Elec       q    Type
REMARK                         _______ _______ _______ _____ _____    ______ ____
ROOT
ATOM      1  C   UNL     1      44.830   5.535  11.542  0.00  0.00    +0.000 A 
ATOM      2  C   UNL     1      45.035   5.033  12.830  0.00  0.00    +0.000 A 
ATOM      3  C   UNL     1      46.197   5.357  13.522  0.00  0.00    +0.000 A 
ATOM      4  C   UNL     1      47.128   6.189  12.908  0.00  0.00    +0.000 A 
ATOM      5  N   UNL     1      46.967   6.671  11.648  0.00  0.00    +0.000 NA
ATOM      6  C   UNL     1      45.828   6.338  11.003  0.00  0.00    +0.000 A 
ENDROOT
BRANCH   1   7
ATOM      7  C   UNL     1      43.627   5.146  10.734  0.00  0.00    +0.000 C 
BRANCH   7   8
ATOM      8  N   UNL     1      43.993   4.430   9.512  0.00  0.00    +0.000 NA
ATOM      9  H   UNL     1      44.567   5.042   8.930  0.00  0.00    +0.000 HD
BRANCH   8  10
ATOM     10  C   UNL     1      44.765   3.201   9.786  0.00  0.00    +0.000 C 
BRANCH  10  11
ATOM     11  C   UNL     1      45.629   2.854   8.575  0.00  0.00    +0.000 A 
ATOM     12  C   UNL     1      46.109   1.545   8.402  0.00  0.00    +0.000 A 
ATOM     13  C   UNL     1      46.885   1.208   7.291  0.00  0.00    +0.000 A 
ATOM     14  C   UNL     1      47.192   2.175   6.334  0.00  0.00    +0.000 A 
ATOM     15  C   UNL     1      46.730   3.479   6.494  0.00  0.00    +0.000 A 
ATOM     16  C   UNL     1      45.954   3.819   7.604  0.00  0.00    +0.000 A 
ENDBRANCH  10  11
BRANCH  10  17
ATOM     17  C   UNL     1      43.865   1.992  10.209  0.00  0.00    +0.000 C 
BRANCH  17  18
ATOM     18  N   UNL     1      43.300   2.076  11.562  0.00  0.00    +0.000 NA
ATOM     19  H   UNL     1      43.678   1.309  12.119  0.00  0.00    +0.000 HD
ATOM     20  H   UNL     1      43.621   2.931  12.011  0.00  0.00    +0.000 HD
ENDBRANCH  17  18
ENDBRANCH  10  17
ENDBRANCH   8  10
ENDBRANCH   7   8
ENDBRANCH   1   7
BRANCH   4  21
ATOM     21  C   UNL     1      48.416   6.538  13.610  0.00  0.00    +0.000 C 
BRANCH  21  22
ATOM     22  N   UNL     1      48.187   6.832  15.009  0.00  0.00    +0.000 N 
ATOM     23  C   UNL     1      49.222   6.886  15.912  0.00  0.00    +0.000 C 
ATOM     24  O   UNL     1      50.381   6.629  15.613  0.00  0.00    +0.000 OA
ATOM     25  H   UNL     1      47.304   7.267  15.233  0.00  0.00    +0.000 HD
BRANCH  23  26
ATOM     26  C   UNL     1      48.816   7.221  17.277  0.00  0.00    +0.000 A 
ATOM     27  C   UNL     1      48.401   8.504  17.611  0.00  0.00    +0.000 A 
ATOM     28  S   UNL     1      47.854   8.638  19.216  0.00  0.00    +0.000 S 
ATOM     29  C   UNL     1      48.158   6.991  19.508  0.00  0.00    +0.000 A 
ATOM     30  N   UNL     1      47.881   6.478  20.718  0.00  0.00    +0.000 NA
ATOM     31  C   UNL     1      48.193   5.188  20.822  0.00  0.00    +0.000 A 
ATOM     32  N   UNL     1      48.751   4.418  19.885  0.00  0.00    +0.000 NA
ATOM     33  C   UNL     1      48.999   4.988  18.695  0.00  0.00    +0.000 A 
ATOM     34 CL   UNL     1      49.840   4.020  17.583  0.00  0.00    +0.000 Cl
ATOM     35  C   UNL     1      48.702   6.323  18.416  0.00  0.00    +0.000 A 
ENDBRANCH  23  26
ENDBRANCH  21  22
ENDBRANCH   4  21
TORSDOF 9
ENDMDL
MODEL 4
REMARK VINA RESULT:    -7.735      2.928      3.606
REMARK INTER + INTRA:         -12.353
REMARK INTER:                 -11.705
REMARK INTRA:                  -0.649
REMARK UNBOUND:                -0.774
REMARK  Name = 
REMARK  9 active torsions:
REMARK  status: ('A' for Active; 'I' for Inactive)
REMARK    1  A    between atoms: N_1  and  C_2
REMARK    2  A    between atoms: C_2  and  C_3
REMARK    3  A    between atoms: C_3  and  N_4
REMARK    4  A    between atoms: C_3  and  C_26
REMARK    5  A    between atoms: N_4  and  C_5
REMARK    6  A    between atoms: C_5  and  C_6
REMARK    7  A    between atoms: C_9  and  C_10
REMARK    8  A    between atoms: C_10  and  N_11
REMARK    9  A    between atoms: C_12  and  C_14
REMARK                            x       y       z     vdW  Elec       q    Type
REMARK                         _______ _______ _______ _____ _____    ______ ____
ROOT
ATOM      1  C   UNL     1      46.492   4.113  13.377  0.00  0.00    +0.000 A 
ATOM      2  C   UNL     1      46.777   5.432  13.014  0.00  0.00    +0.000 A 
ATOM      3  C   UNL     1      47.508   6.243  13.875  0.00  0.00    +0.000 A 
ATOM      4  C   UNL     1      47.945   5.710  15.084  0.00  0.00    +0.000 A 
ATOM      5  N   UNL     1      47.660   4.440  15.474  0.00  0.00    +0.000 NA
ATOM      6  C   UNL     1      46.950   3.677  14.614  0.00  0.00    +0.000 A 
ENDROOT
BRANCH   1   7
ATOM      7  C   UNL     1      45.643   3.229  12.510  0.00  0.00    +0.000 C 
BRANCH   7   8
ATOM      8  N   UNL     1      44.224   3.317  12.859  0.00  0.00    +0.000 NA
ATOM      9  H   UNL     1      44.108   4.013  13.597  0.00  0.00    +0.000 HD
BRANCH   8  10
ATOM     10  C   UNL     1      43.384   3.718  11.714  0.00  0.00    +0.000 C 
BRANCH  10  11
ATOM     11  C   UNL     1      44.182   3.588  10.417  0.00  0.00    +0.000 A 
ATOM     12  C   UNL     1      44.814   4.714   9.862  0.00  0.00    +0.000 A 
ATOM     13  C   UNL     1      45.561   4.609   8.687  0.00  0.00    +0.000 A 
ATOM     14  C   UNL     1      45.693   3.373   8.052  0.00  0.00    +0.000 A 
ATOM     15  C   UNL     1      45.068   2.250   8.585  0.00  0.00    +0.000 A 
ATOM     16  C   UNL     1      44.319   2.353   9.760  0.00  0.00    +0.000 A 
ENDBRANCH  10  11
BRANCH  10  17
ATOM     17  C   UNL     1      42.778   5.153  11.869  0.00  0.00    +0.000 C 
BRANCH  17  18
ATOM     18  N   UNL     1      42.931   5.756  13.199  0.00  0.00    +0.000 NA
ATOM     19  H   UNL     1      42.136   5.474  13.776  0.00  0.00    +0.000 HD
ATOM     20  H   UNL     1      43.755   5.369  13.655  0.00  0.00    +0.000 HD
ENDBRANCH  17  18
ENDBRANCH  10  17
ENDBRANCH   8  10
ENDBRANCH   7   8
ENDBRANCH   1   7
BRANCH   4  21
ATOM     21  C   UNL     1      48.710   6.566  16.060  0.00  0.00    +0.000 C 
BRANCH  21  22
ATOM     22  N   UNL     1      49.945   5.927  16.462  0.00  0.00    +0.000 N 
ATOM     23  C   UNL     1      50.074   5.313  17.686  0.00  0.00    +0.000 C 
ATOM     24  O   UNL     1      49.189   5.322  18.532  0.00  0.00    +0.000 OA
ATOM     25  H   UNL     1      50.592   5.702  15.720  0.00  0.00    +0.000 HD
BRANCH  23  26
ATOM     26  C   UNL     1      51.380   4.695  17.917  0.00  0.00    +0.000 A 
ATOM     27  C   UNL     1      52.466   5.444  18.348  0.00  0.00    +0.000 A 
ATOM     28  S   UNL     1      53.846   4.504  18.674  0.00  0.00    +0.000 S 
ATOM     29  C   UNL     1      53.032   3.075  18.247  0.00  0.00    +0.000 A 
ATOM     30  N   UNL     1      53.681   1.901  18.327  0.00  0.00    +0.000 NA
ATOM     31  C   UNL     1      52.940   0.867  17.936  0.00  0.00    +0.000 A 
ATOM     32  N   UNL     1      51.689   0.904  17.473  0.00  0.00    +0.000 NA
ATOM     33  C   UNL     1      51.092   2.106  17.422  0.00  0.00    +0.000 A 
ATOM     34 CL   UNL     1      49.560   2.130  16.693  0.00  0.00    +0.000 Cl
ATOM     35  C   UNL     1      51.723   3.284  17.825  0.00  0.00    +0.000 A 
ENDBRANCH  23  26
ENDBRANCH  21  22
ENDBRANCH   4  21
TORSDOF 9
ENDMDL
MODEL 5
REMARK VINA RESULT:    -7.295      2.188      2.702
REMARK INTER + INTRA:         -11.694
REMARK INTER:                 -10.717
REMARK INTRA:                  -0.977
REMARK UNBOUND:                -0.774
REMARK  Name = 
REMARK  9 active torsions:
REMARK  status: ('A' for Active; 'I' for Inactive)
REMARK    1  A    between atoms: N_1  and  C_2
REMARK    2  A    between atoms: C_2  and  C_3
REMARK    3  A    between atoms: C_3  and  N_4
REMARK    4  A    between atoms: C_3  and  C_26
REMARK    5  A    between atoms: N_4  and  C_5
REMARK    6  A    between atoms: C_5  and  C_6
REMARK    7  A    between atoms: C_9  and  C_10
REMARK    8  A    between atoms: C_10  and  N_11
REMARK    9  A    between atoms: C_12  and  C_14
REMARK                            x       y       z     vdW  Elec       q    Type
REMARK                         _______ _______ _______ _____ _____    ______ ____
ROOT
ATOM      1  C   UNL     1      45.882   5.768  13.008  0.00  0.00    +0.000 A 
ATOM      2  C   UNL     1      45.826   7.139  12.747  0.00  0.00    +0.000 A 
ATOM      3  C   UNL     1      47.001   7.881  12.696  0.00  0.00    +0.000 A 
ATOM      4  C   UNL     1      48.212   7.229  12.902  0.00  0.00    +0.000 A 
ATOM      5  N   UNL     1      48.294   5.903  13.184  0.00  0.00    +0.000 NA
ATOM      6  C   UNL     1      47.136   5.209  13.225  0.00  0.00    +0.000 A 
ENDROOT
BRANCH   1   7
ATOM      7  C   UNL     1      44.633   4.946  13.147  0.00  0.00    +0.000 C 
BRANCH   7   8
ATOM      8  N   UNL     1      44.668   3.746  12.310  0.00  0.00    +0.000 NA
ATOM      9  H   UNL     1      44.288   2.962  12.842  0.00  0.00    +0.000 HD
BRANCH   8  10
ATOM     10  C   UNL     1      43.870   3.894  11.076  0.00  0.00    +0.000 C 
BRANCH  10  11
ATOM     11  C   UNL     1      44.731   3.551   9.861  0.00  0.00    +0.000 A 
ATOM     12  C   UNL     1      45.305   4.577   9.090  0.00  0.00    +0.000 A 
ATOM     13  C   UNL     1      46.108   4.280   7.988  0.00  0.00    +0.000 A 
ATOM     14  C   UNL     1      46.353   2.951   7.640  0.00  0.00    +0.000 A 
ATOM     15  C   UNL     1      45.787   1.923   8.389  0.00  0.00    +0.000 A 
ATOM     16  C   UNL     1      44.982   2.217   9.493  0.00  0.00    +0.000 A 
ENDBRANCH  10  11
BRANCH  10  17
ATOM     17  C   UNL     1      43.218   5.309  10.932  0.00  0.00    +0.000 C 
BRANCH  17  18
ATOM     18  N   UNL     1      41.891   5.452  11.543  0.00  0.00    +0.000 NA
ATOM     19  H   UNL     1      41.343   6.104  10.980  0.00  0.00    +0.000 HD
ATOM     20  H   UNL     1      41.398   4.563  11.497  0.00  0.00    +0.000 HD
ENDBRANCH  17  18
ENDBRANCH  10  17
ENDBRANCH   8  10
ENDBRANCH   7   8
ENDBRANCH   1   7
BRANCH   4  21
ATOM     21  C   UNL     1      49.505   8.003  12.890  0.00  0.00    +0.000 C 
BRANCH  21  22
ATOM     22  N   UNL     1      50.487   7.397  13.763  0.00  0.00    +0.000 N 
ATOM     23  C   UNL     1      50.585   7.746  15.090  0.00  0.00    +0.000 C 
ATOM     24  O   UNL     1      49.903   8.626  15.598  0.00  0.00    +0.000 OA
ATOM     25  H   UNL     1      50.891   6.528  13.444  0.00  0.00    +0.000 HD
BRANCH  23  26
ATOM     26  C   UNL     1      51.613   7.016  15.832  0.00  0.00    +0.000 A 
ATOM     27  C   UNL     1      52.961   7.318  15.683  0.00  0.00    +0.000 A 
ATOM     28  S   UNL     1      53.968   6.436  16.732  0.00  0.00    +0.000 S 
ATOM     29  C   UNL     1      52.635   5.629  17.411  0.00  0.00    +0.000 A 
ATOM     30  N   UNL     1      52.840   4.735  18.392  0.00  0.00    +0.000 NA
ATOM     31  C   UNL     1      51.718   4.154  18.813  0.00  0.00    +0.000 A 
ATOM     32  N   UNL     1      50.484   4.359  18.346  0.00  0.00    +0.000 NA
ATOM     33  C   UNL     1      50.344   5.269  17.370  0.00  0.00    +0.000 A 
ATOM     34 CL   UNL     1      48.787   5.393  16.706  0.00  0.00    +0.000 Cl
ATOM     35  C   UNL     1      51.417   5.986  16.840  0.00  0.00    +0.000 A 
ENDBRANCH  23  26
ENDBRANCH  21  22
ENDBRANCH   4  21
TORSDOF 9
ENDMDL
MODEL 6
REMARK VINA RESULT:    -7.223      1.448      1.960
REMARK INTER + INTRA:         -11.587
REMARK INTER:                 -10.735
REMARK INTRA:                  -0.852
REMARK UNBOUND:                -0.774
REMARK  Name = 
REMARK  9 active torsions:
REMARK  status: ('A' for Active; 'I' for Inactive)
REMARK    1  A    between atoms: N_1  and  C_2
REMARK    2  A    between atoms: C_2  and  C_3
REMARK    3  A    between atoms: C_3  and  N_4
REMARK    4  A    between atoms: C_3  and  C_26
REMARK    5  A    between atoms: N_4  and  C_5
REMARK    6  A    between atoms: C_5  and  C_6
REMARK    7  A    between atoms: C_9  and  C_10
REMARK    8  A    between atoms: C_10  and  N_11
REMARK    9  A    between atoms: C_12  and  C_14
REMARK                            x       y       z     vdW  Elec       q    Type
REMARK                         _______ _______ _______ _____ _____    ______ ____
ROOT
ATOM      1  C   UNL     1      46.114   8.056  12.073  0.00  0.00    +0.000 A 
ATOM      2  C   UNL     1      46.589   9.203  12.714  0.00  0.00    +0.000 A 
ATOM      3  C   UNL     1      47.887   9.228  13.214  0.00  0.00    +0.000 A 
ATOM      4  C   UNL     1      48.685   8.100  13.053  0.00  0.00    +0.000 A 
ATOM      5  N   UNL     1      48.241   6.963  12.458  0.00  0.00    +0.000 NA
ATOM      6  C   UNL     1      46.977   6.971  11.982  0.00  0.00    +0.000 A 
ENDROOT
BRANCH   1   7
ATOM      7  C   UNL     1      44.696   7.962  11.589  0.00  0.00    +0.000 C 
BRANCH   7   8
ATOM      8  N   UNL     1      44.527   6.912  10.584  0.00  0.00    +0.000 NA
ATOM      9  H   UNL     1      45.383   6.842  10.032  0.00  0.00    +0.000 HD
BRANCH   8  10
ATOM     10  C   UNL     1      44.261   5.590  11.186  0.00  0.00    +0.000 C 
BRANCH  10  11
ATOM     11  C   UNL     1      44.620   4.488  10.190  0.00  0.00    +0.000 A 
ATOM     12  C   UNL     1      45.382   4.789   9.049  0.00  0.00    +0.000 A 
ATOM     13  C   UNL     1      45.733   3.790   8.139  0.00  0.00    +0.000 A 
ATOM     14  C   UNL     1      45.330   2.472   8.358  0.00  0.00    +0.000 A 
ATOM     15  C   UNL     1      44.568   2.158   9.481  0.00  0.00    +0.000 A 
ATOM     16  C   UNL     1      44.215   3.156  10.393  0.00  0.00    +0.000 A 
ENDBRANCH  10  11
BRANCH  10  17
ATOM     17  C   UNL     1      42.791   5.435  11.702  0.00  0.00    +0.000 C 
BRANCH  17  18
ATOM     18  N   UNL     1      42.644   5.367  13.162  0.00  0.00    +0.000 NA
ATOM     19  H   UNL     1      41.857   5.956  13.436  0.00  0.00    +0.000 HD
ATOM     20  H   UNL     1      42.390   4.420  13.433  0.00  0.00    +0.000 HD
ENDBRANCH  17  18
ENDBRANCH  10  17
ENDBRANCH   8  10
ENDBRANCH   7   8
ENDBRANCH   1   7
BRANCH   4  21
ATOM     21  C   UNL     1      50.086   8.074  13.610  0.00  0.00    +0.000 C 
BRANCH  21  22
ATOM     22  N   UNL     1      50.220   7.070  14.644  0.00  0.00    +0.000 N 
ATOM     23  C   UNL     1      49.615   7.212  15.870  0.00  0.00    +0.000 C 
ATOM     24  O   UNL     1      48.986   8.212  16.190  0.00  0.00    +0.000 OA
ATOM     25  H   UNL     1      50.524   6.156  14.339  0.00  0.00    +0.000 HD
BRANCH  23  26
ATOM     26  C   UNL     1      49.833   6.091  16.785  0.00  0.00    +0.000 A 
ATOM     27  C   UNL     1      50.919   6.067  17.650  0.00  0.00    +0.000 A 
ATOM     28  S   UNL     1      50.907   4.737  18.709  0.00  0.00    +0.000 S 
ATOM     29  C   UNL     1      49.455   4.157  18.041  0.00  0.00    +0.000 A 
ATOM     30  N   UNL     1      48.908   3.034  18.536  0.00  0.00    +0.000 NA
ATOM     31  C   UNL     1      47.792   2.675  17.905  0.00  0.00    +0.000 A 
ATOM     32  N   UNL     1      47.223   3.291  16.866  0.00  0.00    +0.000 NA
ATOM     33  C   UNL     1      47.815   4.411  16.421  0.00  0.00    +0.000 A 
ATOM     34 CL   UNL     1      47.145   5.079  15.012  0.00  0.00    +0.000 Cl
ATOM     35  C   UNL     1      48.974   4.936  16.994  0.00  0.00    +0.000 A 
ENDBRANCH  23  26
ENDBRANCH  21  22
ENDBRANCH   4  21
TORSDOF 9
ENDMDL
MODEL 7
REMARK VINA RESULT:    -7.045      3.476      4.979
REMARK INTER + INTRA:         -11.320
REMARK INTER:                 -10.360
REMARK INTRA:                  -0.960
REMARK UNBOUND:                -0.774
REMARK  Name = 
REMARK  9 active torsions:
REMARK  status: ('A' for Active; 'I' for Inactive)
REMARK    1  A    between atoms: N_1  and  C_2
REMARK    2  A    between atoms: C_2  and  C_3
REMARK    3  A    between atoms: C_3  and  N_4
REMARK    4  A    between atoms: C_3  and  C_26
REMARK    5  A    between atoms: N_4  and  C_5
REMARK    6  A    between atoms: C_5  and  C_6
REMARK    7  A    between atoms: C_9  and  C_10
REMARK    8  A    between atoms: C_10  and  N_11
REMARK    9  A    between atoms: C_12  and  C_14
REMARK                            x       y       z     vdW  Elec       q    Type
REMARK                         _______ _______ _______ _____ _____    ______ ____
ROOT
ATOM      1  C   UNL     1      46.422   4.164  13.236  0.00  0.00    +0.000 A 
ATOM      2  C   UNL     1      46.492   5.494  12.813  0.00  0.00    +0.000 A 
ATOM      3  C   UNL     1      47.235   6.414  13.546  0.00  0.00    +0.000 A 
ATOM      4  C   UNL     1      47.899   5.977  14.687  0.00  0.00    +0.000 A 
ATOM      5  N   UNL     1      47.826   4.697  15.136  0.00  0.00    +0.000 NA
ATOM      6  C   UNL     1      47.098   3.827  14.402  0.00  0.00    +0.000 A 
ENDROOT
BRANCH   1   7
ATOM      7  C   UNL     1      45.570   3.159  12.517  0.00  0.00    +0.000 C 
BRANCH   7   8
ATOM      8  N   UNL     1      44.153   3.296  12.855  0.00  0.00    +0.000 NA
ATOM      9  H   UNL     1      44.052   4.023  13.564  0.00  0.00    +0.000 HD
BRANCH   8  10
ATOM     10  C   UNL     1      43.327   3.672  11.691  0.00  0.00    +0.000 C 
BRANCH  10  11
ATOM     11  C   UNL     1      44.144   3.520  10.408  0.00  0.00    +0.000 A 
ATOM     12  C   UNL     1      44.340   2.248   9.843  0.00  0.00    +0.000 A 
ATOM     13  C   UNL     1      45.069   2.094   8.662  0.00  0.00    +0.000 A 
ATOM     14  C   UNL     1      45.611   3.212   8.026  0.00  0.00    +0.000 A 
ATOM     15  C   UNL     1      45.431   4.478   8.576  0.00  0.00    +0.000 A 
ATOM     16  C   UNL     1      44.703   4.634   9.758  0.00  0.00    +0.000 A 
ENDBRANCH  10  11
BRANCH  10  17
ATOM     17  C   UNL     1      42.715   5.108  11.810  0.00  0.00    +0.000 C 
BRANCH  17  18
ATOM     18  N   UNL     1      42.724   5.681  13.162  0.00  0.00    +0.000 NA
ATOM     19  H   UNL     1      43.318   6.512  13.157  0.00  0.00    +0.000 HD
ATOM     20  H   UNL     1      41.789   6.010  13.396  0.00  0.00    +0.000 HD
ENDBRANCH  17  18
ENDBRANCH  10  17
ENDBRANCH   8  10
ENDBRANCH   7   8
ENDBRANCH   1   7
BRANCH   4  21
ATOM     21  C   UNL     1      48.686   6.949  15.528  0.00  0.00    +0.000 C 
BRANCH  21  22
ATOM     22  N   UNL     1      49.908   7.348  14.863  0.00  0.00    +0.000 N 
ATOM     23  C   UNL     1      50.126   8.648  14.472  0.00  0.00    +0.000 C 
ATOM     24  O   UNL     1      49.286   9.530  14.598  0.00  0.00    +0.000 OA
ATOM     25  H   UNL     1      50.691   6.716  14.955  0.00  0.00    +0.000 HD
BRANCH  23  26
ATOM     26  C   UNL     1      51.424   8.879  13.839  0.00  0.00    +0.000 A 
ATOM     27  C   UNL     1      52.478   9.447  14.542  0.00  0.00    +0.000 A 
ATOM     28  S   UNL     1      53.927   9.506  13.653  0.00  0.00    +0.000 S 
ATOM     29  C   UNL     1      53.187   8.779  12.307  0.00  0.00    +0.000 A 
ATOM     30  N   UNL     1      53.917   8.542  11.205  0.00  0.00    +0.000 NA
ATOM     31  C   UNL     1      53.210   7.998  10.216  0.00  0.00    +0.000 A 
ATOM     32  N   UNL     1      51.907   7.712  10.224  0.00  0.00    +0.000 NA
ATOM     33  C   UNL     1      51.232   7.966  11.357  0.00  0.00    +0.000 A 
ATOM     34 CL   UNL     1      49.554   7.726  11.277  0.00  0.00    +0.000 Cl
ATOM     35  C   UNL     1      51.835   8.508  12.493  0.00  0.00    +0.000 A 
ENDBRANCH  23  26
ENDBRANCH  21  22
ENDBRANCH   4  21
TORSDOF 9
ENDMDL
MODEL 8
REMARK VINA RESULT:    -6.713      2.125      2.800
REMARK INTER + INTRA:         -10.823
REMARK INTER:                 -10.186
REMARK INTRA:                  -0.637
REMARK UNBOUND:                -0.774
REMARK  Name = 
REMARK  9 active torsions:
REMARK  status: ('A' for Active; 'I' for Inactive)
REMARK    1  A    between atoms: N_1  and  C_2
REMARK    2  A    between atoms: C_2  and  C_3
REMARK    3  A    between atoms: C_3  and  N_4
REMARK    4  A    between atoms: C_3  and  C_26
REMARK    5  A    between atoms: N_4  and  C_5
REMARK    6  A    between atoms: C_5  and  C_6
REMARK    7  A    between atoms: C_9  and  C_10
REMARK    8  A    between atoms: C_10  and  N_11
REMARK    9  A    between atoms: C_12  and  C_14
REMARK                            x       y       z     vdW  Elec       q    Type
REMARK                         _______ _______ _______ _____ _____    ______ ____
ROOT
ATOM      1  C   UNL     1      46.339   4.512  12.932  0.00  0.00    +0.000 A 
ATOM      2  C   UNL     1      46.387   5.661  12.139  0.00  0.00    +0.000 A 
ATOM      3  C   UNL     1      47.004   6.809  12.622  0.00  0.00    +0.000 A 
ATOM      4  C   UNL     1      47.568   6.778  13.894  0.00  0.00    +0.000 A 
ATOM      5  N   UNL     1      47.513   5.684  14.697  0.00  0.00    +0.000 NA
ATOM      6  C   UNL     1      46.908   4.584  14.197  0.00  0.00    +0.000 A 
ENDROOT
BRANCH   1   7
ATOM      7  C   UNL     1      45.616   3.277  12.477  0.00  0.00    +0.000 C 
BRANCH   7   8
ATOM      8  N   UNL     1      44.198   3.306  12.837  0.00  0.00    +0.000 NA
ATOM      9  H   UNL     1      44.050   4.033  13.538  0.00  0.00    +0.000 HD
BRANCH   8  10
ATOM     10  C   UNL     1      43.327   3.598  11.681  0.00  0.00    +0.000 C 
BRANCH  10  11
ATOM     11  C   UNL     1      44.117   3.431  10.385  0.00  0.00    +0.000 A 
ATOM     12  C   UNL     1      44.529   4.561   9.658  0.00  0.00    +0.000 A 
ATOM     13  C   UNL     1      45.267   4.425   8.480  0.00  0.00    +0.000 A 
ATOM     14  C   UNL     1      45.608   3.155   8.012  0.00  0.00    +0.000 A 
ATOM     15  C   UNL     1      45.202   2.025   8.717  0.00  0.00    +0.000 A 
ATOM     16  C   UNL     1      44.463   2.158   9.895  0.00  0.00    +0.000 A 
ENDBRANCH  10  11
BRANCH  10  17
ATOM     17  C   UNL     1      42.654   5.009  11.761  0.00  0.00    +0.000 C 
BRANCH  17  18
ATOM     18  N   UNL     1      42.942   5.771  12.982  0.00  0.00    +0.000 NA
ATOM     19  H   UNL     1      42.725   5.185  13.789  0.00  0.00    +0.000 HD
ATOM     20  H   UNL     1      43.940   5.960  13.037  0.00  0.00    +0.000 HD
ENDBRANCH  17  18
ENDBRANCH  10  17
ENDBRANCH   8  10
ENDBRANCH   7   8
ENDBRANCH   1   7
BRANCH   4  21
ATOM     21  C   UNL     1      48.216   8.012  14.468  0.00  0.00    +0.000 C 
BRANCH  21  22
ATOM     22  N   UNL     1      48.341   7.917  15.907  0.00  0.00    +0.000 N 
ATOM     23  C   UNL     1      49.443   8.403  16.570  0.00  0.00    +0.000 C 
ATOM     24  O   UNL     1      50.409   8.882  15.991  0.00  0.00    +0.000 OA
ATOM     25  H   UNL     1      47.485   7.748  16.418  0.00  0.00    +0.000 HD
BRANCH  23  26
ATOM     26  C   UNL     1      49.392   8.248  18.023  0.00  0.00    +0.000 A 
ATOM     27  C   UNL     1      49.119   9.326  18.855  0.00  0.00    +0.000 A 
ATOM     28  S   UNL     1      48.983   8.896  20.494  0.00  0.00    +0.000 S 
ATOM     29  C   UNL     1      49.285   7.261  20.140  0.00  0.00    +0.000 A 
ATOM     30  N   UNL     1      49.289   6.363  21.139  0.00  0.00    +0.000 NA
ATOM     31  C   UNL     1      49.568   5.127  20.730  0.00  0.00    +0.000 A 
ATOM     32  N   UNL     1      49.853   4.739  19.485  0.00  0.00    +0.000 NA
ATOM     33  C   UNL     1      49.827   5.682  18.530  0.00  0.00    +0.000 A 
ATOM     34 CL   UNL     1      50.337   5.177  16.992  0.00  0.00    +0.000 Cl
ATOM     35  C   UNL     1      49.522   7.018  18.791  0.00  0.00    +0.000 A 
ENDBRANCH  23  26
ENDBRANCH  21  22
ENDBRANCH   4  21
TORSDOF 9
ENDMDL
MODEL 9
REMARK VINA RESULT:    -6.641      3.112      7.605
REMARK INTER + INTRA:         -10.715
REMARK INTER:                  -9.018
REMARK INTRA:                  -1.697
REMARK UNBOUND:                -0.774
REMARK  Name = 
REMARK  9 active torsions:
REMARK  status: ('A' for Active; 'I' for Inactive)
REMARK    1  A    between atoms: N_1  and  C_2
REMARK    2  A    between atoms: C_2  and  C_3
REMARK    3  A    between atoms: C_3  and  N_4
REMARK    4  A    between atoms: C_3  and  C_26
REMARK    5  A    between atoms: N_4  and  C_5
REMARK    6  A    between atoms: C_5  and  C_6
REMARK    7  A    between atoms: C_9  and  C_10
REMARK    8  A    between atoms: C_10  and  N_11
REMARK    9  A    between atoms: C_12  and  C_14
REMARK                            x       y       z     vdW  Elec       q    Type
REMARK                         _______ _______ _______ _____ _____    ______ ____
ROOT
ATOM      1  C   UNL     1      49.576   7.985  16.857  0.00  0.00    +0.000 A 
ATOM      2  C   UNL     1      49.674   7.163  15.732  0.00  0.00    +0.000 A 
ATOM      3  C   UNL     1      49.094   7.562  14.532  0.00  0.00    +0.000 A 
ATOM      4  C   UNL     1      48.433   8.785  14.485  0.00  0.00    +0.000 A 
ATOM      5  N   UNL     1      48.301   9.592  15.570  0.00  0.00    +0.000 NA
ATOM      6  C   UNL     1      48.876   9.177  16.720  0.00  0.00    +0.000 A 
ENDROOT
BRANCH   1   7
ATOM      7  C   UNL     1      50.121   7.555  18.189  0.00  0.00    +0.000 C 
BRANCH   7   8
ATOM      8  N   UNL     1      49.117   6.863  18.997  0.00  0.00    +0.000 NA
ATOM      9  H   UNL     1      48.258   6.775  18.452  0.00  0.00    +0.000 HD
BRANCH   8  10
ATOM     10  C   UNL     1      49.548   5.508  19.395  0.00  0.00    +0.000 C 
BRANCH  10  11
ATOM     11  C   UNL     1      49.053   4.487  18.372  0.00  0.00    +0.000 A 
ATOM     12  C   UNL     1      47.759   4.598  17.833  0.00  0.00    +0.000 A 
ATOM     13  C   UNL     1      47.298   3.684  16.884  0.00  0.00    +0.000 A 
ATOM     14  C   UNL     1      48.126   2.645  16.456  0.00  0.00    +0.000 A 
ATOM     15  C   UNL     1      49.407   2.517  16.984  0.00  0.00    +0.000 A 
ATOM     16  C   UNL     1      49.871   3.430  17.934  0.00  0.00    +0.000 A 
ENDBRANCH  10  11
BRANCH  10  17
ATOM     17  C   UNL     1      49.103   5.123  20.845  0.00  0.00    +0.000 C 
BRANCH  17  18
ATOM     18  N   UNL     1      48.316   3.888  20.951  0.00  0.00    +0.000 NA
ATOM     19  H   UNL     1      47.565   3.922  20.260  0.00  0.00    +0.000 HD
ATOM     20  H   UNL     1      48.896   3.093  20.693  0.00  0.00    +0.000 HD
ENDBRANCH  17  18
ENDBRANCH  10  17
ENDBRANCH   8  10
ENDBRANCH   7   8
ENDBRANCH   1   7
BRANCH   4  21
ATOM     21  C   UNL     1      47.763   9.239  13.214  0.00  0.00    +0.000 C 
BRANCH  21  22
ATOM     22  N   UNL     1      46.570   8.464  12.945  0.00  0.00    +0.000 N 
ATOM     23  C   UNL     1      46.584   7.395  12.080  0.00  0.00    +0.000 C 
ATOM     24  O   UNL     1      47.575   7.071  11.439  0.00  0.00    +0.000 OA
ATOM     25  H   UNL     1      45.820   8.554  13.616  0.00  0.00    +0.000 HD
BRANCH  23  26
ATOM     26  C   UNL     1      45.299   6.709  11.946  0.00  0.00    +0.000 A 
ATOM     27  C   UNL     1      44.181   7.363  11.447  0.00  0.00    +0.000 A 
ATOM     28  S   UNL     1      42.833   6.344  11.259  0.00  0.00    +0.000 S 
ATOM     29  C   UNL     1      43.703   5.004  11.840  0.00  0.00    +0.000 A 
ATOM     30  N   UNL     1      43.096   3.808  11.911  0.00  0.00    +0.000 NA
ATOM     31  C   UNL     1      43.879   2.854  12.410  0.00  0.00    +0.000 A 
ATOM     32  N   UNL     1      45.134   2.990  12.844  0.00  0.00    +0.000 NA
ATOM     33  C   UNL     1      45.687   4.209  12.741  0.00  0.00    +0.000 A 
ATOM     34 CL   UNL     1      47.227   4.373  13.436  0.00  0.00    +0.000 Cl
ATOM     35  C   UNL     1      45.009   5.308  12.212  0.00  0.00    +0.000 A 
ENDBRANCH  23  26
ENDBRANCH  21  22
ENDBRANCH   4  21
TORSDOF 9
ENDMDL
