MODEL 1
REMARK VINA RESULT:    -8.661      0.000      0.000
REMARK INTER + INTRA:         -13.482
REMARK INTER:                 -12.205
REMARK INTRA:                  -1.278
REMARK UNBOUND:                -1.278
REMARK  Name = 
REMARK  9 active torsions:
REMARK  status: ('A' for Active; 'I' for Inactive)
REMARK    1  A    between atoms: C_1  and  C_2
REMARK    2  A    between atoms: C_2  and  N_3
REMARK    3  A    between atoms: C_2  and  C_17
REMARK    4  A    between atoms: C_4  and  C_6
REMARK    5  A    between atoms: N_12  and  C_13
REMARK    6  A    between atoms: C_20  and  C_21
REMARK    7  A    between atoms: C_21  and  N_22
REMARK    8  A    between atoms: N_22  and  C_23
REMARK    9  A    between atoms: C_23  and  C_24
REMARK                            x       y       z     vdW  Elec       q    Type
REMARK                         _______ _______ _______ _____ _____    ______ ____
ROOT
ATOM      1  C   UNL     1      45.836   9.031  12.886  0.00  0.00    +0.000 C 
ATOM      2  C   UNL     1      46.783   7.828  12.840  0.00  0.00    +0.000 C 
ENDROOT
BRANCH   2   3
ATOM      3  C   UNL     1      46.074   6.576  12.349  0.00  0.00    +0.000 A 
ATOM      4  C   UNL     1      45.671   5.588  13.260  0.00  0.00    +0.000 A 
ATOM      5  C   UNL     1      44.961   4.462  12.826  0.00  0.00    +0.000 A 
ATOM      6  C   UNL     1      44.625   4.300  11.474  0.00  0.00    +0.000 A 
ATOM      7  C   UNL     1      45.056   5.268  10.558  0.00  0.00    +0.000 A 
ATOM      8  C   UNL     1      45.769   6.390  10.990  0.00  0.00    +0.000 A 
BRANCH   6   9
ATOM      9  C   UNL     1      43.798   3.120  11.015  0.00  0.00    +0.000 C 
BRANCH   9  10
ATOM     10  N   UNL     1      43.850   2.987   9.560  0.00  0.00    +0.000 NA
ATOM     11  H   UNL     1      44.379   3.773   9.179  0.00  0.00    +0.000 HD
BRANCH  10  12
ATOM     12  C   UNL     1      44.524   1.747   9.155  0.00  0.00    +0.000 C 
BRANCH  12  13
ATOM     13  C   UNL     1      45.686   2.013   8.214  0.00  0.00    +0.000 A 
ATOM     14  C   UNL     1      45.827   3.263   7.610  0.00  0.00    +0.000 A 
ATOM     15  C   UNL     1      46.908   3.485   6.761  0.00  0.00    +0.000 A 
ATOM     16  C   UNL     1      47.816   2.458   6.533  0.00  0.00    +0.000 A 
ATOM     17  C   UNL     1      47.604   1.247   7.169  0.00  0.00    +0.000 A 
ATOM     18  N   UNL     1      46.567   1.001   8.002  0.00  0.00    +0.000 NA
ENDBRANCH  12  13
ENDBRANCH  10  12
ENDBRANCH   9  10
ENDBRANCH   6   9
ENDBRANCH   2   3
BRANCH   2  19
ATOM     19  N   UNL     1      47.361   7.580  14.151  0.00  0.00    +0.000 N 
ATOM     20  C   UNL     1      48.619   7.073  14.340  0.00  0.00    +0.000 C 
ATOM     21  O   UNL     1      49.314   6.669  13.413  0.00  0.00    +0.000 OA
ATOM     22  H   UNL     1      46.902   8.039  14.931  0.00  0.00    +0.000 HD
BRANCH  20  23
ATOM     23  C   UNL     1      49.088   7.003  15.733  0.00  0.00    +0.000 A 
ATOM     24  C   UNL     1      49.814   8.055  16.275  0.00  0.00    +0.000 A 
ATOM     25  S   UNL     1      50.237   7.820  17.912  0.00  0.00    +0.000 S 
ATOM     26  C   UNL     1      49.436   6.319  17.960  0.00  0.00    +0.000 A 
ATOM     27  N   UNL     1      49.369   5.600  19.110  0.00  0.00    +0.000 NA
ATOM     28  C   UNL     1      48.712   4.491  19.012  0.00  0.00    +0.000 A 
ATOM     29  N   UNL     1      48.124   4.009  17.863  0.00  0.00    +0.000 N 
ATOM     30  C   UNL     1      47.451   2.728  17.854  0.00  0.00    +0.000 C 
ATOM     31  C   UNL     1      48.209   4.701  16.657  0.00  0.00    +0.000 A 
ATOM     32  O   UNL     1      47.766   4.252  15.605  0.00  0.00    +0.000 OA
ATOM     33  C   UNL     1      48.897   5.979  16.736  0.00  0.00    +0.000 A 
ENDBRANCH  20  23
ENDBRANCH   2  19
TORSDOF 7
ENDMDL
MODEL 2
REMARK VINA RESULT:    -7.797      1.902      2.829
REMARK INTER + INTRA:         -12.265
REMARK INTER:                 -10.957
REMARK INTRA:                  -1.308
REMARK UNBOUND:                -1.278
REMARK  Name = 
REMARK  9 active torsions:
REMARK  status: ('A' for Active; 'I' for Inactive)
REMARK    1  A    between atoms: C_1  and  C_2
REMARK    2  A    between atoms: C_2  and  N_3
REMARK    3  A    between atoms: C_2  and  C_17
REMARK    4  A    between atoms: C_4  and  C_6
REMARK    5  A    between atoms: N_12  and  C_13
REMARK    6  A    between atoms: C_20  and  C_21
REMARK    7  A    between atoms: C_21  and  N_22
REMARK    8  A    between atoms: N_22  and  C_23
REMARK    9  A    between atoms: C_23  and  C_24
REMARK                            x       y       z     vdW  Elec       q    Type
REMARK                         _______ _______ _______ _____ _____    ______ ____
ROOT
ATOM      1  C   UNL     1      47.278   8.877  13.004  0.00  0.00    +0.000 C 
ATOM      2  C   UNL     1      47.591   7.387  13.169  0.00  0.00    +0.000 C 
ENDROOT
BRANCH   2   3
ATOM      3  C   UNL     1      46.477   6.517  12.608  0.00  0.00    +0.000 A 
ATOM      4  C   UNL     1      46.210   6.509  11.231  0.00  0.00    +0.000 A 
ATOM      5  C   UNL     1      45.229   5.664  10.698  0.00  0.00    +0.000 A 
ATOM      6  C   UNL     1      44.498   4.798  11.524  0.00  0.00    +0.000 A 
ATOM      7  C   UNL     1      44.739   4.828  12.903  0.00  0.00    +0.000 A 
ATOM      8  C   UNL     1      45.715   5.675  13.437  0.00  0.00    +0.000 A 
BRANCH   6   9
ATOM      9  C   UNL     1      43.488   3.835  10.940  0.00  0.00    +0.000 C 
BRANCH   9  10
ATOM     10  N   UNL     1      43.837   3.492   9.562  0.00  0.00    +0.000 NA
ATOM     11  H   UNL     1      44.374   4.263   9.161  0.00  0.00    +0.000 HD
BRANCH  10  12
ATOM     12  C   UNL     1      44.665   2.282   9.500  0.00  0.00    +0.000 C 
BRANCH  12  13
ATOM     13  C   UNL     1      45.699   2.357   8.391  0.00  0.00    +0.000 A 
ATOM     14  C   UNL     1      46.426   1.222   8.031  0.00  0.00    +0.000 A 
ATOM     15  C   UNL     1      47.361   1.314   7.004  0.00  0.00    +0.000 A 
ATOM     16  C   UNL     1      47.549   2.534   6.364  0.00  0.00    +0.000 A 
ATOM     17  C   UNL     1      46.789   3.613   6.780  0.00  0.00    +0.000 A 
ATOM     18  N   UNL     1      45.871   3.554   7.772  0.00  0.00    +0.000 NA
ENDBRANCH  12  13
ENDBRANCH  10  12
ENDBRANCH   9  10
ENDBRANCH   6   9
ENDBRANCH   2   3
BRANCH   2  19
ATOM     19  N   UNL     1      47.809   7.060  14.568  0.00  0.00    +0.000 N 
ATOM     20  C   UNL     1      49.050   6.984  15.142  0.00  0.00    +0.000 C 
ATOM     21  O   UNL     1      50.086   7.063  14.489  0.00  0.00    +0.000 OA
ATOM     22  H   UNL     1      47.000   7.144  15.174  0.00  0.00    +0.000 HD
BRANCH  20  23
ATOM     23  C   UNL     1      49.080   6.763  16.597  0.00  0.00    +0.000 A 
ATOM     24  C   UNL     1      49.592   5.580  17.110  0.00  0.00    +0.000 A 
ATOM     25  S   UNL     1      49.588   5.517  18.816  0.00  0.00    +0.000 S 
ATOM     26  C   UNL     1      48.930   7.083  18.926  0.00  0.00    +0.000 A 
ATOM     27  N   UNL     1      48.720   7.669  20.133  0.00  0.00    +0.000 NA
ATOM     28  C   UNL     1      48.238   8.866  20.072  0.00  0.00    +0.000 A 
ATOM     29  N   UNL     1      47.921   9.542  18.914  0.00  0.00    +0.000 N 
ATOM     30  C   UNL     1      47.341  10.867  18.962  0.00  0.00    +0.000 C 
ATOM     31  C   UNL     1      48.086   8.955  17.661  0.00  0.00    +0.000 A 
ATOM     32  O   UNL     1      47.733   9.505  16.623  0.00  0.00    +0.000 OA
ATOM     33  C   UNL     1      48.672   7.626  17.684  0.00  0.00    +0.000 A 
ENDBRANCH  20  23
ENDBRANCH   2  19
TORSDOF 7
ENDMDL
MODEL 3
REMARK VINA RESULT:    -7.235      2.111      3.321
REMARK INTER + INTRA:         -11.473
REMARK INTER:                 -10.293
REMARK INTRA:                  -1.180
REMARK UNBOUND:                -1.278
REMARK  Name = 
REMARK  9 active torsions:
REMARK  status: ('A' for Active; 'I' for Inactive)
REMARK    1  A    between atoms: C_1  and  C_2
REMARK    2  A    between atoms: C_2  and  N_3
REMARK    3  A    between atoms: C_2  and  C_17
REMARK    4  A    between atoms: C_4  and  C_6
REMARK    5  A    between atoms: N_12  and  C_13
REMARK    6  A    between atoms: C_20  and  C_21
REMARK    7  A    between atoms: C_21  and  N_22
REMARK    8  A    between atoms: N_22  and  C_23
REMARK    9  A    between atoms: C_23  and  C_24
REMARK                            x       y       z     vdW  Elec       q    Type
REMARK                         _______ _______ _______ _____ _____    ______ ____
ROOT
ATOM      1  C   UNL     1      47.909   3.019  15.632  0.00  0.00    +0.000 C 
ATOM      2  C   UNL     1      47.153   4.350  15.654  0.00  0.00    +0.000 C 
ENDROOT
BRANCH   2   3
ATOM      3  C   UNL     1      46.694   4.756  14.263  0.00  0.00    +0.000 A 
ATOM      4  C   UNL     1      45.632   4.081  13.643  0.00  0.00    +0.000 A 
ATOM      5  C   UNL     1      45.161   4.487  12.389  0.00  0.00    +0.000 A 
ATOM      6  C   UNL     1      45.730   5.585  11.727  0.00  0.00    +0.000 A 
ATOM      7  C   UNL     1      46.812   6.239  12.328  0.00  0.00    +0.000 A 
ATOM      8  C   UNL     1      47.287   5.831  13.578  0.00  0.00    +0.000 A 
BRANCH   6   9
ATOM      9  C   UNL     1      45.176   6.068  10.405  0.00  0.00    +0.000 C 
BRANCH   9  10
ATOM     10  N   UNL     1      45.828   5.383   9.290  0.00  0.00    +0.000 NA
ATOM     11  H   UNL     1      46.706   4.981   9.623  0.00  0.00    +0.000 HD
BRANCH  10  12
ATOM     12  C   UNL     1      44.997   4.292   8.767  0.00  0.00    +0.000 C 
BRANCH  12  13
ATOM     13  C   UNL     1      45.832   3.213   8.100  0.00  0.00    +0.000 A 
ATOM     14  C   UNL     1      46.709   3.542   7.067  0.00  0.00    +0.000 A 
ATOM     15  C   UNL     1      47.471   2.536   6.479  0.00  0.00    +0.000 A 
ATOM     16  C   UNL     1      47.337   1.229   6.933  0.00  0.00    +0.000 A 
ATOM     17  C   UNL     1      46.443   0.984   7.961  0.00  0.00    +0.000 A 
ATOM     18  N   UNL     1      45.692   1.940   8.555  0.00  0.00    +0.000 NA
ENDBRANCH  12  13
ENDBRANCH  10  12
ENDBRANCH   9  10
ENDBRANCH   6   9
ENDBRANCH   2   3
BRANCH   2  19
ATOM     19  N   UNL     1      47.982   5.401  16.221  0.00  0.00    +0.000 N 
ATOM     20  C   UNL     1      47.978   5.735  17.549  0.00  0.00    +0.000 C 
ATOM     21  O   UNL     1      47.179   5.255  18.348  0.00  0.00    +0.000 OA
ATOM     22  H   UNL     1      48.760   5.709  15.648  0.00  0.00    +0.000 HD
BRANCH  20  23
ATOM     23  C   UNL     1      48.970   6.737  17.970  0.00  0.00    +0.000 A 
ATOM     24  C   UNL     1      48.550   7.962  18.469  0.00  0.00    +0.000 A 
ATOM     25  S   UNL     1      49.834   8.980  18.948  0.00  0.00    +0.000 S 
ATOM     26  C   UNL     1      50.993   7.804  18.534  0.00  0.00    +0.000 A 
ATOM     27  N   UNL     1      52.316   8.022  18.747  0.00  0.00    +0.000 NA
ATOM     28  C   UNL     1      53.084   7.039  18.408  0.00  0.00    +0.000 A 
ATOM     29  N   UNL     1      52.662   5.851  17.852  0.00  0.00    +0.000 N 
ATOM     30  C   UNL     1      53.614   4.832  17.466  0.00  0.00    +0.000 C 
ATOM     31  C   UNL     1      51.316   5.611  17.581  0.00  0.00    +0.000 A 
ATOM     32  O   UNL     1      50.928   4.598  17.010  0.00  0.00    +0.000 OA
ATOM     33  C   UNL     1      50.414   6.673  17.994  0.00  0.00    +0.000 A 
ENDBRANCH  20  23
ENDBRANCH   2  19
TORSDOF 7
ENDMDL
MODEL 4
REMARK VINA RESULT:    -7.132      2.615      8.406
REMARK INTER + INTRA:         -11.329
REMARK INTER:                  -9.775
REMARK INTRA:                  -1.554
REMARK UNBOUND:                -1.278
REMARK  Name = 
REMARK  9 active torsions:
REMARK  status: ('A' for Active; 'I' for Inactive)
REMARK    1  A    between atoms: C_1  and  C_2
REMARK    2  A    between atoms: C_2  and  N_3
REMARK    3  A    between atoms: C_2  and  C_17
REMARK    4  A    between atoms: C_4  and  C_6
REMARK    5  A    between atoms: N_12  and  C_13
REMARK    6  A    between atoms: C_20  and  C_21
REMARK    7  A    between atoms: C_21  and  N_22
REMARK    8  A    between atoms: N_22  and  C_23
REMARK    9  A    between atoms: C_23  and  C_24
REMARK                            x       y       z     vdW  Elec       q    Type
REMARK                         _______ _______ _______ _____ _____    ______ ____
ROOT
ATOM      1  C   UNL     1      48.830   7.979  11.383  0.00  0.00    +0.000 C 
ATOM      2  C   UNL     1      47.759   7.986  12.478  0.00  0.00    +0.000 C 
ENDROOT
BRANCH   2   3
ATOM      3  C   UNL     1      48.376   8.092  13.863  0.00  0.00    +0.000 A 
ATOM      4  C   UNL     1      47.825   8.959  14.818  0.00  0.00    +0.000 A 
ATOM      5  C   UNL     1      48.347   9.017  16.116  0.00  0.00    +0.000 A 
ATOM      6  C   UNL     1      49.424   8.204  16.496  0.00  0.00    +0.000 A 
ATOM      7  C   UNL     1      49.998   7.363  15.535  0.00  0.00    +0.000 A 
ATOM      8  C   UNL     1      49.481   7.307  14.238  0.00  0.00    +0.000 A 
BRANCH   6   9
ATOM      9  C   UNL     1      49.943   8.215  17.917  0.00  0.00    +0.000 C 
BRANCH   9  10
ATOM     10  N   UNL     1      50.386   6.880  18.317  0.00  0.00    +0.000 NA
ATOM     11  H   UNL     1      51.126   6.977  19.014  0.00  0.00    +0.000 HD
BRANCH  10  12
ATOM     12  C   UNL     1      49.293   6.106  18.918  0.00  0.00    +0.000 C 
BRANCH  12  13
ATOM     13  C   UNL     1      48.954   4.872  18.101  0.00  0.00    +0.000 A 
ATOM     14  C   UNL     1      47.807   4.849  17.308  0.00  0.00    +0.000 A 
ATOM     15  C   UNL     1      47.525   3.709  16.560  0.00  0.00    +0.000 A 
ATOM     16  C   UNL     1      48.389   2.623  16.624  0.00  0.00    +0.000 A 
ATOM     17  C   UNL     1      49.505   2.724  17.435  0.00  0.00    +0.000 A 
ATOM     18  N   UNL     1      49.809   3.818  18.171  0.00  0.00    +0.000 NA
ENDBRANCH  12  13
ENDBRANCH  10  12
ENDBRANCH   9  10
ENDBRANCH   6   9
ENDBRANCH   2   3
BRANCH   2  19
ATOM     19  N   UNL     1      46.939   6.789  12.399  0.00  0.00    +0.000 N 
ATOM     20  C   UNL     1      45.684   6.765  11.850  0.00  0.00    +0.000 C 
ATOM     21  O   UNL     1      45.102   7.785  11.492  0.00  0.00    +0.000 OA
ATOM     22  H   UNL     1      47.426   5.908  12.528  0.00  0.00    +0.000 HD
BRANCH  20  23
ATOM     23  C   UNL     1      45.047   5.444  11.741  0.00  0.00    +0.000 A 
ATOM     24  C   UNL     1      44.324   4.931  12.809  0.00  0.00    +0.000 A 
ATOM     25  S   UNL     1      43.619   3.410  12.489  0.00  0.00    +0.000 S 
ATOM     26  C   UNL     1      44.232   3.399  10.901  0.00  0.00    +0.000 A 
ATOM     27  N   UNL     1      43.946   2.381  10.048  0.00  0.00    +0.000 NA
ATOM     28  C   UNL     1      44.456   2.511   8.868  0.00  0.00    +0.000 A 
ATOM     29  N   UNL     1      45.249   3.557   8.450  0.00  0.00    +0.000 N 
ATOM     30  C   UNL     1      45.808   3.579   7.115  0.00  0.00    +0.000 C 
ATOM     31  C   UNL     1      45.595   4.597   9.310  0.00  0.00    +0.000 A 
ATOM     32  O   UNL     1      46.367   5.493   8.986  0.00  0.00    +0.000 OA
ATOM     33  C   UNL     1      45.001   4.514  10.634  0.00  0.00    +0.000 A 
ENDBRANCH  20  23
ENDBRANCH   2  19
TORSDOF 7
ENDMDL
MODEL 5
REMARK VINA RESULT:    -6.990      3.568      4.611
REMARK INTER + INTRA:         -11.128
REMARK INTER:                  -9.696
REMARK INTRA:                  -1.433
REMARK UNBOUND:                -1.278
REMARK  Name = 
REMARK  9 active torsions:
REMARK  status: ('A' for Active; 'I' for Inactive)
REMARK    1  A    between atoms: C_1  and  C_2
REMARK    2  A    between atoms: C_2  and  N_3
REMARK    3  A    between atoms: C_2  and  C_17
REMARK    4  A    between atoms: C_4  and  C_6
REMARK    5  A    between atoms: N_12  and  C_13
REMARK    6  A    between atoms: C_20  and  C_21
REMARK    7  A    between atoms: C_21  and  N_22
REMARK    8  A    between atoms: N_22  and  C_23
REMARK    9  A    between atoms: C_23  and  C_24
REMARK                            x       y       z     vdW  Elec       q    Type
REMARK                         _______ _______ _______ _____ _____    ______ ____
ROOT
ATOM      1  C   UNL     1      47.885   8.507  14.388  0.00  0.00    +0.000 C 
ATOM      2  C   UNL     1      48.012   8.138  12.908  0.00  0.00    +0.000 C 
ENDROOT
BRANCH   2   3
ATOM      3  C   UNL     1      47.199   6.899  12.569  0.00  0.00    +0.000 A 
ATOM      4  C   UNL     1      47.104   5.842  13.486  0.00  0.00    +0.000 A 
ATOM      5  C   UNL     1      46.307   4.725  13.211  0.00  0.00    +0.000 A 
ATOM      6  C   UNL     1      45.575   4.640  12.018  0.00  0.00    +0.000 A 
ATOM      7  C   UNL     1      45.695   5.677  11.085  0.00  0.00    +0.000 A 
ATOM      8  C   UNL     1      46.494   6.791  11.358  0.00  0.00    +0.000 A 
BRANCH   6   9
ATOM      9  C   UNL     1      44.658   3.466  11.750  0.00  0.00    +0.000 C 
BRANCH   9  10
ATOM     10  N   UNL     1      44.195   3.478  10.364  0.00  0.00    +0.000 NA
ATOM     11  H   UNL     1      44.717   4.191   9.851  0.00  0.00    +0.000 HD
BRANCH  10  12
ATOM     12  C   UNL     1      44.426   2.186   9.706  0.00  0.00    +0.000 C 
BRANCH  12  13
ATOM     13  C   UNL     1      45.483   2.282   8.620  0.00  0.00    +0.000 A 
ATOM     14  C   UNL     1      45.727   3.500   7.985  0.00  0.00    +0.000 A 
ATOM     15  C   UNL     1      46.710   3.564   7.001  0.00  0.00    +0.000 A 
ATOM     16  C   UNL     1      47.420   2.415   6.673  0.00  0.00    +0.000 A 
ATOM     17  C   UNL     1      47.116   1.246   7.348  0.00  0.00    +0.000 A 
ATOM     18  N   UNL     1      46.171   1.152   8.311  0.00  0.00    +0.000 NA
ENDBRANCH  12  13
ENDBRANCH  10  12
ENDBRANCH   9  10
ENDBRANCH   6   9
ENDBRANCH   2   3
BRANCH   2  19
ATOM     19  N   UNL     1      49.404   7.921  12.551  0.00  0.00    +0.000 N 
ATOM     20  C   UNL     1      50.121   8.771  11.751  0.00  0.00    +0.000 C 
ATOM     21  O   UNL     1      49.607   9.720  11.168  0.00  0.00    +0.000 OA
ATOM     22  H   UNL     1      49.910   7.255  13.125  0.00  0.00    +0.000 HD
BRANCH  20  23
ATOM     23  C   UNL     1      51.552   8.463  11.595  0.00  0.00    +0.000 A 
ATOM     24  C   UNL     1      52.079   8.234  10.332  0.00  0.00    +0.000 A 
ATOM     25  S   UNL     1      53.760   7.936  10.337  0.00  0.00    +0.000 S 
ATOM     26  C   UNL     1      53.845   8.136  12.026  0.00  0.00    +0.000 A 
ATOM     27  N   UNL     1      55.033   8.061  12.679  0.00  0.00    +0.000 NA
ATOM     28  C   UNL     1      54.957   8.253  13.955  0.00  0.00    +0.000 A 
ATOM     29  N   UNL     1      53.798   8.496  14.659  0.00  0.00    +0.000 N 
ATOM     30  C   UNL     1      53.820   8.652  16.097  0.00  0.00    +0.000 C 
ATOM     31  C   UNL     1      52.557   8.538  14.026  0.00  0.00    +0.000 A 
ATOM     32  O   UNL     1      51.505   8.669  14.642  0.00  0.00    +0.000 OA
ATOM     33  C   UNL     1      52.605   8.376  12.582  0.00  0.00    +0.000 A 
ENDBRANCH  20  23
ENDBRANCH   2  19
TORSDOF 7
ENDMDL
MODEL 6
REMARK VINA RESULT:    -6.596      2.213      3.327
REMARK INTER + INTRA:         -10.573
REMARK INTER:                 -10.333
REMARK INTRA:                  -0.240
REMARK UNBOUND:                -1.278
REMARK  Name = 
REMARK  9 active torsions:
REMARK  status: ('A' for Active; 'I' for Inactive)
REMARK    1  A    between atoms: C_1  and  C_2
REMARK    2  A    between atoms: C_2  and  N_3
REMARK    3  A    between atoms: C_2  and  C_17
REMARK    4  A    between atoms: C_4  and  C_6
REMARK    5  A    between atoms: N_12  and  C_13
REMARK    6  A    between atoms: C_20  and  C_21
REMARK    7  A    between atoms: C_21  and  N_22
REMARK    8  A    between atoms: N_22  and  C_23
REMARK    9  A    between atoms: C_23  and  C_24
REMARK                            x       y       z     vdW  Elec       q    Type
REMARK                         _______ _______ _______ _____ _____    ______ ____
ROOT
ATOM      1  C   UNL     1      45.978   9.207  13.099  0.00  0.00    +0.000 C 
ATOM      2  C   UNL     1      46.805   8.102  12.435  0.00  0.00    +0.000 C 
ENDROOT
BRANCH   2   3
ATOM      3  C   UNL     1      45.933   6.931  12.009  0.00  0.00    +0.000 A 
ATOM      4  C   UNL     1      46.166   6.283  10.787  0.00  0.00    +0.000 A 
ATOM      5  C   UNL     1      45.410   5.166  10.415  0.00  0.00    +0.000 A 
ATOM      6  C   UNL     1      44.410   4.660  11.258  0.00  0.00    +0.000 A 
ATOM      7  C   UNL     1      44.152   5.326  12.462  0.00  0.00    +0.000 A 
ATOM      8  C   UNL     1      44.903   6.444  12.832  0.00  0.00    +0.000 A 
BRANCH   6   9
ATOM      9  C   UNL     1      43.641   3.411  10.888  0.00  0.00    +0.000 C 
BRANCH   9  10
ATOM     10  N   UNL     1      43.826   3.089   9.474  0.00  0.00    +0.000 NA
ATOM     11  H   UNL     1      44.333   3.856   9.029  0.00  0.00    +0.000 HD
BRANCH  10  12
ATOM     12  C   UNL     1      44.611   1.862   9.298  0.00  0.00    +0.000 C 
BRANCH  12  13
ATOM     13  C   UNL     1      45.704   2.031   8.257  0.00  0.00    +0.000 A 
ATOM     14  C   UNL     1      45.852   3.246   7.587  0.00  0.00    +0.000 A 
ATOM     15  C   UNL     1      46.869   3.379   6.645  0.00  0.00    +0.000 A 
ATOM     16  C   UNL     1      47.707   2.300   6.392  0.00  0.00    +0.000 A 
ATOM     17  C   UNL     1      47.493   1.128   7.098  0.00  0.00    +0.000 A 
ATOM     18  N   UNL     1      46.517   0.969   8.021  0.00  0.00    +0.000 NA
ENDBRANCH  12  13
ENDBRANCH  10  12
ENDBRANCH   9  10
ENDBRANCH   6   9
ENDBRANCH   2   3
BRANCH   2  19
ATOM     19  N   UNL     1      47.848   7.633  13.332  0.00  0.00    +0.000 N 
ATOM     20  C   UNL     1      48.474   8.434  14.250  0.00  0.00    +0.000 C 
ATOM     21  O   UNL     1      48.290   9.646  14.302  0.00  0.00    +0.000 OA
ATOM     22  H   UNL     1      47.920   6.627  13.440  0.00  0.00    +0.000 HD
BRANCH  20  23
ATOM     23  C   UNL     1      49.417   7.765  15.160  0.00  0.00    +0.000 A 
ATOM     24  C   UNL     1      48.941   7.046  16.248  0.00  0.00    +0.000 A 
ATOM     25  S   UNL     1      50.173   6.303  17.166  0.00  0.00    +0.000 S 
ATOM     26  C   UNL     1      51.382   6.890  16.121  0.00  0.00    +0.000 A 
ATOM     27  N   UNL     1      52.687   6.569  16.312  0.00  0.00    +0.000 NA
ATOM     28  C   UNL     1      53.496   7.063  15.434  0.00  0.00    +0.000 A 
ATOM     29  N   UNL     1      53.133   7.873  14.380  0.00  0.00    +0.000 N 
ATOM     30  C   UNL     1      54.130   8.412  13.480  0.00  0.00    +0.000 C 
ATOM     31  C   UNL     1      51.809   8.256  14.179  0.00  0.00    +0.000 A 
ATOM     32  O   UNL     1      51.475   9.043  13.299  0.00  0.00    +0.000 OA
ATOM     33  C   UNL     1      50.860   7.681  15.117  0.00  0.00    +0.000 A 
ENDBRANCH  20  23
ENDBRANCH   2  19
TORSDOF 7
ENDMDL
MODEL 7
REMARK VINA RESULT:    -6.468      2.788      3.683
REMARK INTER + INTRA:         -10.393
REMARK INTER:                  -9.188
REMARK INTRA:                  -1.204
REMARK UNBOUND:                -1.278
REMARK  Name = 
REMARK  9 active torsions:
REMARK  status: ('A' for Active; 'I' for Inactive)
REMARK    1  A    between atoms: C_1  and  C_2
REMARK    2  A    between atoms: C_2  and  N_3
REMARK    3  A    between atoms: C_2  and  C_17
REMARK    4  A    between atoms: C_4  and  C_6
REMARK    5  A    between atoms: N_12  and  C_13
REMARK    6  A    between atoms: C_20  and  C_21
REMARK    7  A    between atoms: C_21  and  N_22
REMARK    8  A    between atoms: N_22  and  C_23
REMARK    9  A    between atoms: C_23  and  C_24
REMARK                            x       y       z     vdW  Elec       q    Type
REMARK                         _______ _______ _______ _____ _____    ______ ____
ROOT
ATOM      1  C   UNL     1      45.802   9.012  13.329  0.00  0.00    +0.000 C 
ATOM      2  C   UNL     1      46.342   8.394  12.036  0.00  0.00    +0.000 C 
ENDROOT
BRANCH   2   3
ATOM      3  C   UNL     1      45.646   7.082  11.711  0.00  0.00    +0.000 A 
ATOM      4  C   UNL     1      46.031   6.336  10.587  0.00  0.00    +0.000 A 
ATOM      5  C   UNL     1      45.440   5.097  10.315  0.00  0.00    +0.000 A 
ATOM      6  C   UNL     1      44.458   4.565  11.164  0.00  0.00    +0.000 A 
ATOM      7  C   UNL     1      44.048   5.323  12.267  0.00  0.00    +0.000 A 
ATOM      8  C   UNL     1      44.633   6.563  12.537  0.00  0.00    +0.000 A 
BRANCH   6   9
ATOM      9  C   UNL     1      43.869   3.195  10.909  0.00  0.00    +0.000 C 
BRANCH   9  10
ATOM     10  N   UNL     1      43.974   2.842   9.494  0.00  0.00    +0.000 NA
ATOM     11  H   UNL     1      44.312   3.657   8.979  0.00  0.00    +0.000 HD
BRANCH  10  12
ATOM     12  C   UNL     1      44.924   1.744   9.280  0.00  0.00    +0.000 C 
BRANCH  12  13
ATOM     13  C   UNL     1      45.843   2.010   8.101  0.00  0.00    +0.000 A 
ATOM     14  C   UNL     1      46.739   1.029   7.675  0.00  0.00    +0.000 A 
ATOM     15  C   UNL     1      47.563   1.292   6.584  0.00  0.00    +0.000 A 
ATOM     16  C   UNL     1      47.477   2.526   5.950  0.00  0.00    +0.000 A 
ATOM     17  C   UNL     1      46.564   3.446   6.435  0.00  0.00    +0.000 A 
ATOM     18  N   UNL     1      45.747   3.219   7.489  0.00  0.00    +0.000 NA
ENDBRANCH  12  13
ENDBRANCH  10  12
ENDBRANCH   9  10
ENDBRANCH   6   9
ENDBRANCH   2   3
BRANCH   2  19
ATOM     19  N   UNL     1      47.775   8.176  12.132  0.00  0.00    +0.000 N 
ATOM     20  C   UNL     1      48.708   9.137  11.844  0.00  0.00    +0.000 C 
ATOM     21  O   UNL     1      48.408  10.224  11.361  0.00  0.00    +0.000 OA
ATOM     22  H   UNL     1      48.066   7.366  12.670  0.00  0.00    +0.000 HD
BRANCH  20  23
ATOM     23  C   UNL     1      50.110   8.782  12.115  0.00  0.00    +0.000 A 
ATOM     24  C   UNL     1      51.037   8.775  11.081  0.00  0.00    +0.000 A 
ATOM     25  S   UNL     1      52.620   8.384  11.586  0.00  0.00    +0.000 S 
ATOM     26  C   UNL     1      52.126   8.243  13.209  0.00  0.00    +0.000 A 
ATOM     27  N   UNL     1      53.024   7.972  14.191  0.00  0.00    +0.000 NA
ATOM     28  C   UNL     1      52.518   7.914  15.379  0.00  0.00    +0.000 A 
ATOM     29  N   UNL     1      51.187   8.082  15.690  0.00  0.00    +0.000 N 
ATOM     30  C   UNL     1      50.720   7.950  17.053  0.00  0.00    +0.000 C 
ATOM     31  C   UNL     1      50.233   8.320  14.702  0.00  0.00    +0.000 A 
ATOM     32  O   UNL     1      49.033   8.389  14.946  0.00  0.00    +0.000 OA
ATOM     33  C   UNL     1      50.768   8.442  13.357  0.00  0.00    +0.000 A 
ENDBRANCH  20  23
ENDBRANCH   2  19
TORSDOF 7
ENDMDL
