MODEL 1
REMARK VINA RESULT:    -7.478      0.000      0.000
REMARK INTER + INTRA:          -9.173
REMARK INTER:                  -8.789
REMARK INTRA:                  -0.384
REMARK UNBOUND:                -0.384
REMARK  Name = 
REMARK  3 active torsions:
REMARK  status: ('A' for Active; 'I' for Inactive)
REMARK    1  A    between atoms: C_2  and  C_4
REMARK    2  A    between atoms: N_11  and  C_12
REMARK    3  A    between atoms: C_12  and  C_13
REMARK                            x       y       z     vdW  Elec       q    Type
REMARK                         _______ _______ _______ _____ _____    ______ ____
ROOT
ATOM      1  C   UNL     1      46.196   6.524  12.616  0.00  0.00    +0.000 A 
ATOM      2  C   UNL     1      46.429   6.590  11.244  0.00  0.00    +0.000 A 
ATOM      3  N   UNL     1      45.912   5.752  10.309  0.00  0.00    +0.000 NA
ATOM      4  C   UNL     1      45.100   4.812  10.835  0.00  0.00    +0.000 A 
ATOM      5  C   UNL     1      44.770   4.649  12.181  0.00  0.00    +0.000 A 
ATOM      6  C   UNL     1      43.890   3.540  12.265  0.00  0.00    +0.000 A 
ATOM      7  C   UNL     1      43.727   3.040  10.991  0.00  0.00    +0.000 A 
ATOM      8  N   UNL     1      44.454   3.828  10.129  0.00  0.00    +0.000 N 
ATOM      9  C   UNL     1      45.334   5.541  13.109  0.00  0.00    +0.000 A 
ENDROOT
BRANCH   1  11
ATOM     10  N   UNL     1      46.249   8.730  13.642  0.00  0.00    +0.000 N 
ATOM     11  C   UNL     1      46.859   7.513  13.493  0.00  0.00    +0.000 C 
ATOM     12  O   UNL     1      47.901   7.254  14.080  0.00  0.00    +0.000 OA
ATOM     13  H   UNL     1      46.666   9.360  14.316  0.00  0.00    +0.000 HD
ATOM     14  H   UNL     1      45.290   8.904  13.376  0.00  0.00    +0.000 HD
ENDBRANCH   1  11
BRANCH   8  15
ATOM     15  C   UNL     1      44.620   3.567   8.711  0.00  0.00    +0.000 C 
BRANCH  15  16
ATOM     16  C   UNL     1      45.975   2.951   8.303  0.00  0.00    +0.000 C 
ATOM     17  C   UNL     1      46.426   3.438   6.914  0.00  0.00    +0.000 C 
ATOM     18  C   UNL     1      47.485   2.547   6.279  0.00  0.00    +0.000 C 
ATOM     19  O   UNL     1      47.059   1.188   6.282  0.00  0.00    +0.000 OA
ATOM     20  C   UNL     1      46.949   0.688   7.611  0.00  0.00    +0.000 C 
ATOM     21  C   UNL     1      45.843   1.417   8.359  0.00  0.00    +0.000 C 
ENDBRANCH  15  16
ENDBRANCH   8  15
TORSDOF 3
ENDMDL
MODEL 2
REMARK VINA RESULT:    -7.368      1.784      6.036
REMARK INTER + INTRA:          -9.044
REMARK INTER:                  -8.863
REMARK INTRA:                  -0.181
REMARK UNBOUND:                -0.384
REMARK  Name = 
REMARK  3 active torsions:
REMARK  status: ('A' for Active; 'I' for Inactive)
REMARK    1  A    between atoms: C_2  and  C_4
REMARK    2  A    between atoms: N_11  and  C_12
REMARK    3  A    between atoms: C_12  and  C_13
REMARK                            x       y       z     vdW  Elec       q    Type
REMARK                         _______ _______ _______ _____ _____    ______ ____
ROOT
ATOM      1  C   UNL     1      46.524   3.235   7.299  0.00  0.00    +0.000 A 
ATOM      2  C   UNL     1      46.669   4.556   7.718  0.00  0.00    +0.000 A 
ATOM      3  N   UNL     1      46.051   5.124   8.786  0.00  0.00    +0.000 NA
ATOM      4  C   UNL     1      45.257   4.262   9.455  0.00  0.00    +0.000 A 
ATOM      5  C   UNL     1      45.041   2.918   9.154  0.00  0.00    +0.000 A 
ATOM      6  C   UNL     1      44.138   2.411  10.124  0.00  0.00    +0.000 A 
ATOM      7  C   UNL     1      43.807   3.451  10.967  0.00  0.00    +0.000 A 
ATOM      8  N   UNL     1      44.503   4.566  10.561  0.00  0.00    +0.000 N 
ATOM      9  C   UNL     1      45.702   2.379   8.037  0.00  0.00    +0.000 A 
ENDROOT
BRANCH   1  11
ATOM     10  N   UNL     1      48.577   2.439   6.264  0.00  0.00    +0.000 N 
ATOM     11  C   UNL     1      47.263   2.789   6.099  0.00  0.00    +0.000 C 
ATOM     12  O   UNL     1      46.724   2.716   5.004  0.00  0.00    +0.000 OA
ATOM     13  H   UNL     1      49.041   2.049   5.453  0.00  0.00    +0.000 HD
ATOM     14  H   UNL     1      48.991   2.258   7.167  0.00  0.00    +0.000 HD
ENDBRANCH   1  11
BRANCH   8  15
ATOM     15  C   UNL     1      44.348   5.891  11.132  0.00  0.00    +0.000 C 
BRANCH  15  16
ATOM     16  C   UNL     1      45.327   6.242  12.273  0.00  0.00    +0.000 C 
ATOM     17  C   UNL     1      46.641   6.834  11.733  0.00  0.00    +0.000 C 
ATOM     18  C   UNL     1      47.784   6.775  12.737  0.00  0.00    +0.000 C 
ATOM     19  O   UNL     1      47.935   5.454  13.243  0.00  0.00    +0.000 OA
ATOM     20  C   UNL     1      46.796   5.063  14.004  0.00  0.00    +0.000 C 
ATOM     21  C   UNL     1      45.569   4.971  13.109  0.00  0.00    +0.000 C 
ENDBRANCH  15  16
ENDBRANCH   8  15
TORSDOF 3
ENDMDL
MODEL 3
REMARK VINA RESULT:    -6.468      2.202      2.947
REMARK INTER + INTRA:          -7.986
REMARK INTER:                  -7.990
REMARK INTRA:                   0.004
REMARK UNBOUND:                -0.384
REMARK  Name = 
REMARK  3 active torsions:
REMARK  status: ('A' for Active; 'I' for Inactive)
REMARK    1  A    between atoms: C_2  and  C_4
REMARK    2  A    between atoms: N_11  and  C_12
REMARK    3  A    between atoms: C_12  and  C_13
REMARK                            x       y       z     vdW  Elec       q    Type
REMARK                         _______ _______ _______ _____ _____    ______ ____
ROOT
ATOM      1  C   UNL     1      46.920   4.463  14.180  0.00  0.00    +0.000 A 
ATOM      2  C   UNL     1      46.335   3.322  13.638  0.00  0.00    +0.000 A 
ATOM      3  N   UNL     1      45.629   3.264  12.479  0.00  0.00    +0.000 NA
ATOM      4  C   UNL     1      45.547   4.456  11.852  0.00  0.00    +0.000 A 
ATOM      5  C   UNL     1      46.101   5.664  12.276  0.00  0.00    +0.000 A 
ATOM      6  C   UNL     1      45.763   6.643  11.306  0.00  0.00    +0.000 A 
ATOM      7  C   UNL     1      44.998   6.026  10.340  0.00  0.00    +0.000 A 
ATOM      8  N   UNL     1      44.885   4.695  10.673  0.00  0.00    +0.000 N 
ATOM      9  C   UNL     1      46.820   5.670  13.484  0.00  0.00    +0.000 A 
ENDROOT
BRANCH   1  11
ATOM     10  N   UNL     1      47.469   3.187  16.179  0.00  0.00    +0.000 N 
ATOM     11  C   UNL     1      47.640   4.344  15.466  0.00  0.00    +0.000 C 
ATOM     12  O   UNL     1      48.375   5.233  15.874  0.00  0.00    +0.000 OA
ATOM     13  H   UNL     1      48.040   3.084  17.008  0.00  0.00    +0.000 HD
ATOM     14  H   UNL     1      47.072   2.348  15.781  0.00  0.00    +0.000 HD
ENDBRANCH   1  11
BRANCH   8  15
ATOM     15  C   UNL     1      44.071   3.730   9.959  0.00  0.00    +0.000 C 
BRANCH  15  16
ATOM     16  C   UNL     1      44.700   3.149   8.675  0.00  0.00    +0.000 C 
ATOM     17  C   UNL     1      45.414   1.813   8.946  0.00  0.00    +0.000 C 
ATOM     18  C   UNL     1      46.411   1.433   7.860  0.00  0.00    +0.000 C 
ATOM     19  O   UNL     1      47.312   2.507   7.612  0.00  0.00    +0.000 OA
ATOM     20  C   UNL     1      46.631   3.632   7.068  0.00  0.00    +0.000 C 
ATOM     21  C   UNL     1      45.656   4.203   8.086  0.00  0.00    +0.000 C 
ENDBRANCH  15  16
ENDBRANCH   8  15
TORSDOF 3
ENDMDL
MODEL 4
REMARK VINA RESULT:    -5.999      4.412      6.076
REMARK INTER + INTRA:          -7.435
REMARK INTER:                  -7.048
REMARK INTRA:                  -0.387
REMARK UNBOUND:                -0.384
REMARK  Name = 
REMARK  3 active torsions:
REMARK  status: ('A' for Active; 'I' for Inactive)
REMARK    1  A    between atoms: C_2  and  C_4
REMARK    2  A    between atoms: N_11  and  C_12
REMARK    3  A    between atoms: C_12  and  C_13
REMARK                            x       y       z     vdW  Elec       q    Type
REMARK                         _______ _______ _______ _____ _____    ______ ____
ROOT
ATOM      1  C   UNL     1      48.430   4.621  17.865  0.00  0.00    +0.000 A 
ATOM      2  C   UNL     1      47.670   3.581  17.336  0.00  0.00    +0.000 A 
ATOM      3  N   UNL     1      47.149   3.535  16.082  0.00  0.00    +0.000 NA
ATOM      4  C   UNL     1      47.454   4.623  15.345  0.00  0.00    +0.000 A 
ATOM      5  C   UNL     1      48.217   5.719  15.747  0.00  0.00    +0.000 A 
ATOM      6  C   UNL     1      48.274   6.615  14.649  0.00  0.00    +0.000 A 
ATOM      7  C   UNL     1      47.531   6.067  13.625  0.00  0.00    +0.000 A 
ATOM      8  N   UNL     1      47.050   4.851  14.053  0.00  0.00    +0.000 N 
ATOM      9  C   UNL     1      48.731   5.719  17.055  0.00  0.00    +0.000 A 
ENDROOT
BRANCH   1  11
ATOM     10  N   UNL     1      48.384   3.497  20.024  0.00  0.00    +0.000 N 
ATOM     11  C   UNL     1      48.904   4.510  19.262  0.00  0.00    +0.000 C 
ATOM     12  O   UNL     1      49.739   5.277  19.719  0.00  0.00    +0.000 OA
ATOM     13  H   UNL     1      48.785   3.379  20.945  0.00  0.00    +0.000 HD
ATOM     14  H   UNL     1      47.883   2.713  19.632  0.00  0.00    +0.000 HD
ENDBRANCH   1  11
BRANCH   8  15
ATOM     15  C   UNL     1      46.138   4.011  13.299  0.00  0.00    +0.000 C 
BRANCH  15  16
ATOM     16  C   UNL     1      45.169   4.757  12.359  0.00  0.00    +0.000 C 
ATOM     17  C   UNL     1      43.825   5.058  13.048  0.00  0.00    +0.000 C 
ATOM     18  C   UNL     1      42.703   5.369  12.067  0.00  0.00    +0.000 C 
ATOM     19  O   UNL     1      42.607   4.349  11.080  0.00  0.00    +0.000 OA
ATOM     20  C   UNL     1      43.772   4.316  10.261  0.00  0.00    +0.000 C 
ATOM     21  C   UNL     1      44.985   3.911  11.085  0.00  0.00    +0.000 C 
ENDBRANCH  15  16
ENDBRANCH   8  15
TORSDOF 3
ENDMDL
MODEL 5
REMARK VINA RESULT:    -5.880      4.108      7.900
REMARK INTER + INTRA:          -7.295
REMARK INTER:                  -6.946
REMARK INTRA:                  -0.349
REMARK UNBOUND:                -0.384
REMARK  Name = 
REMARK  3 active torsions:
REMARK  status: ('A' for Active; 'I' for Inactive)
REMARK    1  A    between atoms: C_2  and  C_4
REMARK    2  A    between atoms: N_11  and  C_12
REMARK    3  A    between atoms: C_12  and  C_13
REMARK                            x       y       z     vdW  Elec       q    Type
REMARK                         _______ _______ _______ _____ _____    ______ ____
ROOT
ATOM      1  C   UNL     1      45.119   4.930  11.423  0.00  0.00    +0.000 A 
ATOM      2  C   UNL     1      44.916   4.051  12.484  0.00  0.00    +0.000 A 
ATOM      3  N   UNL     1      45.602   4.047  13.656  0.00  0.00    +0.000 NA
ATOM      4  C   UNL     1      46.533   5.021  13.725  0.00  0.00    +0.000 A 
ATOM      5  C   UNL     1      46.823   5.973  12.747  0.00  0.00    +0.000 A 
ATOM      6  C   UNL     1      47.867   6.789  13.252  0.00  0.00    +0.000 A 
ATOM      7  C   UNL     1      48.205   6.307  14.499  0.00  0.00    +0.000 A 
ATOM      8  N   UNL     1      47.380   5.243  14.782  0.00  0.00    +0.000 N 
ATOM      9  C   UNL     1      46.086   5.931  11.550  0.00  0.00    +0.000 A 
ENDROOT
BRANCH   1  11
ATOM     10  N   UNL     1      44.939   4.701   9.007  0.00  0.00    +0.000 N 
ATOM     11  C   UNL     1      44.288   4.777  10.209  0.00  0.00    +0.000 C 
ATOM     12  O   UNL     1      43.069   4.703  10.272  0.00  0.00    +0.000 OA
ATOM     13  H   UNL     1      44.364   4.505   8.198  0.00  0.00    +0.000 HD
ATOM     14  H   UNL     1      45.930   4.522   8.926  0.00  0.00    +0.000 HD
ENDBRANCH   1  11
BRANCH   8  15
ATOM     15  C   UNL     1      47.491   4.402  15.959  0.00  0.00    +0.000 C 
BRANCH  15  16
ATOM     16  C   UNL     1      48.275   5.010  17.141  0.00  0.00    +0.000 C 
ATOM     17  C   UNL     1      49.469   4.129  17.545  0.00  0.00    +0.000 C 
ATOM     18  C   UNL     1      49.989   4.426  18.945  0.00  0.00    +0.000 C 
ATOM     19  O   UNL     1      48.925   4.390  19.890  0.00  0.00    +0.000 OA
ATOM     20  C   UNL     1      47.989   5.436  19.647  0.00  0.00    +0.000 C 
ATOM     21  C   UNL     1      47.295   5.224  18.311  0.00  0.00    +0.000 C 
ENDBRANCH  15  16
ENDBRANCH   8  15
TORSDOF 3
ENDMDL
MODEL 6
REMARK VINA RESULT:    -5.775      3.161      6.471
REMARK INTER + INTRA:          -7.172
REMARK INTER:                  -6.806
REMARK INTRA:                  -0.365
REMARK UNBOUND:                -0.384
REMARK  Name = 
REMARK  3 active torsions:
REMARK  status: ('A' for Active; 'I' for Inactive)
REMARK    1  A    between atoms: C_2  and  C_4
REMARK    2  A    between atoms: N_11  and  C_12
REMARK    3  A    between atoms: C_12  and  C_13
REMARK                            x       y       z     vdW  Elec       q    Type
REMARK                         _______ _______ _______ _____ _____    ______ ____
ROOT
ATOM      1  C   UNL     1      44.907   3.951  11.352  0.00  0.00    +0.000 A 
ATOM      2  C   UNL     1      45.145   5.051  10.532  0.00  0.00    +0.000 A 
ATOM      3  N   UNL     1      45.924   6.120  10.841  0.00  0.00    +0.000 NA
ATOM      4  C   UNL     1      46.491   6.023  12.061  0.00  0.00    +0.000 A 
ATOM      5  C   UNL     1      46.351   4.973  12.968  0.00  0.00    +0.000 A 
ATOM      6  C   UNL     1      47.125   5.300  14.111  0.00  0.00    +0.000 A 
ATOM      7  C   UNL     1      47.691   6.537  13.890  0.00  0.00    +0.000 A 
ATOM      8  N   UNL     1      47.312   6.961  12.637  0.00  0.00    +0.000 N 
ATOM      9  C   UNL     1      45.531   3.892  12.601  0.00  0.00    +0.000 A 
ENDROOT
BRANCH   1  11
ATOM     10  N   UNL     1      44.460   2.126   9.806  0.00  0.00    +0.000 N 
ATOM     11  C   UNL     1      44.014   2.881  10.858  0.00  0.00    +0.000 C 
ATOM     12  O   UNL     1      42.928   2.662  11.375  0.00  0.00    +0.000 OA
ATOM     13  H   UNL     1      43.879   1.341   9.540  0.00  0.00    +0.000 HD
ATOM     14  H   UNL     1      45.424   2.112   9.506  0.00  0.00    +0.000 HD
ENDBRANCH   1  11
BRANCH   8  15
ATOM     15  C   UNL     1      47.620   8.263  12.076  0.00  0.00    +0.000 C 
BRANCH  15  16
ATOM     16  C   UNL     1      49.086   8.721  12.224  0.00  0.00    +0.000 C 
ATOM     17  C   UNL     1      49.280  10.170  11.744  0.00  0.00    +0.000 C 
ATOM     18  C   UNL     1      50.732  10.515  11.444  0.00  0.00    +0.000 C 
ATOM     19  O   UNL     1      51.300   9.554  10.560  0.00  0.00    +0.000 OA
ATOM     20  C   UNL     1      51.376   8.273  11.177  0.00  0.00    +0.000 C 
ATOM     21  C   UNL     1      49.981   7.734  11.451  0.00  0.00    +0.000 C 
ENDBRANCH  15  16
ENDBRANCH   8  15
TORSDOF 3
ENDMDL
MODEL 7
REMARK VINA RESULT:    -5.419      3.778      7.592
REMARK INTER + INTRA:          -6.753
REMARK INTER:                  -6.320
REMARK INTRA:                  -0.433
REMARK UNBOUND:                -0.384
REMARK  Name = 
REMARK  3 active torsions:
REMARK  status: ('A' for Active; 'I' for Inactive)
REMARK    1  A    between atoms: C_2  and  C_4
REMARK    2  A    between atoms: N_11  and  C_12
REMARK    3  A    between atoms: C_12  and  C_13
REMARK                            x       y       z     vdW  Elec       q    Type
REMARK                         _______ _______ _______ _____ _____    ______ ____
ROOT
ATOM      1  C   UNL     1      44.707   4.547  12.391  0.00  0.00    +0.000 A 
ATOM      2  C   UNL     1      45.893   4.103  12.971  0.00  0.00    +0.000 A 
ATOM      3  N   UNL     1      46.897   4.893  13.432  0.00  0.00    +0.000 NA
ATOM      4  C   UNL     1      46.638   6.209  13.293  0.00  0.00    +0.000 A 
ATOM      5  C   UNL     1      45.488   6.783  12.749  0.00  0.00    +0.000 A 
ATOM      6  C   UNL     1      45.654   8.191  12.808  0.00  0.00    +0.000 A 
ATOM      7  C   UNL     1      46.896   8.441  13.354  0.00  0.00    +0.000 A 
ATOM      8  N   UNL     1      47.478   7.232  13.658  0.00  0.00    +0.000 N 
ATOM      9  C   UNL     1      44.480   5.921  12.284  0.00  0.00    +0.000 A 
ENDROOT
BRANCH   1  11
ATOM     10  N   UNL     1      43.750   2.314  12.536  0.00  0.00    +0.000 N 
ATOM     11  C   UNL     1      43.727   3.540  11.927  0.00  0.00    +0.000 C 
ATOM     12  O   UNL     1      42.915   3.793  11.049  0.00  0.00    +0.000 OA
ATOM     13  H   UNL     1      43.015   1.670  12.273  0.00  0.00    +0.000 HD
ATOM     14  H   UNL     1      44.230   2.139  13.408  0.00  0.00    +0.000 HD
ENDBRANCH   1  11
BRANCH   8  15
ATOM     15  C   UNL     1      48.831   7.068  14.155  0.00  0.00    +0.000 C 
BRANCH  15  16
ATOM     16  C   UNL     1      49.015   7.292  15.671  0.00  0.00    +0.000 C 
ATOM     17  C   UNL     1      50.417   7.833  16.000  0.00  0.00    +0.000 C 
ATOM     18  C   UNL     1      50.806   7.646  17.460  0.00  0.00    +0.000 C 
ATOM     19  O   UNL     1      50.625   6.290  17.855  0.00  0.00    +0.000 OA
ATOM     20  C   UNL     1      49.248   5.927  17.822  0.00  0.00    +0.000 C 
ATOM     21  C   UNL     1      48.726   5.963  16.394  0.00  0.00    +0.000 C 
ENDBRANCH  15  16
ENDBRANCH   8  15
TORSDOF 3
ENDMDL
MODEL 8
REMARK VINA RESULT:    -5.262      3.036      5.013
REMARK INTER + INTRA:          -6.569
REMARK INTER:                  -6.155
REMARK INTRA:                  -0.414
REMARK UNBOUND:                -0.384
REMARK  Name = 
REMARK  3 active torsions:
REMARK  status: ('A' for Active; 'I' for Inactive)
REMARK    1  A    between atoms: C_2  and  C_4
REMARK    2  A    between atoms: N_11  and  C_12
REMARK    3  A    between atoms: C_12  and  C_13
REMARK                            x       y       z     vdW  Elec       q    Type
REMARK                         _______ _______ _______ _____ _____    ______ ____
ROOT
ATOM      1  C   UNL     1      49.650   8.374  12.056  0.00  0.00    +0.000 A 
ATOM      2  C   UNL     1      49.368   7.042  12.349  0.00  0.00    +0.000 A 
ATOM      3  N   UNL     1      48.133   6.520  12.568  0.00  0.00    +0.000 NA
ATOM      4  C   UNL     1      47.148   7.434  12.458  0.00  0.00    +0.000 A 
ATOM      5  C   UNL     1      47.292   8.787  12.152  0.00  0.00    +0.000 A 
ATOM      6  C   UNL     1      45.992   9.356  12.143  0.00  0.00    +0.000 A 
ATOM      7  C   UNL     1      45.099   8.357  12.466  0.00  0.00    +0.000 A 
ATOM      8  N   UNL     1      45.809   7.192  12.641  0.00  0.00    +0.000 N 
ATOM      9  C   UNL     1      48.591   9.278  11.937  0.00  0.00    +0.000 A 
ENDROOT
BRANCH   1  11
ATOM     10  N   UNL     1      52.011   8.078  12.564  0.00  0.00    +0.000 N 
ATOM     11  C   UNL     1      51.061   8.772  11.863  0.00  0.00    +0.000 C 
ATOM     12  O   UNL     1      51.375   9.672  11.098  0.00  0.00    +0.000 OA
ATOM     13  H   UNL     1      52.975   8.300  12.351  0.00  0.00    +0.000 HD
ATOM     14  H   UNL     1      51.828   7.192  13.015  0.00  0.00    +0.000 HD
ENDBRANCH   1  11
BRANCH   8  15
ATOM     15  C   UNL     1      45.239   5.935  13.090  0.00  0.00    +0.000 C 
BRANCH  15  16
ATOM     16  C   UNL     1      44.271   5.252  12.100  0.00  0.00    +0.000 C 
ATOM     17  C   UNL     1      43.854   3.853  12.586  0.00  0.00    +0.000 C 
ATOM     18  C   UNL     1      43.290   2.975  11.478  0.00  0.00    +0.000 C 
ATOM     19  O   UNL     1      44.182   2.937  10.369  0.00  0.00    +0.000 OA
ATOM     20  C   UNL     1      44.297   4.219   9.760  0.00  0.00    +0.000 C 
ATOM     21  C   UNL     1      44.951   5.202  10.718  0.00  0.00    +0.000 C 
ENDBRANCH  15  16
ENDBRANCH   8  15
TORSDOF 3
ENDMDL
MODEL 9
REMARK VINA RESULT:    -5.043      4.766      6.645
REMARK INTER + INTRA:          -6.311
REMARK INTER:                  -5.857
REMARK INTRA:                  -0.454
REMARK UNBOUND:                -0.384
REMARK  Name = 
REMARK  3 active torsions:
REMARK  status: ('A' for Active; 'I' for Inactive)
REMARK    1  A    between atoms: C_2  and  C_4
REMARK    2  A    between atoms: N_11  and  C_12
REMARK    3  A    between atoms: C_12  and  C_13
REMARK                            x       y       z     vdW  Elec       q    Type
REMARK                         _______ _______ _______ _____ _____    ______ ____
ROOT
ATOM      1  C   UNL     1      47.510   4.479  15.604  0.00  0.00    +0.000 A 
ATOM      2  C   UNL     1      48.263   5.627  15.837  0.00  0.00    +0.000 A 
ATOM      3  N   UNL     1      48.379   6.687  14.996  0.00  0.00    +0.000 NA
ATOM      4  C   UNL     1      47.658   6.543  13.865  0.00  0.00    +0.000 A 
ATOM      5  C   UNL     1      46.852   5.458  13.519  0.00  0.00    +0.000 A 
ATOM      6  C   UNL     1      46.291   5.743  12.247  0.00  0.00    +0.000 A 
ATOM      7  C   UNL     1      46.782   6.964  11.839  0.00  0.00    +0.000 A 
ATOM      8  N   UNL     1      47.599   7.448  12.835  0.00  0.00    +0.000 N 
ATOM      9  C   UNL     1      46.769   4.386  14.423  0.00  0.00    +0.000 A 
ENDROOT
BRANCH   1  11
ATOM     10  N   UNL     1      48.661   2.680  16.770  0.00  0.00    +0.000 N 
ATOM     11  C   UNL     1      47.512   3.411  16.627  0.00  0.00    +0.000 C 
ATOM     12  O   UNL     1      46.537   3.197  17.333  0.00  0.00    +0.000 OA
ATOM     13  H   UNL     1      48.678   2.017  17.535  0.00  0.00    +0.000 HD
ATOM     14  H   UNL     1      49.550   2.967  16.386  0.00  0.00    +0.000 HD
ENDBRANCH   1  11
BRANCH   8  15
ATOM     15  C   UNL     1      48.387   8.663  12.741  0.00  0.00    +0.000 C 
BRANCH  15  16
ATOM     16  C   UNL     1      49.363   8.733  11.548  0.00  0.00    +0.000 C 
ATOM     17  C   UNL     1      50.377   7.576  11.573  0.00  0.00    +0.000 C 
ATOM     18  C   UNL     1      51.608   7.836  10.717  0.00  0.00    +0.000 C 
ATOM     19  O   UNL     1      52.189   9.093  11.047  0.00  0.00    +0.000 OA
ATOM     20  C   UNL     1      51.312  10.165  10.714  0.00  0.00    +0.000 C 
ATOM     21  C   UNL     1      50.058  10.108  11.573  0.00  0.00    +0.000 C 
ENDBRANCH  15  16
ENDBRANCH   8  15
TORSDOF 3
ENDMDL
