MODEL 1
REMARK VINA RESULT:    -8.605      0.000      0.000
REMARK INTER + INTRA:         -12.531
REMARK INTER:                 -12.127
REMARK INTRA:                  -0.404
REMARK UNBOUND:                -0.404
REMARK  Name = 
REMARK  9 active torsions:
REMARK  status: ('A' for Active; 'I' for Inactive)
REMARK    1  A    between atoms: C_1  and  C_2
REMARK    2  A    between atoms: C_2  and  N_3
REMARK    3  A    between atoms: C_2  and  C_16
REMARK    4  A    between atoms: C_4  and  C_6
REMARK    5  A    between atoms: C_19  and  C_20
REMARK    6  A    between atoms: C_20  and  N_21
REMARK    7  A    between atoms: N_21  and  C_22
REMARK    8  A    between atoms: C_22  and  C_23
REMARK    9  A    between atoms: C_22  and  C_24
REMARK                            x       y       z     vdW  Elec       q    Type
REMARK                         _______ _______ _______ _____ _____    ______ ____
ROOT
ATOM      1  C   UNL     1      48.543   8.489  12.144  0.00  0.00    +0.000 C 
ATOM      2  C   UNL     1      47.295   8.227  12.990  0.00  0.00    +0.000 C 
ENDROOT
BRANCH   2   3
ATOM      3  C   UNL     1      46.355   7.248  12.309  0.00  0.00    +0.000 A 
ATOM      4  C   UNL     1      45.127   6.937  12.890  0.00  0.00    +0.000 A 
ATOM      5  N   UNL     1      44.209   6.128  12.302  0.00  0.00    +0.000 NA
ATOM      6  C   UNL     1      44.564   5.621  11.090  0.00  0.00    +0.000 A 
ATOM      7  C   UNL     1      45.802   5.905  10.525  0.00  0.00    +0.000 A 
ATOM      8  N   UNL     1      46.721   6.700  11.122  0.00  0.00    +0.000 NA
BRANCH   6   9
ATOM      9  C   UNL     1      43.590   4.713  10.374  0.00  0.00    +0.000 C 
BRANCH   9  10
ATOM     10  N   UNL     1      43.944   4.375   8.985  0.00  0.00    +0.000 NA
ATOM     11  H   UNL     1      44.768   4.936   8.756  0.00  0.00    +0.000 HD
BRANCH  10  12
ATOM     12  C   UNL     1      44.312   2.954   8.797  0.00  0.00    +0.000 C 
ATOM     13  C   UNL     1      44.433   2.319  10.192  0.00  0.00    +0.000 C 
BRANCH  12  14
ATOM     14  C   UNL     1      45.601   2.724   8.008  0.00  0.00    +0.000 A 
ATOM     15  C   UNL     1      46.262   1.501   8.045  0.00  0.00    +0.000 A 
ATOM     16  C   UNL     1      47.376   1.305   7.230  0.00  0.00    +0.000 A 
ATOM     17  C   UNL     1      47.816   2.341   6.418  0.00  0.00    +0.000 A 
ATOM     18  C   UNL     1      47.133   3.542   6.472  0.00  0.00    +0.000 A 
ATOM     19  N   UNL     1      46.045   3.758   7.245  0.00  0.00    +0.000 NA
ENDBRANCH  12  14
ENDBRANCH  10  12
ENDBRANCH   9  10
ENDBRANCH   6   9
ENDBRANCH   2   3
BRANCH   2  20
ATOM     20  N   UNL     1      47.650   7.788  14.334  0.00  0.00    +0.000 N 
ATOM     21  C   UNL     1      48.328   6.610  14.531  0.00  0.00    +0.000 C 
ATOM     22  O   UNL     1      48.661   5.893  13.589  0.00  0.00    +0.000 OA
ATOM     23  H   UNL     1      47.186   8.248  15.114  0.00  0.00    +0.000 HD
BRANCH  21  24
ATOM     24  C   UNL     1      48.722   6.275  15.903  0.00  0.00    +0.000 A 
ATOM     25  C   UNL     1      49.633   7.092  16.563  0.00  0.00    +0.000 A 
ATOM     26  S   UNL     1      49.981   6.587  18.153  0.00  0.00    +0.000 S 
ATOM     27  C   UNL     1      48.969   5.228  17.996  0.00  0.00    +0.000 A 
ATOM     28  N   UNL     1      48.854   4.328  19.009  0.00  0.00    +0.000 NA
ATOM     29  C   UNL     1      48.091   3.321  18.741  0.00  0.00    +0.000 A 
ATOM     30  N   UNL     1      47.420   3.143  17.559  0.00  0.00    +0.000 N 
ATOM     31  C   UNL     1      47.466   4.056  16.528  0.00  0.00    +0.000 A 
ATOM     32  O   UNL     1      46.787   3.919  15.515  0.00  0.00    +0.000 OA
ATOM     33  C   UNL     1      48.346   5.182  16.762  0.00  0.00    +0.000 A 
ATOM     34  H   UNL     1      46.821   2.344  17.422  0.00  0.00    +0.000 HD
ENDBRANCH  21  24
ENDBRANCH   2  20
TORSDOF 7
ENDMDL
MODEL 2
REMARK VINA RESULT:    -8.553      2.910      3.712
REMARK INTER + INTRA:         -12.457
REMARK INTER:                 -11.443
REMARK INTRA:                  -1.014
REMARK UNBOUND:                -0.404
REMARK  Name = 
REMARK  9 active torsions:
REMARK  status: ('A' for Active; 'I' for Inactive)
REMARK    1  A    between atoms: C_1  and  C_2
REMARK    2  A    between atoms: C_2  and  N_3
REMARK    3  A    between atoms: C_2  and  C_16
REMARK    4  A    between atoms: C_4  and  C_6
REMARK    5  A    between atoms: C_19  and  C_20
REMARK    6  A    between atoms: C_20  and  N_21
REMARK    7  A    between atoms: N_21  and  C_22
REMARK    8  A    between atoms: C_22  and  C_23
REMARK    9  A    between atoms: C_22  and  C_24
REMARK                            x       y       z     vdW  Elec       q    Type
REMARK                         _______ _______ _______ _____ _____    ______ ____
ROOT
ATOM      1  C   UNL     1      49.691   8.011  15.357  0.00  0.00    +0.000 C 
ATOM      2  C   UNL     1      49.179   6.736  16.030  0.00  0.00    +0.000 C 
ENDROOT
BRANCH   2   3
ATOM      3  C   UNL     1      48.268   5.945  15.107  0.00  0.00    +0.000 A 
ATOM      4  C   UNL     1      47.539   4.866  15.600  0.00  0.00    +0.000 A 
ATOM      5  N   UNL     1      46.653   4.162  14.851  0.00  0.00    +0.000 NA
ATOM      6  C   UNL     1      46.518   4.572  13.561  0.00  0.00    +0.000 A 
ATOM      7  C   UNL     1      47.270   5.629  13.059  0.00  0.00    +0.000 A 
ATOM      8  N   UNL     1      48.163   6.319  13.806  0.00  0.00    +0.000 NA
BRANCH   6   9
ATOM      9  C   UNL     1      45.548   3.836  12.666  0.00  0.00    +0.000 C 
BRANCH   9  10
ATOM     10  N   UNL     1      44.727   4.686  11.786  0.00  0.00    +0.000 NA
ATOM     11  H   UNL     1      45.382   5.290  11.283  0.00  0.00    +0.000 HD
BRANCH  10  12
ATOM     12  C   UNL     1      43.963   3.925  10.773  0.00  0.00    +0.000 C 
ATOM     13  C   UNL     1      43.334   2.714  11.482  0.00  0.00    +0.000 C 
BRANCH  12  14
ATOM     14  C   UNL     1      44.782   3.455   9.570  0.00  0.00    +0.000 A 
ATOM     15  C   UNL     1      45.335   4.363   8.675  0.00  0.00    +0.000 A 
ATOM     16  C   UNL     1      46.158   3.894   7.653  0.00  0.00    +0.000 A 
ATOM     17  C   UNL     1      46.389   2.530   7.536  0.00  0.00    +0.000 A 
ATOM     18  C   UNL     1      45.766   1.688   8.438  0.00  0.00    +0.000 A 
ATOM     19  N   UNL     1      44.970   2.115   9.444  0.00  0.00    +0.000 NA
ENDBRANCH  12  14
ENDBRANCH  10  12
ENDBRANCH   9  10
ENDBRANCH   6   9
ENDBRANCH   2   3
BRANCH   2  20
ATOM     20  N   UNL     1      50.281   5.923  16.528  0.00  0.00    +0.000 N 
ATOM     21  C   UNL     1      50.264   5.427  17.808  0.00  0.00    +0.000 C 
ATOM     22  O   UNL     1      49.324   5.643  18.571  0.00  0.00    +0.000 OA
ATOM     23  H   UNL     1      51.148   5.933  15.995  0.00  0.00    +0.000 HD
BRANCH  21  24
ATOM     24  C   UNL     1      51.368   4.551  18.211  0.00  0.00    +0.000 A 
ATOM     25  C   UNL     1      52.422   5.084  18.945  0.00  0.00    +0.000 A 
ATOM     26  S   UNL     1      53.620   3.944  19.354  0.00  0.00    +0.000 S 
ATOM     27  C   UNL     1      52.802   2.709  18.517  0.00  0.00    +0.000 A 
ATOM     28  N   UNL     1      53.331   1.459  18.432  0.00  0.00    +0.000 NA
ATOM     29  C   UNL     1      52.630   0.632  17.731  0.00  0.00    +0.000 A 
ATOM     30  N   UNL     1      51.441   0.937  17.122  0.00  0.00    +0.000 N 
ATOM     31  C   UNL     1      50.843   2.174  17.228  0.00  0.00    +0.000 A 
ATOM     32  O   UNL     1      49.735   2.397  16.748  0.00  0.00    +0.000 OA
ATOM     33  C   UNL     1      51.612   3.152  17.967  0.00  0.00    +0.000 A 
ATOM     34  H   UNL     1      50.931   0.236  16.606  0.00  0.00    +0.000 HD
ENDBRANCH  21  24
ENDBRANCH   2  20
TORSDOF 7
ENDMDL
MODEL 3
REMARK VINA RESULT:    -8.405      2.621      3.875
REMARK INTER + INTRA:         -12.249
REMARK INTER:                 -11.301
REMARK INTRA:                  -0.948
REMARK UNBOUND:                -0.404
REMARK  Name = 
REMARK  9 active torsions:
REMARK  status: ('A' for Active; 'I' for Inactive)
REMARK    1  A    between atoms: C_1  and  C_2
REMARK    2  A    between atoms: C_2  and  N_3
REMARK    3  A    between atoms: C_2  and  C_16
REMARK    4  A    between atoms: C_4  and  C_6
REMARK    5  A    between atoms: C_19  and  C_20
REMARK    6  A    between atoms: C_20  and  N_21
REMARK    7  A    between atoms: N_21  and  C_22
REMARK    8  A    between atoms: C_22  and  C_23
REMARK    9  A    between atoms: C_22  and  C_24
REMARK                            x       y       z     vdW  Elec       q    Type
REMARK                         _______ _______ _______ _____ _____    ______ ____
ROOT
ATOM      1  C   UNL     1      47.625   3.289  16.265  0.00  0.00    +0.000 C 
ATOM      2  C   UNL     1      47.896   4.682  15.692  0.00  0.00    +0.000 C 
ENDROOT
BRANCH   2   3
ATOM      3  C   UNL     1      47.066   4.944  14.449  0.00  0.00    +0.000 A 
ATOM      4  C   UNL     1      47.357   6.033  13.629  0.00  0.00    +0.000 A 
ATOM      5  N   UNL     1      46.704   6.286  12.467  0.00  0.00    +0.000 NA
ATOM      6  C   UNL     1      45.722   5.402  12.141  0.00  0.00    +0.000 A 
ATOM      7  C   UNL     1      45.410   4.333  12.974  0.00  0.00    +0.000 A 
ATOM      8  N   UNL     1      46.054   4.094  14.140  0.00  0.00    +0.000 NA
BRANCH   6   9
ATOM      9  C   UNL     1      44.952   5.618  10.858  0.00  0.00    +0.000 C 
BRANCH   9  10
ATOM     10  N   UNL     1      45.629   5.170   9.629  0.00  0.00    +0.000 NA
ATOM     11  H   UNL     1      46.504   4.734   9.929  0.00  0.00    +0.000 HD
BRANCH  10  12
ATOM     12  C   UNL     1      44.867   4.154   8.871  0.00  0.00    +0.000 C 
ATOM     13  C   UNL     1      44.020   3.362   9.881  0.00  0.00    +0.000 C 
BRANCH  12  14
ATOM     14  C   UNL     1      45.724   3.193   8.045  0.00  0.00    +0.000 A 
ATOM     15  C   UNL     1      46.398   3.623   6.908  0.00  0.00    +0.000 A 
ATOM     16  C   UNL     1      47.248   2.738   6.246  0.00  0.00    +0.000 A 
ATOM     17  C   UNL     1      47.385   1.442   6.722  0.00  0.00    +0.000 A 
ATOM     18  C   UNL     1      46.646   1.077   7.832  0.00  0.00    +0.000 A 
ATOM     19  N   UNL     1      45.821   1.916   8.499  0.00  0.00    +0.000 NA
ENDBRANCH  12  14
ENDBRANCH  10  12
ENDBRANCH   9  10
ENDBRANCH   6   9
ENDBRANCH   2   3
BRANCH   2  20
ATOM     20  N   UNL     1      47.700   5.715  16.701  0.00  0.00    +0.000 N 
ATOM     21  C   UNL     1      48.713   6.052  17.565  0.00  0.00    +0.000 C 
ATOM     22  O   UNL     1      49.812   5.504  17.515  0.00  0.00    +0.000 OA
ATOM     23  H   UNL     1      46.743   6.003  16.896  0.00  0.00    +0.000 HD
BRANCH  21  24
ATOM     24  C   UNL     1      48.468   7.156  18.499  0.00  0.00    +0.000 A 
ATOM     25  C   UNL     1      48.453   6.897  19.864  0.00  0.00    +0.000 A 
ATOM     26  S   UNL     1      48.175   8.277  20.823  0.00  0.00    +0.000 S 
ATOM     27  C   UNL     1      48.008   9.262  19.445  0.00  0.00    +0.000 A 
ATOM     28  N   UNL     1      47.704  10.582  19.567  0.00  0.00    +0.000 NA
ATOM     29  C   UNL     1      47.562  11.200  18.443  0.00  0.00    +0.000 A 
ATOM     30  N   UNL     1      47.713  10.622  17.209  0.00  0.00    +0.000 N 
ATOM     31  C   UNL     1      48.074   9.304  17.041  0.00  0.00    +0.000 A 
ATOM     32  O   UNL     1      48.291   8.832  15.928  0.00  0.00    +0.000 OA
ATOM     33  C   UNL     1      48.201   8.554  18.272  0.00  0.00    +0.000 A 
ATOM     34  H   UNL     1      47.610  11.169  16.368  0.00  0.00    +0.000 HD
ENDBRANCH  21  24
ENDBRANCH   2  20
TORSDOF 7
ENDMDL
MODEL 4
REMARK VINA RESULT:    -7.925      4.941      9.510
REMARK INTER + INTRA:         -11.572
REMARK INTER:                 -10.506
REMARK INTRA:                  -1.066
REMARK UNBOUND:                -0.404
REMARK  Name = 
REMARK  9 active torsions:
REMARK  status: ('A' for Active; 'I' for Inactive)
REMARK    1  A    between atoms: C_1  and  C_2
REMARK    2  A    between atoms: C_2  and  N_3
REMARK    3  A    between atoms: C_2  and  C_16
REMARK    4  A    between atoms: C_4  and  C_6
REMARK    5  A    between atoms: C_19  and  C_20
REMARK    6  A    between atoms: C_20  and  N_21
REMARK    7  A    between atoms: N_21  and  C_22
REMARK    8  A    between atoms: C_22  and  C_23
REMARK    9  A    between atoms: C_22  and  C_24
REMARK                            x       y       z     vdW  Elec       q    Type
REMARK                         _______ _______ _______ _____ _____    ______ ____
ROOT
ATOM      1  C   UNL     1      48.093   5.908  18.617  0.00  0.00    +0.000 C 
ATOM      2  C   UNL     1      48.836   5.739  17.290  0.00  0.00    +0.000 C 
ENDROOT
BRANCH   2   3
ATOM      3  C   UNL     1      49.678   4.476  17.278  0.00  0.00    +0.000 A 
ATOM      4  C   UNL     1      51.030   4.533  17.611  0.00  0.00    +0.000 A 
ATOM      5  N   UNL     1      51.824   3.435  17.691  0.00  0.00    +0.000 NA
ATOM      6  C   UNL     1      51.216   2.250  17.416  0.00  0.00    +0.000 A 
ATOM      7  C   UNL     1      49.874   2.195  17.053  0.00  0.00    +0.000 A 
ATOM      8  N   UNL     1      49.090   3.295  16.959  0.00  0.00    +0.000 NA
BRANCH   6   9
ATOM      9  C   UNL     1      52.037   0.982  17.487  0.00  0.00    +0.000 C 
BRANCH   9  10
ATOM     10  N   UNL     1      52.984   0.903  18.612  0.00  0.00    +0.000 NA
ATOM     11  H   UNL     1      52.507   0.378  19.349  0.00  0.00    +0.000 HD
BRANCH  10  12
ATOM     12  C   UNL     1      54.229   0.175  18.287  0.00  0.00    +0.000 C 
ATOM     13  C   UNL     1      54.553   0.449  16.809  0.00  0.00    +0.000 C 
BRANCH  12  14
ATOM     14  C   UNL     1      54.174  -1.333  18.535  0.00  0.00    +0.000 A 
ATOM     15  C   UNL     1      54.915  -2.220  17.761  0.00  0.00    +0.000 A 
ATOM     16  C   UNL     1      54.912  -3.574  18.090  0.00  0.00    +0.000 A 
ATOM     17  C   UNL     1      54.153  -4.013  19.166  0.00  0.00    +0.000 A 
ATOM     18  C   UNL     1      53.409  -3.076  19.858  0.00  0.00    +0.000 A 
ATOM     19  N   UNL     1      53.398  -1.755  19.568  0.00  0.00    +0.000 NA
ENDBRANCH  12  14
ENDBRANCH  10  12
ENDBRANCH   9  10
ENDBRANCH   6   9
ENDBRANCH   2   3
BRANCH   2  20
ATOM     20  N   UNL     1      47.916   5.786  16.161  0.00  0.00    +0.000 N 
ATOM     21  C   UNL     1      48.332   6.247  14.935  0.00  0.00    +0.000 C 
ATOM     22  O   UNL     1      49.486   6.627  14.748  0.00  0.00    +0.000 OA
ATOM     23  H   UNL     1      46.922   5.694  16.362  0.00  0.00    +0.000 HD
BRANCH  21  24
ATOM     24  C   UNL     1      47.373   6.188  13.827  0.00  0.00    +0.000 A 
ATOM     25  C   UNL     1      47.002   7.366  13.191  0.00  0.00    +0.000 A 
ATOM     26  S   UNL     1      45.897   7.139  11.914  0.00  0.00    +0.000 S 
ATOM     27  C   UNL     1      45.832   5.463  12.203  0.00  0.00    +0.000 A 
ATOM     28  N   UNL     1      45.011   4.663  11.470  0.00  0.00    +0.000 NA
ATOM     29  C   UNL     1      45.025   3.422  11.824  0.00  0.00    +0.000 A 
ATOM     30  N   UNL     1      45.799   2.905  12.831  0.00  0.00    +0.000 N 
ATOM     31  C   UNL     1      46.683   3.669  13.561  0.00  0.00    +0.000 A 
ATOM     32  O   UNL     1      47.429   3.168  14.397  0.00  0.00    +0.000 OA
ATOM     33  C   UNL     1      46.671   5.079  13.233  0.00  0.00    +0.000 A 
ATOM     34  H   UNL     1      45.779   1.919  13.042  0.00  0.00    +0.000 HD
ENDBRANCH  21  24
ENDBRANCH   2  20
TORSDOF 7
ENDMDL
MODEL 5
REMARK VINA RESULT:    -7.827      1.803      2.139
REMARK INTER + INTRA:         -11.434
REMARK INTER:                 -11.173
REMARK INTRA:                  -0.260
REMARK UNBOUND:                -0.404
REMARK  Name = 
REMARK  9 active torsions:
REMARK  status: ('A' for Active; 'I' for Inactive)
REMARK    1  A    between atoms: C_1  and  C_2
REMARK    2  A    between atoms: C_2  and  N_3
REMARK    3  A    between atoms: C_2  and  C_16
REMARK    4  A    between atoms: C_4  and  C_6
REMARK    5  A    between atoms: C_19  and  C_20
REMARK    6  A    between atoms: C_20  and  N_21
REMARK    7  A    between atoms: N_21  and  C_22
REMARK    8  A    between atoms: C_22  and  C_23
REMARK    9  A    between atoms: C_22  and  C_24
REMARK                            x       y       z     vdW  Elec       q    Type
REMARK                         _______ _______ _______ _____ _____    ______ ____
ROOT
ATOM      1  C   UNL     1      49.050   6.708  13.024  0.00  0.00    +0.000 C 
ATOM      2  C   UNL     1      47.710   6.753  13.762  0.00  0.00    +0.000 C 
ENDROOT
BRANCH   2   3
ATOM      3  C   UNL     1      46.717   5.767  13.174  0.00  0.00    +0.000 A 
ATOM      4  C   UNL     1      46.904   4.397  13.348  0.00  0.00    +0.000 A 
ATOM      5  N   UNL     1      46.020   3.464  12.913  0.00  0.00    +0.000 NA
ATOM      6  C   UNL     1      44.918   3.949  12.278  0.00  0.00    +0.000 A 
ATOM      7  C   UNL     1      44.746   5.314  12.077  0.00  0.00    +0.000 A 
ATOM      8  N   UNL     1      45.638   6.241  12.499  0.00  0.00    +0.000 NA
BRANCH   6   9
ATOM      9  C   UNL     1      43.887   2.968  11.768  0.00  0.00    +0.000 C 
BRANCH   9  10
ATOM     10  N   UNL     1      44.145   2.418  10.426  0.00  0.00    +0.000 NA
ATOM     11  H   UNL     1      43.229   2.300   9.987  0.00  0.00    +0.000 HD
BRANCH  10  12
ATOM     12  C   UNL     1      44.936   3.319   9.560  0.00  0.00    +0.000 C 
ATOM     13  C   UNL     1      43.965   4.337   8.940  0.00  0.00    +0.000 C 
BRANCH  12  14
ATOM     14  C   UNL     1      45.728   2.617   8.456  0.00  0.00    +0.000 A 
ATOM     15  C   UNL     1      46.229   3.321   7.367  0.00  0.00    +0.000 A 
ATOM     16  C   UNL     1      47.030   2.658   6.439  0.00  0.00    +0.000 A 
ATOM     17  C   UNL     1      47.291   1.305   6.608  0.00  0.00    +0.000 A 
ATOM     18  C   UNL     1      46.719   0.665   7.692  0.00  0.00    +0.000 A 
ATOM     19  N   UNL     1      45.945   1.284   8.613  0.00  0.00    +0.000 NA
ENDBRANCH  12  14
ENDBRANCH  10  12
ENDBRANCH   9  10
ENDBRANCH   6   9
ENDBRANCH   2   3
BRANCH   2  20
ATOM     20  N   UNL     1      47.889   6.551  15.194  0.00  0.00    +0.000 N 
ATOM     21  C   UNL     1      48.618   7.444  15.942  0.00  0.00    +0.000 C 
ATOM     22  O   UNL     1      49.134   8.438  15.436  0.00  0.00    +0.000 OA
ATOM     23  H   UNL     1      47.667   5.631  15.568  0.00  0.00    +0.000 HD
BRANCH  21  24
ATOM     24  C   UNL     1      48.686   7.218  17.389  0.00  0.00    +0.000 A 
ATOM     25  C   UNL     1      48.688   8.314  18.245  0.00  0.00    +0.000 A 
ATOM     26  S   UNL     1      48.753   7.896  19.896  0.00  0.00    +0.000 S 
ATOM     27  C   UNL     1      48.839   6.238  19.524  0.00  0.00    +0.000 A 
ATOM     28  N   UNL     1      48.966   5.310  20.511  0.00  0.00    +0.000 NA
ATOM     29  C   UNL     1      49.066   4.095  20.087  0.00  0.00    +0.000 A 
ATOM     30  N   UNL     1      49.032   3.722  18.768  0.00  0.00    +0.000 N 
ATOM     31  C   UNL     1      48.850   4.622  17.742  0.00  0.00    +0.000 A 
ATOM     32  O   UNL     1      48.734   4.255  16.576  0.00  0.00    +0.000 OA
ATOM     33  C   UNL     1      48.779   6.005  18.161  0.00  0.00    +0.000 A 
ATOM     34  H   UNL     1      49.093   2.750  18.506  0.00  0.00    +0.000 HD
ENDBRANCH  21  24
ENDBRANCH   2  20
TORSDOF 7
ENDMDL
MODEL 6
REMARK VINA RESULT:    -7.552      3.078      7.802
REMARK INTER + INTRA:         -11.046
REMARK INTER:                 -10.288
REMARK INTRA:                  -0.759
REMARK UNBOUND:                -0.404
REMARK  Name = 
REMARK  9 active torsions:
REMARK  status: ('A' for Active; 'I' for Inactive)
REMARK    1  A    between atoms: C_1  and  C_2
REMARK    2  A    between atoms: C_2  and  N_3
REMARK    3  A    between atoms: C_2  and  C_16
REMARK    4  A    between atoms: C_4  and  C_6
REMARK    5  A    between atoms: C_19  and  C_20
REMARK    6  A    between atoms: C_20  and  N_21
REMARK    7  A    between atoms: N_21  and  C_22
REMARK    8  A    between atoms: C_22  and  C_23
REMARK    9  A    between atoms: C_22  and  C_24
REMARK                            x       y       z     vdW  Elec       q    Type
REMARK                         _______ _______ _______ _____ _____    ______ ____
ROOT
ATOM      1  C   UNL     1      47.965   9.472  11.824  0.00  0.00    +0.000 C 
ATOM      2  C   UNL     1      48.577   8.127  12.218  0.00  0.00    +0.000 C 
ENDROOT
BRANCH   2   3
ATOM      3  C   UNL     1      48.674   7.978  13.726  0.00  0.00    +0.000 A 
ATOM      4  C   UNL     1      48.295   9.030  14.558  0.00  0.00    +0.000 A 
ATOM      5  N   UNL     1      48.287   8.941  15.913  0.00  0.00    +0.000 NA
ATOM      6  C   UNL     1      48.685   7.745  16.425  0.00  0.00    +0.000 A 
ATOM      7  C   UNL     1      49.093   6.706  15.596  0.00  0.00    +0.000 A 
ATOM      8  N   UNL     1      49.114   6.804  14.246  0.00  0.00    +0.000 NA
BRANCH   6   9
ATOM      9  C   UNL     1      48.700   7.571  17.927  0.00  0.00    +0.000 C 
BRANCH   9  10
ATOM     10  N   UNL     1      47.407   7.216  18.537  0.00  0.00    +0.000 NA
ATOM     11  H   UNL     1      46.731   7.181  17.770  0.00  0.00    +0.000 HD
BRANCH  10  12
ATOM     12  C   UNL     1      47.405   5.888  19.187  0.00  0.00    +0.000 C 
ATOM     13  C   UNL     1      48.274   5.990  20.452  0.00  0.00    +0.000 C 
BRANCH  12  14
ATOM     14  C   UNL     1      47.903   4.741  18.306  0.00  0.00    +0.000 A 
ATOM     15  C   UNL     1      49.090   4.075  18.590  0.00  0.00    +0.000 A 
ATOM     16  C   UNL     1      49.451   2.971  17.819  0.00  0.00    +0.000 A 
ATOM     17  C   UNL     1      48.631   2.575  16.772  0.00  0.00    +0.000 A 
ATOM     18  C   UNL     1      47.491   3.316  16.525  0.00  0.00    +0.000 A 
ATOM     19  N   UNL     1      47.110   4.385  17.260  0.00  0.00    +0.000 NA
ENDBRANCH  12  14
ENDBRANCH  10  12
ENDBRANCH   9  10
ENDBRANCH   6   9
ENDBRANCH   2   3
BRANCH   2  20
ATOM     20  N   UNL     1      47.851   7.018  11.612  0.00  0.00    +0.000 N 
ATOM     21  C   UNL     1      46.496   6.885  11.793  0.00  0.00    +0.000 C 
ATOM     22  O   UNL     1      45.853   7.692  12.461  0.00  0.00    +0.000 OA
ATOM     23  H   UNL     1      48.400   6.237  11.259  0.00  0.00    +0.000 HD
BRANCH  21  24
ATOM     24  C   UNL     1      45.822   5.792  11.085  0.00  0.00    +0.000 A 
ATOM     25  C   UNL     1      45.910   5.727   9.699  0.00  0.00    +0.000 A 
ATOM     26  S   UNL     1      45.092   4.395   9.021  0.00  0.00    +0.000 S 
ATOM     27  C   UNL     1      44.543   3.889  10.550  0.00  0.00    +0.000 A 
ATOM     28  N   UNL     1      43.729   2.807  10.672  0.00  0.00    +0.000 NA
ATOM     29  C   UNL     1      43.350   2.562  11.882  0.00  0.00    +0.000 A 
ATOM     30  N   UNL     1      43.727   3.289  12.982  0.00  0.00    +0.000 N 
ATOM     31  C   UNL     1      44.593   4.358  12.909  0.00  0.00    +0.000 A 
ATOM     32  O   UNL     1      44.986   4.939  13.917  0.00  0.00    +0.000 OA
ATOM     33  C   UNL     1      45.010   4.703  11.567  0.00  0.00    +0.000 A 
ATOM     34  H   UNL     1      43.413   3.029  13.904  0.00  0.00    +0.000 HD
ENDBRANCH  21  24
ENDBRANCH   2  20
TORSDOF 7
ENDMDL
MODEL 7
REMARK VINA RESULT:    -7.533      2.695      3.622
REMARK INTER + INTRA:         -11.020
REMARK INTER:                 -10.420
REMARK INTRA:                  -0.600
REMARK UNBOUND:                -0.404
REMARK  Name = 
REMARK  9 active torsions:
REMARK  status: ('A' for Active; 'I' for Inactive)
REMARK    1  A    between atoms: C_1  and  C_2
REMARK    2  A    between atoms: C_2  and  N_3
REMARK    3  A    between atoms: C_2  and  C_16
REMARK    4  A    between atoms: C_4  and  C_6
REMARK    5  A    between atoms: C_19  and  C_20
REMARK    6  A    between atoms: C_20  and  N_21
REMARK    7  A    between atoms: N_21  and  C_22
REMARK    8  A    between atoms: C_22  and  C_23
REMARK    9  A    between atoms: C_22  and  C_24
REMARK                            x       y       z     vdW  Elec       q    Type
REMARK                         _______ _______ _______ _____ _____    ______ ____
ROOT
ATOM      1  C   UNL     1      47.545   3.654  16.183  0.00  0.00    +0.000 C 
ATOM      2  C   UNL     1      47.663   4.680  15.054  0.00  0.00    +0.000 C 
ENDROOT
BRANCH   2   3
ATOM      3  C   UNL     1      46.588   4.476  14.001  0.00  0.00    +0.000 A 
ATOM      4  C   UNL     1      46.413   3.226  13.412  0.00  0.00    +0.000 A 
ATOM      5  N   UNL     1      45.427   2.955  12.519  0.00  0.00    +0.000 NA
ATOM      6  C   UNL     1      44.605   3.996  12.219  0.00  0.00    +0.000 A 
ATOM      7  C   UNL     1      44.798   5.252  12.782  0.00  0.00    +0.000 A 
ATOM      8  N   UNL     1      45.792   5.522  13.661  0.00  0.00    +0.000 NA
BRANCH   6   9
ATOM      9  C   UNL     1      43.482   3.768  11.233  0.00  0.00    +0.000 C 
BRANCH   9  10
ATOM     10  N   UNL     1      43.896   3.325   9.891  0.00  0.00    +0.000 NA
ATOM     11  H   UNL     1      43.276   3.800   9.230  0.00  0.00    +0.000 HD
BRANCH  10  12
ATOM     12  C   UNL     1      45.283   3.704   9.545  0.00  0.00    +0.000 C 
ATOM     13  C   UNL     1      45.274   5.194   9.165  0.00  0.00    +0.000 C 
BRANCH  12  14
ATOM     14  C   UNL     1      45.911   2.884   8.417  0.00  0.00    +0.000 A 
ATOM     15  C   UNL     1      46.375   3.491   7.255  0.00  0.00    +0.000 A 
ATOM     16  C   UNL     1      47.031   2.717   6.300  0.00  0.00    +0.000 A 
ATOM     17  C   UNL     1      47.187   1.355   6.517  0.00  0.00    +0.000 A 
ATOM     18  C   UNL     1      46.658   0.818   7.676  0.00  0.00    +0.000 A 
ATOM     19  N   UNL     1      46.024   1.546   8.625  0.00  0.00    +0.000 NA
ENDBRANCH  12  14
ENDBRANCH  10  12
ENDBRANCH   9  10
ENDBRANCH   6   9
ENDBRANCH   2   3
BRANCH   2  20
ATOM     20  N   UNL     1      47.658   6.041  15.575  0.00  0.00    +0.000 N 
ATOM     21  C   UNL     1      48.829   6.652  15.950  0.00  0.00    +0.000 C 
ATOM     22  O   UNL     1      49.914   6.081  15.855  0.00  0.00    +0.000 OA
ATOM     23  H   UNL     1      46.763   6.427  15.867  0.00  0.00    +0.000 HD
BRANCH  21  24
ATOM     24  C   UNL     1      48.755   8.050  16.388  0.00  0.00    +0.000 A 
ATOM     25  C   UNL     1      49.273   9.044  15.567  0.00  0.00    +0.000 A 
ATOM     26  S   UNL     1      49.099  10.617  16.200  0.00  0.00    +0.000 S 
ATOM     27  C   UNL     1      48.375  10.020  17.619  0.00  0.00    +0.000 A 
ATOM     28  N   UNL     1      48.020  10.863  18.625  0.00  0.00    +0.000 NA
ATOM     29  C   UNL     1      47.525  10.274  19.662  0.00  0.00    +0.000 A 
ATOM     30  N   UNL     1      47.336   8.921  19.776  0.00  0.00    +0.000 N 
ATOM     31  C   UNL     1      47.632   8.037  18.761  0.00  0.00    +0.000 A 
ATOM     32  O   UNL     1      47.372   6.841  18.853  0.00  0.00    +0.000 OA
ATOM     33  C   UNL     1      48.234   8.644  17.593  0.00  0.00    +0.000 A 
ATOM     34  H   UNL     1      46.922   8.527  20.606  0.00  0.00    +0.000 HD
ENDBRANCH  21  24
ENDBRANCH   2  20
TORSDOF 7
ENDMDL
MODEL 8
REMARK VINA RESULT:    -7.423      3.160      8.805
REMARK INTER + INTRA:         -10.864
REMARK INTER:                  -9.804
REMARK INTRA:                  -1.060
REMARK UNBOUND:                -0.404
REMARK  Name = 
REMARK  9 active torsions:
REMARK  status: ('A' for Active; 'I' for Inactive)
REMARK    1  A    between atoms: C_1  and  C_2
REMARK    2  A    between atoms: C_2  and  N_3
REMARK    3  A    between atoms: C_2  and  C_16
REMARK    4  A    between atoms: C_4  and  C_6
REMARK    5  A    between atoms: C_19  and  C_20
REMARK    6  A    between atoms: C_20  and  N_21
REMARK    7  A    between atoms: N_21  and  C_22
REMARK    8  A    between atoms: C_22  and  C_23
REMARK    9  A    between atoms: C_22  and  C_24
REMARK                            x       y       z     vdW  Elec       q    Type
REMARK                         _______ _______ _______ _____ _____    ______ ____
ROOT
ATOM      1  C   UNL     1      43.532   5.264  12.765  0.00  0.00    +0.000 C 
ATOM      2  C   UNL     1      44.737   5.592  11.880  0.00  0.00    +0.000 C 
ENDROOT
BRANCH   2   3
ATOM      3  C   UNL     1      45.891   6.148  12.694  0.00  0.00    +0.000 A 
ATOM      4  C   UNL     1      46.861   5.291  13.211  0.00  0.00    +0.000 A 
ATOM      5  N   UNL     1      47.956   5.726  13.884  0.00  0.00    +0.000 NA
ATOM      6  C   UNL     1      48.054   7.074  14.038  0.00  0.00    +0.000 A 
ATOM      7  C   UNL     1      47.071   7.928  13.550  0.00  0.00    +0.000 A 
ATOM      8  N   UNL     1      45.972   7.489  12.892  0.00  0.00    +0.000 NA
BRANCH   6   9
ATOM      9  C   UNL     1      49.249   7.632  14.776  0.00  0.00    +0.000 C 
BRANCH   9  10
ATOM     10  N   UNL     1      50.249   6.640  15.207  0.00  0.00    +0.000 NA
ATOM     11  H   UNL     1      51.163   7.049  15.001  0.00  0.00    +0.000 HD
BRANCH  10  12
ATOM     12  C   UNL     1      50.211   6.354  16.658  0.00  0.00    +0.000 C 
ATOM     13  C   UNL     1      51.657   6.103  17.118  0.00  0.00    +0.000 C 
BRANCH  12  14
ATOM     14  C   UNL     1      49.327   5.171  17.056  0.00  0.00    +0.000 A 
ATOM     15  C   UNL     1      48.012   5.360  17.467  0.00  0.00    +0.000 A 
ATOM     16  C   UNL     1      47.214   4.246  17.722  0.00  0.00    +0.000 A 
ATOM     17  C   UNL     1      47.754   2.975  17.584  0.00  0.00    +0.000 A 
ATOM     18  C   UNL     1      49.082   2.872  17.215  0.00  0.00    +0.000 A 
ATOM     19  N   UNL     1      49.878   3.933  16.953  0.00  0.00    +0.000 NA
ENDBRANCH  12  14
ENDBRANCH  10  12
ENDBRANCH   9  10
ENDBRANCH   6   9
ENDBRANCH   2   3
BRANCH   2  20
ATOM     20  N   UNL     1      45.141   4.437  11.089  0.00  0.00    +0.000 N 
ATOM     21  C   UNL     1      44.486   4.122   9.923  0.00  0.00    +0.000 C 
ATOM     22  O   UNL     1      43.549   4.801   9.507  0.00  0.00    +0.000 OA
ATOM     23  H   UNL     1      45.749   3.753  11.535  0.00  0.00    +0.000 HD
BRANCH  21  24
ATOM     24  C   UNL     1      45.001   2.995   9.139  0.00  0.00    +0.000 A 
ATOM     25  C   UNL     1      44.479   1.725   9.358  0.00  0.00    +0.000 A 
ATOM     26  S   UNL     1      45.162   0.521   8.364  0.00  0.00    +0.000 S 
ATOM     27  C   UNL     1      46.219   1.645   7.644  0.00  0.00    +0.000 A 
ATOM     28  N   UNL     1      47.131   1.245   6.718  0.00  0.00    +0.000 NA
ATOM     29  C   UNL     1      47.900   2.189   6.288  0.00  0.00    +0.000 A 
ATOM     30  N   UNL     1      47.827   3.499   6.688  0.00  0.00    +0.000 N 
ATOM     31  C   UNL     1      46.884   3.956   7.582  0.00  0.00    +0.000 A 
ATOM     32  O   UNL     1      46.781   5.148   7.857  0.00  0.00    +0.000 OA
ATOM     33  C   UNL     1      46.026   2.926   8.129  0.00  0.00    +0.000 A 
ATOM     34  H   UNL     1      48.444   4.192   6.295  0.00  0.00    +0.000 HD
ENDBRANCH  21  24
ENDBRANCH   2  20
TORSDOF 7
ENDMDL
MODEL 9
REMARK VINA RESULT:    -7.309      2.615      8.242
REMARK INTER + INTRA:         -10.703
REMARK INTER:                  -9.863
REMARK INTRA:                  -0.841
REMARK UNBOUND:                -0.404
REMARK  Name = 
REMARK  9 active torsions:
REMARK  status: ('A' for Active; 'I' for Inactive)
REMARK    1  A    between atoms: C_1  and  C_2
REMARK    2  A    between atoms: C_2  and  N_3
REMARK    3  A    between atoms: C_2  and  C_16
REMARK    4  A    between atoms: C_4  and  C_6
REMARK    5  A    between atoms: C_19  and  C_20
REMARK    6  A    between atoms: C_20  and  N_21
REMARK    7  A    between atoms: N_21  and  C_22
REMARK    8  A    between atoms: C_22  and  C_23
REMARK    9  A    between atoms: C_22  and  C_24
REMARK                            x       y       z     vdW  Elec       q    Type
REMARK                         _______ _______ _______ _____ _____    ______ ____
ROOT
ATOM      1  C   UNL     1      46.972   8.971  11.918  0.00  0.00    +0.000 C 
ATOM      2  C   UNL     1      47.805   7.740  12.283  0.00  0.00    +0.000 C 
ENDROOT
BRANCH   2   3
ATOM      3  C   UNL     1      48.246   7.775  13.735  0.00  0.00    +0.000 A 
ATOM      4  C   UNL     1      47.939   8.874  14.534  0.00  0.00    +0.000 A 
ATOM      5  N   UNL     1      48.238   8.940  15.856  0.00  0.00    +0.000 NA
ATOM      6  C   UNL     1      48.876   7.854  16.369  0.00  0.00    +0.000 A 
ATOM      7  C   UNL     1      49.211   6.769  15.565  0.00  0.00    +0.000 A 
ATOM      8  N   UNL     1      48.924   6.714  14.243  0.00  0.00    +0.000 NA
BRANCH   6   9
ATOM      9  C   UNL     1      49.240   7.855  17.836  0.00  0.00    +0.000 C 
BRANCH   9  10
ATOM     10  N   UNL     1      48.298   7.151  18.723  0.00  0.00    +0.000 NA
ATOM     11  H   UNL     1      47.498   6.893  18.141  0.00  0.00    +0.000 HD
BRANCH  10  12
ATOM     12  C   UNL     1      48.846   5.902  19.296  0.00  0.00    +0.000 C 
ATOM     13  C   UNL     1      50.341   6.137  19.573  0.00  0.00    +0.000 C 
BRANCH  12  14
ATOM     14  C   UNL     1      48.669   4.662  18.420  0.00  0.00    +0.000 A 
ATOM     15  C   UNL     1      47.454   4.380  17.806  0.00  0.00    +0.000 A 
ATOM     16  C   UNL     1      47.368   3.295  16.936  0.00  0.00    +0.000 A 
ATOM     17  C   UNL     1      48.489   2.505  16.719  0.00  0.00    +0.000 A 
ATOM     18  C   UNL     1      49.648   2.824  17.402  0.00  0.00    +0.000 A 
ATOM     19  N   UNL     1      49.763   3.875  18.245  0.00  0.00    +0.000 NA
ENDBRANCH  12  14
ENDBRANCH  10  12
ENDBRANCH   9  10
ENDBRANCH   6   9
ENDBRANCH   2   3
BRANCH   2  20
ATOM     20  N   UNL     1      47.094   6.509  11.963  0.00  0.00    +0.000 N 
ATOM     21  C   UNL     1      45.776   6.349  12.313  0.00  0.00    +0.000 C 
ATOM     22  O   UNL     1      45.153   7.234  12.898  0.00  0.00    +0.000 OA
ATOM     23  H   UNL     1      47.653   5.701  11.694  0.00  0.00    +0.000 HD
BRANCH  21  24
ATOM     24  C   UNL     1      45.105   5.117  11.887  0.00  0.00    +0.000 A 
ATOM     25  C   UNL     1      44.406   4.367  12.826  0.00  0.00    +0.000 A 
ATOM     26  S   UNL     1      43.666   2.975  12.181  0.00  0.00    +0.000 S 
ATOM     27  C   UNL     1      44.300   3.294  10.634  0.00  0.00    +0.000 A 
ATOM     28  N   UNL     1      44.079   2.435   9.603  0.00  0.00    +0.000 NA
ATOM     29  C   UNL     1      44.655   2.774   8.498  0.00  0.00    +0.000 A 
ATOM     30  N   UNL     1      45.416   3.901   8.327  0.00  0.00    +0.000 N 
ATOM     31  C   UNL     1      45.621   4.823   9.329  0.00  0.00    +0.000 A 
ATOM     32  O   UNL     1      46.232   5.869   9.128  0.00  0.00    +0.000 OA
ATOM     33  C   UNL     1      45.033   4.466  10.603  0.00  0.00    +0.000 A 
ATOM     34  H   UNL     1      45.820   4.119   7.429  0.00  0.00    +0.000 HD
ENDBRANCH  21  24
ENDBRANCH   2  20
TORSDOF 7
ENDMDL
