MODEL 1
REMARK VINA RESULT:    -7.501      0.000      0.000
REMARK INTER + INTRA:          -9.515
REMARK INTER:                  -8.817
REMARK INTRA:                  -0.698
REMARK UNBOUND:                -0.698
REMARK  Name = 
REMARK  3 active torsions:
REMARK  status: ('A' for Active; 'I' for Inactive)
REMARK    1  A    between atoms: C_2  and  C_19
REMARK    2  A    between atoms: N_3  and  C_4
REMARK    3  A    between atoms: C_4  and  C_5
REMARK                            x       y       z     vdW  Elec       q    Type
REMARK                         _______ _______ _______ _____ _____    ______ ____
ROOT
ATOM      1  C   UNL     1      49.340   6.508  17.535  0.00  0.00    +0.000 C 
ENDROOT
BRANCH   1   2
ATOM      2  C   UNL     1      48.683   6.335  16.196  0.00  0.00    +0.000 A 
ATOM      3  C   UNL     1      48.663   7.359  15.249  0.00  0.00    +0.000 A 
ATOM      4  C   UNL     1      48.004   7.175  14.029  0.00  0.00    +0.000 A 
ATOM      5  C   UNL     1      47.373   5.960  13.776  0.00  0.00    +0.000 A 
ATOM      6  N   UNL     1      46.676   5.803  12.561  0.00  0.00    +0.000 N 
ATOM      7  C   UNL     1      45.704   4.852  12.370  0.00  0.00    +0.000 C 
ATOM      8  O   UNL     1      45.245   4.120  13.249  0.00  0.00    +0.000 OA
ATOM      9  N   UNL     1      45.181   4.783  11.089  0.00  0.00    +0.000 N 
ATOM     10  C   UNL     1      44.088   3.873  10.818  0.00  0.00    +0.000 C 
ATOM     11  C   UNL     1      44.211   3.595   9.335  0.00  0.00    +0.000 C 
ATOM     12  N   UNL     1      44.893   4.791   8.806  0.00  0.00    +0.000 NA
ATOM     13  C   UNL     1      45.826   5.183   9.867  0.00  0.00    +0.000 C 
ATOM     14  N   UNL     1      47.427   4.947  14.661  0.00  0.00    +0.000 NA
ATOM     15  C   UNL     1      48.062   5.148  15.838  0.00  0.00    +0.000 A 
ATOM     16  H   UNL     1      46.673   6.588  11.933  0.00  0.00    +0.000 HD
ATOM     17  H   UNL     1      44.197   5.530   8.730  0.00  0.00    +0.000 HD
ENDBRANCH   1   2
BRANCH   1  20
ATOM     18  O   UNL     1      51.934   6.285  16.454  0.00  0.00    +0.000 OA
ATOM     19  C   UNL     1      51.568   5.474  17.300  0.00  0.00    +0.000 C 
ATOM     20  N   UNL     1      50.298   5.469  17.820  0.00  0.00    +0.000 N 
ATOM     21  H   UNL     1      50.098   4.879  18.619  0.00  0.00    +0.000 HD
BRANCH  19  22
ATOM     22  C   UNL     1      52.460   4.416  17.782  0.00  0.00    +0.000 A 
ATOM     23  C   UNL     1      53.678   4.734  18.365  0.00  0.00    +0.000 A 
ATOM     24  S   UNL     1      54.590   3.369  18.827  0.00  0.00    +0.000 S 
ATOM     25  C   UNL     1      53.361   2.306  18.317  0.00  0.00    +0.000 A 
ATOM     26  N   UNL     1      53.497   0.959  18.445  0.00  0.00    +0.000 NA
ATOM     27  C   UNL     1      52.468   0.279  18.060  0.00  0.00    +0.000 A 
ATOM     28  N   UNL     1      51.315   0.825  17.558  0.00  0.00    +0.000 N 
ATOM     29  C   UNL     1      51.154   2.175  17.359  0.00  0.00    +0.000 A 
ATOM     30  O   UNL     1      50.148   2.625  16.822  0.00  0.00    +0.000 OA
ATOM     31  C   UNL     1      52.278   2.984  17.791  0.00  0.00    +0.000 A 
ATOM     32  H   UNL     1      50.550   0.236  17.262  0.00  0.00    +0.000 HD
ENDBRANCH  19  22
ENDBRANCH   1  20
TORSDOF 3
ENDMDL
MODEL 2
REMARK VINA RESULT:    -7.239      3.044      8.806
REMARK INTER + INTRA:          -9.207
REMARK INTER:                  -8.659
REMARK INTRA:                  -0.547
REMARK UNBOUND:                -0.698
REMARK  Name = 
REMARK  3 active torsions:
REMARK  status: ('A' for Active; 'I' for Inactive)
REMARK    1  A    between atoms: C_2  and  C_19
REMARK    2  A    between atoms: N_3  and  C_4
REMARK    3  A    between atoms: C_4  and  C_5
REMARK                            x       y       z     vdW  Elec       q    Type
REMARK                         _______ _______ _______ _____ _____    ______ ____
ROOT
ATOM      1  C   UNL     1      48.981   7.511  16.217  0.00  0.00    +0.000 C 
ENDROOT
BRANCH   1   2
ATOM      2  C   UNL     1      49.670   6.243  16.628  0.00  0.00    +0.000 A 
ATOM      3  C   UNL     1      48.954   5.115  17.030  0.00  0.00    +0.000 A 
ATOM      4  C   UNL     1      49.631   3.965  17.448  0.00  0.00    +0.000 A 
ATOM      5  C   UNL     1      51.023   3.963  17.454  0.00  0.00    +0.000 A 
ATOM      6  N   UNL     1      51.693   2.813  17.919  0.00  0.00    +0.000 N 
ATOM      7  C   UNL     1      52.997   2.826  18.352  0.00  0.00    +0.000 C 
ATOM      8  O   UNL     1      53.684   3.837  18.502  0.00  0.00    +0.000 OA
ATOM      9  N   UNL     1      53.523   1.591  18.694  0.00  0.00    +0.000 N 
ATOM     10  C   UNL     1      54.859   1.520  19.247  0.00  0.00    +0.000 C 
ATOM     11  C   UNL     1      55.315   0.118  18.906  0.00  0.00    +0.000 C 
ATOM     12  N   UNL     1      54.058  -0.645  18.787  0.00  0.00    +0.000 NA
ATOM     13  C   UNL     1      53.105   0.305  18.205  0.00  0.00    +0.000 C 
ATOM     14  N   UNL     1      51.725   5.027  17.023  0.00  0.00    +0.000 NA
ATOM     15  C   UNL     1      51.051   6.133  16.631  0.00  0.00    +0.000 A 
ATOM     16  H   UNL     1      51.121   2.044  18.223  0.00  0.00    +0.000 HD
ATOM     17  H   UNL     1      53.737  -0.852  19.730  0.00  0.00    +0.000 HD
ENDBRANCH   1   2
BRANCH   1  20
ATOM     18  O   UNL     1      49.302   6.650  13.552  0.00  0.00    +0.000 OA
ATOM     19  C   UNL     1      48.169   6.798  13.998  0.00  0.00    +0.000 C 
ATOM     20  N   UNL     1      47.927   7.284  15.259  0.00  0.00    +0.000 N 
ATOM     21  H   UNL     1      46.984   7.243  15.628  0.00  0.00    +0.000 HD
BRANCH  19  22
ATOM     22  C   UNL     1      46.983   6.507  13.188  0.00  0.00    +0.000 A 
ATOM     23  C   UNL     1      46.336   7.521  12.499  0.00  0.00    +0.000 A 
ATOM     24  S   UNL     1      44.957   6.994  11.644  0.00  0.00    +0.000 S 
ATOM     25  C   UNL     1      45.212   5.378  12.119  0.00  0.00    +0.000 A 
ATOM     26  N   UNL     1      44.380   4.384  11.710  0.00  0.00    +0.000 NA
ATOM     27  C   UNL     1      44.722   3.204  12.109  0.00  0.00    +0.000 A 
ATOM     28  N   UNL     1      45.822   2.927  12.879  0.00  0.00    +0.000 N 
ATOM     29  C   UNL     1      46.660   3.904  13.360  0.00  0.00    +0.000 A 
ATOM     30  O   UNL     1      47.582   3.636  14.122  0.00  0.00    +0.000 OA
ATOM     31  C   UNL     1      46.326   5.248  12.927  0.00  0.00    +0.000 A 
ATOM     32  H   UNL     1      46.027   1.981  13.168  0.00  0.00    +0.000 HD
ENDBRANCH  19  22
ENDBRANCH   1  20
TORSDOF 3
ENDMDL
MODEL 3
REMARK VINA RESULT:    -7.192      5.400      9.418
REMARK INTER + INTRA:          -9.151
REMARK INTER:                  -8.912
REMARK INTRA:                  -0.239
REMARK UNBOUND:                -0.698
REMARK  Name = 
REMARK  3 active torsions:
REMARK  status: ('A' for Active; 'I' for Inactive)
REMARK    1  A    between atoms: C_2  and  C_19
REMARK    2  A    between atoms: N_3  and  C_4
REMARK    3  A    between atoms: C_4  and  C_5
REMARK                            x       y       z     vdW  Elec       q    Type
REMARK                         _______ _______ _______ _____ _____    ______ ____
ROOT
ATOM      1  C   UNL     1      43.665   3.186  11.776  0.00  0.00    +0.000 C 
ENDROOT
BRANCH   1   2
ATOM      2  C   UNL     1      44.494   4.305  12.335  0.00  0.00    +0.000 A 
ATOM      3  C   UNL     1      44.040   5.624  12.341  0.00  0.00    +0.000 A 
ATOM      4  C   UNL     1      44.858   6.647  12.832  0.00  0.00    +0.000 A 
ATOM      5  C   UNL     1      46.125   6.329  13.313  0.00  0.00    +0.000 A 
ATOM      6  N   UNL     1      46.956   7.375  13.764  0.00  0.00    +0.000 N 
ATOM      7  C   UNL     1      48.321   7.257  13.870  0.00  0.00    +0.000 C 
ATOM      8  O   UNL     1      48.983   6.295  13.478  0.00  0.00    +0.000 OA
ATOM      9  N   UNL     1      48.972   8.354  14.410  0.00  0.00    +0.000 N 
ATOM     10  C   UNL     1      50.419   8.356  14.477  0.00  0.00    +0.000 C 
ATOM     11  C   UNL     1      50.725   9.303  15.616  0.00  0.00    +0.000 C 
ATOM     12  N   UNL     1      49.553  10.198  15.659  0.00  0.00    +0.000 NA
ATOM     13  C   UNL     1      48.421   9.338  15.303  0.00  0.00    +0.000 C 
ATOM     14  N   UNL     1      46.556   5.055  13.358  0.00  0.00    +0.000 NA
ATOM     15  C   UNL     1      45.753   4.081  12.871  0.00  0.00    +0.000 A 
ATOM     16  H   UNL     1      46.583   8.307  13.715  0.00  0.00    +0.000 HD
ATOM     17  H   UNL     1      49.661  10.877  14.908  0.00  0.00    +0.000 HD
ENDBRANCH   1   2
BRANCH   1  20
ATOM     18  O   UNL     1      44.130   3.981   9.111  0.00  0.00    +0.000 OA
ATOM     19  C   UNL     1      44.606   2.922   9.510  0.00  0.00    +0.000 C 
ATOM     20  N   UNL     1      44.365   2.429  10.768  0.00  0.00    +0.000 N 
ATOM     21  H   UNL     1      44.901   1.633  11.093  0.00  0.00    +0.000 HD
BRANCH  19  22
ATOM     22  C   UNL     1      45.435   2.081   8.641  0.00  0.00    +0.000 A 
ATOM     23  C   UNL     1      45.304   0.700   8.667  0.00  0.00    +0.000 A 
ATOM     24  S   UNL     1      46.378  -0.106   7.616  0.00  0.00    +0.000 S 
ATOM     25  C   UNL     1      47.015   1.367   7.047  0.00  0.00    +0.000 A 
ATOM     26  N   UNL     1      47.987   1.394   6.096  0.00  0.00    +0.000 NA
ATOM     27  C   UNL     1      48.341   2.580   5.727  0.00  0.00    +0.000 A 
ATOM     28  N   UNL     1      47.810   3.744   6.222  0.00  0.00    +0.000 N 
ATOM     29  C   UNL     1      46.866   3.766   7.221  0.00  0.00    +0.000 A 
ATOM     30  O   UNL     1      46.477   4.822   7.708  0.00  0.00    +0.000 OA
ATOM     31  C   UNL     1      46.424   2.456   7.659  0.00  0.00    +0.000 A 
ATOM     32  H   UNL     1      48.140   4.641   5.900  0.00  0.00    +0.000 HD
ENDBRANCH  19  22
ENDBRANCH   1  20
TORSDOF 3
ENDMDL
MODEL 4
REMARK VINA RESULT:    -7.174      4.172      9.640
REMARK INTER + INTRA:          -9.130
REMARK INTER:                  -8.670
REMARK INTRA:                  -0.461
REMARK UNBOUND:                -0.698
REMARK  Name = 
REMARK  3 active torsions:
REMARK  status: ('A' for Active; 'I' for Inactive)
REMARK    1  A    between atoms: C_2  and  C_19
REMARK    2  A    between atoms: N_3  and  C_4
REMARK    3  A    between atoms: C_4  and  C_5
REMARK                            x       y       z     vdW  Elec       q    Type
REMARK                         _______ _______ _______ _____ _____    ______ ____
ROOT
ATOM      1  C   UNL     1      44.900   5.052  10.841  0.00  0.00    +0.000 C 
ENDROOT
BRANCH   1   2
ATOM      2  C   UNL     1      45.608   5.217  12.155  0.00  0.00    +0.000 A 
ATOM      3  C   UNL     1      46.558   6.218  12.356  0.00  0.00    +0.000 A 
ATOM      4  C   UNL     1      47.229   6.314  13.581  0.00  0.00    +0.000 A 
ATOM      5  C   UNL     1      46.933   5.401  14.588  0.00  0.00    +0.000 A 
ATOM      6  N   UNL     1      47.647   5.481  15.801  0.00  0.00    +0.000 N 
ATOM      7  C   UNL     1      47.747   4.434  16.685  0.00  0.00    +0.000 C 
ATOM      8  O   UNL     1      47.342   3.289  16.477  0.00  0.00    +0.000 OA
ATOM      9  N   UNL     1      48.415   4.714  17.866  0.00  0.00    +0.000 N 
ATOM     10  C   UNL     1      48.648   3.648  18.817  0.00  0.00    +0.000 C 
ATOM     11  C   UNL     1      48.783   4.369  20.140  0.00  0.00    +0.000 C 
ATOM     12  N   UNL     1      49.243   5.719  19.763  0.00  0.00    +0.000 NA
ATOM     13  C   UNL     1      48.563   5.999  18.495  0.00  0.00    +0.000 C 
ATOM     14  N   UNL     1      45.983   4.461  14.423  0.00  0.00    +0.000 NA
ATOM     15  C   UNL     1      45.352   4.380  13.229  0.00  0.00    +0.000 A 
ATOM     16  H   UNL     1      48.340   6.205  15.874  0.00  0.00    +0.000 HD
ATOM     17  H   UNL     1      50.239   5.656  19.562  0.00  0.00    +0.000 HD
ENDBRANCH   1   2
BRANCH   1  20
ATOM     18  O   UNL     1      43.809   2.567  10.080  0.00  0.00    +0.000 OA
ATOM     19  C   UNL     1      44.894   2.910   9.618  0.00  0.00    +0.000 C 
ATOM     20  N   UNL     1      45.526   4.068   9.994  0.00  0.00    +0.000 N 
ATOM     21  H   UNL     1      46.339   4.374   9.472  0.00  0.00    +0.000 HD
BRANCH  19  22
ATOM     22  C   UNL     1      45.615   2.071   8.656  0.00  0.00    +0.000 A 
ATOM     23  C   UNL     1      45.552   0.688   8.744  0.00  0.00    +0.000 A 
ATOM     24  S   UNL     1      46.485  -0.113   7.563  0.00  0.00    +0.000 S 
ATOM     25  C   UNL     1      46.960   1.363   6.857  0.00  0.00    +0.000 A 
ATOM     26  N   UNL     1      47.772   1.393   5.766  0.00  0.00    +0.000 NA
ATOM     27  C   UNL     1      48.010   2.578   5.310  0.00  0.00    +0.000 A 
ATOM     28  N   UNL     1      47.510   3.737   5.847  0.00  0.00    +0.000 N 
ATOM     29  C   UNL     1      46.732   3.758   6.980  0.00  0.00    +0.000 A 
ATOM     30  O   UNL     1      46.376   4.815   7.489  0.00  0.00    +0.000 OA
ATOM     31  C   UNL     1      46.422   2.448   7.521  0.00  0.00    +0.000 A 
ATOM     32  H   UNL     1      47.745   4.634   5.450  0.00  0.00    +0.000 HD
ENDBRANCH  19  22
ENDBRANCH   1  20
TORSDOF 3
ENDMDL
MODEL 5
REMARK VINA RESULT:    -6.995      3.462      9.458
REMARK INTER + INTRA:          -8.919
REMARK INTER:                  -8.261
REMARK INTRA:                  -0.658
REMARK UNBOUND:                -0.698
REMARK  Name = 
REMARK  3 active torsions:
REMARK  status: ('A' for Active; 'I' for Inactive)
REMARK    1  A    between atoms: C_2  and  C_19
REMARK    2  A    between atoms: N_3  and  C_4
REMARK    3  A    between atoms: C_4  and  C_5
REMARK                            x       y       z     vdW  Elec       q    Type
REMARK                         _______ _______ _______ _____ _____    ______ ____
ROOT
ATOM      1  C   UNL     1      47.523   7.581  12.049  0.00  0.00    +0.000 C 
ENDROOT
BRANCH   1   2
ATOM      2  C   UNL     1      48.493   7.467  13.189  0.00  0.00    +0.000 A 
ATOM      3  C   UNL     1      49.676   8.204  13.224  0.00  0.00    +0.000 A 
ATOM      4  C   UNL     1      50.576   8.039  14.282  0.00  0.00    +0.000 A 
ATOM      5  C   UNL     1      50.273   7.133  15.294  0.00  0.00    +0.000 A 
ATOM      6  N   UNL     1      51.209   6.944  16.332  0.00  0.00    +0.000 N 
ATOM      7  C   UNL     1      51.225   5.829  17.134  0.00  0.00    +0.000 C 
ATOM      8  O   UNL     1      50.526   4.828  16.973  0.00  0.00    +0.000 OA
ATOM      9  N   UNL     1      52.159   5.847  18.157  0.00  0.00    +0.000 N 
ATOM     10  C   UNL     1      52.311   4.677  18.997  0.00  0.00    +0.000 C 
ATOM     11  C   UNL     1      52.871   5.232  20.289  0.00  0.00    +0.000 C 
ATOM     12  N   UNL     1      53.559   6.469  19.875  0.00  0.00    +0.000 NA
ATOM     13  C   UNL     1      52.731   7.005  18.790  0.00  0.00    +0.000 C 
ATOM     14  N   UNL     1      49.112   6.451  15.297  0.00  0.00    +0.000 NA
ATOM     15  C   UNL     1      48.259   6.619  14.261  0.00  0.00    +0.000 A 
ATOM     16  H   UNL     1      52.056   7.483  16.284  0.00  0.00    +0.000 HD
ATOM     17  H   UNL     1      54.452   6.200  19.466  0.00  0.00    +0.000 HD
ENDBRANCH   1   2
BRANCH   1  20
ATOM     18  O   UNL     1      44.714   7.353  11.961  0.00  0.00    +0.000 OA
ATOM     19  C   UNL     1      45.401   6.359  11.742  0.00  0.00    +0.000 C 
ATOM     20  N   UNL     1      46.770   6.370  11.838  0.00  0.00    +0.000 N 
ATOM     21  H   UNL     1      47.291   5.568  11.502  0.00  0.00    +0.000 HD
BRANCH  19  22
ATOM     22  C   UNL     1      44.793   5.068  11.405  0.00  0.00    +0.000 A 
ATOM     23  C   UNL     1      43.952   4.431  12.305  0.00  0.00    +0.000 A 
ATOM     24  S   UNL     1      43.375   2.926  11.750  0.00  0.00    +0.000 S 
ATOM     25  C   UNL     1      44.184   3.102  10.261  0.00  0.00    +0.000 A 
ATOM     26  N   UNL     1      44.094   2.149   9.294  0.00  0.00    +0.000 NA
ATOM     27  C   UNL     1      44.720   2.438   8.202  0.00  0.00    +0.000 A 
ATOM     28  N   UNL     1      45.427   3.593   7.988  0.00  0.00    +0.000 N 
ATOM     29  C   UNL     1      45.590   4.557   8.954  0.00  0.00    +0.000 A 
ATOM     30  O   UNL     1      46.304   5.535   8.764  0.00  0.00    +0.000 OA
ATOM     31  C   UNL     1      44.892   4.286  10.196  0.00  0.00    +0.000 A 
ATOM     32  H   UNL     1      45.906   3.752   7.113  0.00  0.00    +0.000 HD
ENDBRANCH  19  22
ENDBRANCH   1  20
TORSDOF 3
ENDMDL
MODEL 6
REMARK VINA RESULT:    -6.962      3.421      9.161
REMARK INTER + INTRA:          -8.881
REMARK INTER:                  -8.347
REMARK INTRA:                  -0.534
REMARK UNBOUND:                -0.698
REMARK  Name = 
REMARK  3 active torsions:
REMARK  status: ('A' for Active; 'I' for Inactive)
REMARK    1  A    between atoms: C_2  and  C_19
REMARK    2  A    between atoms: N_3  and  C_4
REMARK    3  A    between atoms: C_4  and  C_5
REMARK                            x       y       z     vdW  Elec       q    Type
REMARK                         _______ _______ _______ _____ _____    ______ ____
ROOT
ATOM      1  C   UNL     1      48.105   8.136  12.271  0.00  0.00    +0.000 C 
ENDROOT
BRANCH   1   2
ATOM      2  C   UNL     1      49.009   7.791  13.418  0.00  0.00    +0.000 A 
ATOM      3  C   UNL     1      50.265   8.378  13.567  0.00  0.00    +0.000 A 
ATOM      4  C   UNL     1      51.097   7.999  14.626  0.00  0.00    +0.000 A 
ATOM      5  C   UNL     1      50.653   7.033  15.524  0.00  0.00    +0.000 A 
ATOM      6  N   UNL     1      51.518   6.629  16.561  0.00  0.00    +0.000 N 
ATOM      7  C   UNL     1      51.377   5.441  17.237  0.00  0.00    +0.000 C 
ATOM      8  O   UNL     1      50.576   4.551  16.948  0.00  0.00    +0.000 OA
ATOM      9  N   UNL     1      52.264   5.242  18.282  0.00  0.00    +0.000 N 
ATOM     10  C   UNL     1      52.250   3.981  18.994  0.00  0.00    +0.000 C 
ATOM     11  C   UNL     1      52.815   4.328  20.353  0.00  0.00    +0.000 C 
ATOM     12  N   UNL     1      53.654   5.514  20.097  0.00  0.00    +0.000 NA
ATOM     13  C   UNL     1      52.937   6.253  19.054  0.00  0.00    +0.000 C 
ATOM     14  N   UNL     1      49.424   6.494  15.420  0.00  0.00    +0.000 NA
ATOM     15  C   UNL     1      48.638   6.868  14.384  0.00  0.00    +0.000 A 
ATOM     16  H   UNL     1      52.422   7.067  16.597  0.00  0.00    +0.000 HD
ATOM     17  H   UNL     1      54.527   5.187  19.686  0.00  0.00    +0.000 HD
ENDBRANCH   1   2
BRANCH   1  20
ATOM     18  O   UNL     1      45.341   7.930  11.757  0.00  0.00    +0.000 OA
ATOM     19  C   UNL     1      46.075   6.993  11.457  0.00  0.00    +0.000 C 
ATOM     20  N   UNL     1      47.418   6.985  11.740  0.00  0.00    +0.000 N 
ATOM     21  H   UNL     1      47.999   6.259  11.337  0.00  0.00    +0.000 HD
BRANCH  19  22
ATOM     22  C   UNL     1      45.551   5.787  10.809  0.00  0.00    +0.000 A 
ATOM     23  C   UNL     1      45.812   5.539   9.470  0.00  0.00    +0.000 A 
ATOM     24  S   UNL     1      45.087   4.109   8.888  0.00  0.00    +0.000 S 
ATOM     25  C   UNL     1      44.448   3.742  10.423  0.00  0.00    +0.000 A 
ATOM     26  N   UNL     1      43.715   2.615  10.630  0.00  0.00    +0.000 NA
ATOM     27  C   UNL     1      43.336   2.442  11.852  0.00  0.00    +0.000 A 
ATOM     28  N   UNL     1      43.622   3.294  12.888  0.00  0.00    +0.000 N 
ATOM     29  C   UNL     1      44.311   4.471  12.716  0.00  0.00    +0.000 A 
ATOM     30  O   UNL     1      44.473   5.257  13.643  0.00  0.00    +0.000 OA
ATOM     31  C   UNL     1      44.774   4.703  11.361  0.00  0.00    +0.000 A 
ATOM     32  H   UNL     1      43.284   3.108  13.821  0.00  0.00    +0.000 HD
ENDBRANCH  19  22
ENDBRANCH   1  20
TORSDOF 3
ENDMDL
MODEL 7
REMARK VINA RESULT:    -6.760      3.383      9.754
REMARK INTER + INTRA:          -8.643
REMARK INTER:                  -8.146
REMARK INTRA:                  -0.498
REMARK UNBOUND:                -0.698
REMARK  Name = 
REMARK  3 active torsions:
REMARK  status: ('A' for Active; 'I' for Inactive)
REMARK    1  A    between atoms: C_2  and  C_19
REMARK    2  A    between atoms: N_3  and  C_4
REMARK    3  A    between atoms: C_4  and  C_5
REMARK                            x       y       z     vdW  Elec       q    Type
REMARK                         _______ _______ _______ _____ _____    ______ ____
ROOT
ATOM      1  C   UNL     1      47.272   3.471  16.432  0.00  0.00    +0.000 C 
ENDROOT
BRANCH   1   2
ATOM      2  C   UNL     1      48.582   3.864  17.050  0.00  0.00    +0.000 A 
ATOM      3  C   UNL     1      49.595   2.934  17.278  0.00  0.00    +0.000 A 
ATOM      4  C   UNL     1      50.787   3.330  17.896  0.00  0.00    +0.000 A 
ATOM      5  C   UNL     1      50.943   4.659  18.276  0.00  0.00    +0.000 A 
ATOM      6  N   UNL     1      52.131   5.036  18.936  0.00  0.00    +0.000 N 
ATOM      7  C   UNL     1      52.236   6.171  19.703  0.00  0.00    +0.000 C 
ATOM      8  O   UNL     1      51.301   6.915  20.002  0.00  0.00    +0.000 OA
ATOM      9  N   UNL     1      53.499   6.431  20.210  0.00  0.00    +0.000 N 
ATOM     10  C   UNL     1      53.685   7.555  21.103  0.00  0.00    +0.000 C 
ATOM     11  C   UNL     1      55.147   7.907  20.938  0.00  0.00    +0.000 C 
ATOM     12  N   UNL     1      55.771   6.642  20.509  0.00  0.00    +0.000 NA
ATOM     13  C   UNL     1      54.758   6.000  19.665  0.00  0.00    +0.000 C 
ATOM     14  N   UNL     1      49.993   5.577  18.017  0.00  0.00    +0.000 NA
ATOM     15  C   UNL     1      48.845   5.172  17.427  0.00  0.00    +0.000 A 
ATOM     16  H   UNL     1      52.810   4.313  19.099  0.00  0.00    +0.000 HD
ATOM     17  H   UNL     1      55.883   6.061  21.337  0.00  0.00    +0.000 HD
ENDBRANCH   1   2
BRANCH   1  20
ATOM     18  O   UNL     1      47.494   3.391  13.623  0.00  0.00    +0.000 OA
ATOM     19  C   UNL     1      46.869   4.309  14.146  0.00  0.00    +0.000 C 
ATOM     20  N   UNL     1      46.777   4.460  15.507  0.00  0.00    +0.000 N 
ATOM     21  H   UNL     1      46.127   5.142  15.881  0.00  0.00    +0.000 HD
BRANCH  19  22
ATOM     22  C   UNL     1      46.210   5.342  13.341  0.00  0.00    +0.000 A 
ATOM     23  C   UNL     1      46.867   6.527  13.045  0.00  0.00    +0.000 A 
ATOM     24  S   UNL     1      45.926   7.618  12.133  0.00  0.00    +0.000 S 
ATOM     25  C   UNL     1      44.628   6.518  12.052  0.00  0.00    +0.000 A 
ATOM     26  N   UNL     1      43.483   6.827  11.386  0.00  0.00    +0.000 NA
ATOM     27  C   UNL     1      42.604   5.881  11.368  0.00  0.00    +0.000 A 
ATOM     28  N   UNL     1      42.766   4.653  11.956  0.00  0.00    +0.000 N 
ATOM     29  C   UNL     1      43.881   4.317  12.685  0.00  0.00    +0.000 A 
ATOM     30  O   UNL     1      43.958   3.245  13.276  0.00  0.00    +0.000 OA
ATOM     31  C   UNL     1      44.906   5.342  12.722  0.00  0.00    +0.000 A 
ATOM     32  H   UNL     1      42.033   3.959  11.916  0.00  0.00    +0.000 HD
ENDBRANCH  19  22
ENDBRANCH   1  20
TORSDOF 3
ENDMDL
MODEL 8
REMARK VINA RESULT:    -6.524      2.877      9.153
REMARK INTER + INTRA:          -8.366
REMARK INTER:                  -7.790
REMARK INTRA:                  -0.576
REMARK UNBOUND:                -0.698
REMARK  Name = 
REMARK  3 active torsions:
REMARK  status: ('A' for Active; 'I' for Inactive)
REMARK    1  A    between atoms: C_2  and  C_19
REMARK    2  A    between atoms: N_3  and  C_4
REMARK    3  A    between atoms: C_4  and  C_5
REMARK                            x       y       z     vdW  Elec       q    Type
REMARK                         _______ _______ _______ _____ _____    ______ ____
ROOT
ATOM      1  C   UNL     1      48.858   6.803  16.484  0.00  0.00    +0.000 C 
ENDROOT
BRANCH   1   2
ATOM      2  C   UNL     1      49.924   5.823  16.882  0.00  0.00    +0.000 A 
ATOM      3  C   UNL     1      51.272   6.178  16.919  0.00  0.00    +0.000 A 
ATOM      4  C   UNL     1      52.240   5.226  17.254  0.00  0.00    +0.000 A 
ATOM      5  C   UNL     1      51.839   3.926  17.547  0.00  0.00    +0.000 A 
ATOM      6  N   UNL     1      52.829   2.965  17.840  0.00  0.00    +0.000 N 
ATOM      7  C   UNL     1      52.614   1.612  17.743  0.00  0.00    +0.000 C 
ATOM      8  O   UNL     1      51.600   1.085  17.283  0.00  0.00    +0.000 OA
ATOM      9  N   UNL     1      53.669   0.811  18.148  0.00  0.00    +0.000 N 
ATOM     10  C   UNL     1      53.567  -0.625  17.997  0.00  0.00    +0.000 C 
ATOM     11  C   UNL     1      54.509  -1.166  19.050  0.00  0.00    +0.000 C 
ATOM     12  N   UNL     1      55.487  -0.079  19.244  0.00  0.00    +0.000 NA
ATOM     13  C   UNL     1      54.705   1.151  19.086  0.00  0.00    +0.000 C 
ATOM     14  N   UNL     1      50.538   3.583  17.562  0.00  0.00    +0.000 NA
ATOM     15  C   UNL     1      49.618   4.516  17.228  0.00  0.00    +0.000 A 
ATOM     16  H   UNL     1      53.785   3.276  17.821  0.00  0.00    +0.000 HD
ATOM     17  H   UNL     1      56.144  -0.119  18.467  0.00  0.00    +0.000 HD
ENDBRANCH   1   2
BRANCH   1  20
ATOM     18  O   UNL     1      48.914   6.648  13.670  0.00  0.00    +0.000 OA
ATOM     19  C   UNL     1      47.988   6.119  14.279  0.00  0.00    +0.000 C 
ATOM     20  N   UNL     1      47.849   6.212  15.641  0.00  0.00    +0.000 N 
ATOM     21  H   UNL     1      47.157   5.634  16.103  0.00  0.00    +0.000 HD
BRANCH  19  22
ATOM     22  C   UNL     1      46.932   5.383  13.576  0.00  0.00    +0.000 A 
ATOM     23  C   UNL     1      46.922   3.997  13.579  0.00  0.00    +0.000 A 
ATOM     24  S   UNL     1      45.639   3.324  12.678  0.00  0.00    +0.000 S 
ATOM     25  C   UNL     1      45.020   4.866  12.303  0.00  0.00    +0.000 A 
ATOM     26  N   UNL     1      43.894   5.009  11.554  0.00  0.00    +0.000 NA
ATOM     27  C   UNL     1      43.515   6.233  11.389  0.00  0.00    +0.000 A 
ATOM     28  N   UNL     1      44.160   7.327  11.906  0.00  0.00    +0.000 N 
ATOM     29  C   UNL     1      45.329   7.234  12.621  0.00  0.00    +0.000 A 
ATOM     30  O   UNL     1      45.932   8.235  12.992  0.00  0.00    +0.000 OA
ATOM     31  C   UNL     1      45.788   5.876  12.848  0.00  0.00    +0.000 A 
ATOM     32  H   UNL     1      43.818   8.261  11.729  0.00  0.00    +0.000 HD
ENDBRANCH  19  22
ENDBRANCH   1  20
TORSDOF 3
ENDMDL
MODEL 9
REMARK VINA RESULT:    -6.038      3.664      9.514
REMARK INTER + INTRA:          -7.795
REMARK INTER:                  -7.074
REMARK INTRA:                  -0.721
REMARK UNBOUND:                -0.698
REMARK  Name = 
REMARK  3 active torsions:
REMARK  status: ('A' for Active; 'I' for Inactive)
REMARK    1  A    between atoms: C_2  and  C_19
REMARK    2  A    between atoms: N_3  and  C_4
REMARK    3  A    between atoms: C_4  and  C_5
REMARK                            x       y       z     vdW  Elec       q    Type
REMARK                         _______ _______ _______ _____ _____    ______ ____
ROOT
ATOM      1  C   UNL     1      47.426   3.458  16.479  0.00  0.00    +0.000 C 
ENDROOT
BRANCH   1   2
ATOM      2  C   UNL     1      48.717   4.023  16.996  0.00  0.00    +0.000 A 
ATOM      3  C   UNL     1      49.774   3.202  17.389  0.00  0.00    +0.000 A 
ATOM      4  C   UNL     1      50.946   3.764  17.906  0.00  0.00    +0.000 A 
ATOM      5  C   UNL     1      51.041   5.148  18.020  0.00  0.00    +0.000 A 
ATOM      6  N   UNL     1      52.210   5.699  18.583  0.00  0.00    +0.000 N 
ATOM      7  C   UNL     1      52.263   6.964  19.115  0.00  0.00    +0.000 C 
ATOM      8  O   UNL     1      51.294   7.709  19.275  0.00  0.00    +0.000 OA
ATOM      9  N   UNL     1      53.513   7.375  19.550  0.00  0.00    +0.000 N 
ATOM     10  C   UNL     1      53.647   8.659  20.207  0.00  0.00    +0.000 C 
ATOM     11  C   UNL     1      55.091   9.039  19.961  0.00  0.00    +0.000 C 
ATOM     12  N   UNL     1      55.773   7.744  19.778  0.00  0.00    +0.000 NA
ATOM     13  C   UNL     1      54.790   6.905  19.085  0.00  0.00    +0.000 C 
ATOM     14  N   UNL     1      50.048   5.953  17.600  0.00  0.00    +0.000 NA
ATOM     15  C   UNL     1      48.920   5.390  17.110  0.00  0.00    +0.000 A 
ATOM     16  H   UNL     1      52.922   5.053  18.875  0.00  0.00    +0.000 HD
ATOM     17  H   UNL     1      55.913   7.340  20.702  0.00  0.00    +0.000 HD
ENDBRANCH   1   2
BRANCH   1  20
ATOM     18  O   UNL     1      47.448   3.271  13.666  0.00  0.00    +0.000 OA
ATOM     19  C   UNL     1      46.769   4.143  14.201  0.00  0.00    +0.000 C 
ATOM     20  N   UNL     1      46.762   4.347  15.558  0.00  0.00    +0.000 N 
ATOM     21  H   UNL     1      46.073   4.975  15.955  0.00  0.00    +0.000 HD
BRANCH  19  22
ATOM     22  C   UNL     1      45.946   5.064  13.411  0.00  0.00    +0.000 A 
ATOM     23  C   UNL     1      44.733   4.648  12.884  0.00  0.00    +0.000 A 
ATOM     24  S   UNL     1      43.942   5.847  11.966  0.00  0.00    +0.000 S 
ATOM     25  C   UNL     1      45.167   6.984  12.291  0.00  0.00    +0.000 A 
ATOM     26  N   UNL     1      45.099   8.252  11.803  0.00  0.00    +0.000 NA
ATOM     27  C   UNL     1      46.074   9.017  12.168  0.00  0.00    +0.000 A 
ATOM     28  N   UNL     1      47.111   8.630  12.978  0.00  0.00    +0.000 N 
ATOM     29  C   UNL     1      47.249   7.346  13.448  0.00  0.00    +0.000 A 
ATOM     30  O   UNL     1      48.235   7.006  14.094  0.00  0.00    +0.000 OA
ATOM     31  C   UNL     1      46.170   6.451  13.078  0.00  0.00    +0.000 A 
ATOM     32  H   UNL     1      47.850   9.275  13.216  0.00  0.00    +0.000 HD
ENDBRANCH  19  22
ENDBRANCH   1  20
TORSDOF 3
ENDMDL
