MODEL 1
REMARK VINA RESULT:    -7.974      0.000      0.000
REMARK INTER + INTRA:         -11.106
REMARK INTER:                 -10.305
REMARK INTRA:                  -0.801
REMARK UNBOUND:                -0.801
REMARK  Name = 
REMARK  5 active torsions:
REMARK  status: ('A' for Active; 'I' for Inactive)
REMARK    1  A    between atoms: C_2  and  C_17
REMARK    2  A    between atoms: N_3  and  C_4
REMARK    3  A    between atoms: C_4  and  C_5
REMARK    4  A    between atoms: C_8  and  C_9
REMARK    5  A    between atoms: C_9  and  C_10
REMARK                            x       y       z     vdW  Elec       q    Type
REMARK                         _______ _______ _______ _____ _____    ______ ____
ROOT
ATOM      1  O   UNL     1      46.550   3.242  13.790  0.00  0.00    +0.000 OA
ATOM      2  C   UNL     1      46.363   4.415  14.097  0.00  0.00    +0.000 C 
ATOM      3  N   UNL     1      45.166   5.049  13.885  0.00  0.00    +0.000 N 
ATOM      4  H   UNL     1      45.110   6.053  14.018  0.00  0.00    +0.000 HD
ENDROOT
BRANCH   2   5
ATOM      5  C   UNL     1      47.410   5.213  14.748  0.00  0.00    +0.000 A 
ATOM      6  C   UNL     1      48.086   6.190  14.027  0.00  0.00    +0.000 A 
ATOM      7  S   UNL     1      49.244   7.039  14.947  0.00  0.00    +0.000 S 
ATOM      8  C   UNL     1      48.853   6.159  16.349  0.00  0.00    +0.000 A 
ATOM      9  N   UNL     1      49.460   6.434  17.539  0.00  0.00    +0.000 NA
ATOM     10  C   UNL     1      49.035   5.724  18.530  0.00  0.00    +0.000 A 
ATOM     11  N   UNL     1      48.079   4.743  18.434  0.00  0.00    +0.000 N 
ATOM     12  C   UNL     1      47.509   4.372  17.243  0.00  0.00    +0.000 A 
ATOM     13  O   UNL     1      46.782   3.387  17.166  0.00  0.00    +0.000 OA
ATOM     14  C   UNL     1      47.891   5.196  16.110  0.00  0.00    +0.000 A 
ATOM     15  H   UNL     1      47.825   4.191  19.242  0.00  0.00    +0.000 HD
ENDBRANCH   2   5
BRANCH   3  16
ATOM     16  C   UNL     1      44.073   4.445  13.169  0.00  0.00    +0.000 C 
BRANCH  16  17
ATOM     17  C   UNL     1      44.364   4.334  11.702  0.00  0.00    +0.000 A 
ATOM     18  C   UNL     1      45.023   5.357  11.028  0.00  0.00    +0.000 A 
ATOM     19  C   UNL     1      45.286   5.233   9.668  0.00  0.00    +0.000 A 
ATOM     20  C   UNL     1      44.927   4.065   9.002  0.00  0.00    +0.000 A 
ATOM     21  N   UNL     1      44.257   3.068   9.631  0.00  0.00    +0.000 NA
ATOM     22  C   UNL     1      43.973   3.233  10.949  0.00  0.00    +0.000 A 
BRANCH  20  23
ATOM     23  C   UNL     1      45.208   3.885   7.526  0.00  0.00    +0.000 C 
BRANCH  23  24
ATOM     24  C   UNL     1      46.603   3.333   7.165  0.00  0.00    +0.000 C 
ATOM     25  C   UNL     1      46.794   3.023   5.684  0.00  0.00    +0.000 C 
ATOM     26  C   UNL     1      47.834   1.926   5.644  0.00  0.00    +0.000 C 
ATOM     27  C   UNL     1      47.691   1.212   6.973  0.00  0.00    +0.000 C 
ATOM     28  N   UNL     1      46.807   2.022   7.809  0.00  0.00    +0.000 NA
ATOM     29  H   UNL     1      47.203   2.144   8.741  0.00  0.00    +0.000 HD
ENDBRANCH  23  24
ENDBRANCH  20  23
ENDBRANCH  16  17
ENDBRANCH   3  16
TORSDOF 5
ENDMDL
MODEL 2
REMARK VINA RESULT:    -7.727      1.811      2.566
REMARK INTER + INTRA:         -10.786
REMARK INTER:                 -10.260
REMARK INTRA:                  -0.526
REMARK UNBOUND:                -0.801
REMARK  Name = 
REMARK  5 active torsions:
REMARK  status: ('A' for Active; 'I' for Inactive)
REMARK    1  A    between atoms: C_2  and  C_17
REMARK    2  A    between atoms: N_3  and  C_4
REMARK    3  A    between atoms: C_4  and  C_5
REMARK    4  A    between atoms: C_8  and  C_9
REMARK    5  A    between atoms: C_9  and  C_10
REMARK                            x       y       z     vdW  Elec       q    Type
REMARK                         _______ _______ _______ _____ _____    ______ ____
ROOT
ATOM      1  O   UNL     1      49.230   6.635  13.535  0.00  0.00    +0.000 OA
ATOM      2  C   UNL     1      48.333   6.544  14.369  0.00  0.00    +0.000 C 
ATOM      3  N   UNL     1      47.012   6.716  14.051  0.00  0.00    +0.000 N 
ATOM      4  H   UNL     1      46.328   6.777  14.798  0.00  0.00    +0.000 HD
ENDROOT
BRANCH   2   5
ATOM      5  C   UNL     1      48.622   6.207  15.769  0.00  0.00    +0.000 A 
ATOM      6  C   UNL     1      49.270   7.127  16.584  0.00  0.00    +0.000 A 
ATOM      7  S   UNL     1      49.494   6.582  18.184  0.00  0.00    +0.000 S 
ATOM      8  C   UNL     1      48.698   5.117  17.854  0.00  0.00    +0.000 A 
ATOM      9  N   UNL     1      48.497   4.193  18.837  0.00  0.00    +0.000 NA
ATOM     10  C   UNL     1      47.839   3.148  18.459  0.00  0.00    +0.000 A 
ATOM     11  N   UNL     1      47.387   2.930  17.181  0.00  0.00    +0.000 N 
ATOM     12  C   UNL     1      47.646   3.788  16.143  0.00  0.00    +0.000 A 
ATOM     13  O   UNL     1      47.371   3.486  14.986  0.00  0.00    +0.000 OA
ATOM     14  C   UNL     1      48.311   5.019  16.531  0.00  0.00    +0.000 A 
ATOM     15  H   UNL     1      46.918   2.068  16.942  0.00  0.00    +0.000 HD
ENDBRANCH   2   5
BRANCH   3  16
ATOM     16  C   UNL     1      46.566   7.148  12.751  0.00  0.00    +0.000 C 
BRANCH  16  17
ATOM     17  C   UNL     1      45.975   6.017  11.963  0.00  0.00    +0.000 A 
ATOM     18  C   UNL     1      45.617   4.826  12.587  0.00  0.00    +0.000 A 
ATOM     19  C   UNL     1      45.068   3.792  11.838  0.00  0.00    +0.000 A 
ATOM     20  C   UNL     1      44.840   3.973  10.476  0.00  0.00    +0.000 A 
ATOM     21  N   UNL     1      45.210   5.113   9.842  0.00  0.00    +0.000 NA
ATOM     22  C   UNL     1      45.784   6.091  10.589  0.00  0.00    +0.000 A 
BRANCH  20  23
ATOM     23  C   UNL     1      44.232   2.876   9.630  0.00  0.00    +0.000 C 
BRANCH  23  24
ATOM     24  C   UNL     1      44.926   2.599   8.280  0.00  0.00    +0.000 C 
ATOM     25  C   UNL     1      46.163   1.712   8.377  0.00  0.00    +0.000 C 
ATOM     26  C   UNL     1      47.028   2.117   7.205  0.00  0.00    +0.000 C 
ATOM     27  C   UNL     1      46.649   3.557   6.925  0.00  0.00    +0.000 C 
ATOM     28  N   UNL     1      45.460   3.855   7.721  0.00  0.00    +0.000 NA
ATOM     29  H   UNL     1      44.752   4.319   7.152  0.00  0.00    +0.000 HD
ENDBRANCH  23  24
ENDBRANCH  20  23
ENDBRANCH  16  17
ENDBRANCH   3  16
TORSDOF 5
ENDMDL
MODEL 3
REMARK VINA RESULT:    -7.703      1.663      2.144
REMARK INTER + INTRA:         -10.755
REMARK INTER:                 -10.036
REMARK INTRA:                  -0.719
REMARK UNBOUND:                -0.801
REMARK  Name = 
REMARK  5 active torsions:
REMARK  status: ('A' for Active; 'I' for Inactive)
REMARK    1  A    between atoms: C_2  and  C_17
REMARK    2  A    between atoms: N_3  and  C_4
REMARK    3  A    between atoms: C_4  and  C_5
REMARK    4  A    between atoms: C_8  and  C_9
REMARK    5  A    between atoms: C_9  and  C_10
REMARK                            x       y       z     vdW  Elec       q    Type
REMARK                         _______ _______ _______ _____ _____    ______ ____
ROOT
ATOM      1  O   UNL     1      48.141   7.601  12.750  0.00  0.00    +0.000 OA
ATOM      2  C   UNL     1      47.556   7.042  13.672  0.00  0.00    +0.000 C 
ATOM      3  N   UNL     1      46.208   6.793  13.646  0.00  0.00    +0.000 N 
ATOM      4  H   UNL     1      45.750   6.465  14.489  0.00  0.00    +0.000 HD
ENDROOT
BRANCH   2   5
ATOM      5  C   UNL     1      48.276   6.569  14.862  0.00  0.00    +0.000 A 
ATOM      6  C   UNL     1      49.310   7.330  15.394  0.00  0.00    +0.000 A 
ATOM      7  S   UNL     1      50.011   6.647  16.790  0.00  0.00    +0.000 S 
ATOM      8  C   UNL     1      48.932   5.333  16.754  0.00  0.00    +0.000 A 
ATOM      9  N   UNL     1      48.961   4.378  17.728  0.00  0.00    +0.000 NA
ATOM     10  C   UNL     1      48.057   3.464  17.603  0.00  0.00    +0.000 A 
ATOM     11  N   UNL     1      47.145   3.402  16.579  0.00  0.00    +0.000 N 
ATOM     12  C   UNL     1      47.139   4.288  15.532  0.00  0.00    +0.000 A 
ATOM     13  O   UNL     1      46.421   4.111  14.553  0.00  0.00    +0.000 OA
ATOM     14  C   UNL     1      48.083   5.385  15.666  0.00  0.00    +0.000 A 
ATOM     15  H   UNL     1      46.493   2.632  16.516  0.00  0.00    +0.000 HD
ENDBRANCH   2   5
BRANCH   3  16
ATOM     16  C   UNL     1      45.340   7.278  12.604  0.00  0.00    +0.000 C 
BRANCH  16  17
ATOM     17  C   UNL     1      45.231   6.300  11.472  0.00  0.00    +0.000 A 
ATOM     18  C   UNL     1      44.252   5.311  11.478  0.00  0.00    +0.000 A 
ATOM     19  C   UNL     1      44.167   4.416  10.418  0.00  0.00    +0.000 A 
ATOM     20  C   UNL     1      45.034   4.546   9.337  0.00  0.00    +0.000 A 
ATOM     21  N   UNL     1      46.015   5.482   9.323  0.00  0.00    +0.000 NA
ATOM     22  C   UNL     1      46.104   6.315  10.392  0.00  0.00    +0.000 A 
BRANCH  20  23
ATOM     23  C   UNL     1      44.964   3.600   8.157  0.00  0.00    +0.000 C 
BRANCH  23  24
ATOM     24  C   UNL     1      46.313   3.057   7.644  0.00  0.00    +0.000 C 
ATOM     25  C   UNL     1      46.474   3.099   6.128  0.00  0.00    +0.000 C 
ATOM     26  C   UNL     1      47.433   1.975   5.804  0.00  0.00    +0.000 C 
ATOM     27  C   UNL     1      47.246   0.974   6.927  0.00  0.00    +0.000 C 
ATOM     28  N   UNL     1      46.426   1.619   7.951  0.00  0.00    +0.000 NA
ATOM     29  H   UNL     1      46.835   1.486   8.876  0.00  0.00    +0.000 HD
ENDBRANCH  23  24
ENDBRANCH  20  23
ENDBRANCH  16  17
ENDBRANCH   3  16
TORSDOF 5
ENDMDL
MODEL 4
REMARK VINA RESULT:    -7.519      2.035      3.097
REMARK INTER + INTRA:         -10.517
REMARK INTER:                  -9.734
REMARK INTRA:                  -0.783
REMARK UNBOUND:                -0.801
REMARK  Name = 
REMARK  5 active torsions:
REMARK  status: ('A' for Active; 'I' for Inactive)
REMARK    1  A    between atoms: C_2  and  C_17
REMARK    2  A    between atoms: N_3  and  C_4
REMARK    3  A    between atoms: C_4  and  C_5
REMARK    4  A    between atoms: C_8  and  C_9
REMARK    5  A    between atoms: C_9  and  C_10
REMARK                            x       y       z     vdW  Elec       q    Type
REMARK                         _______ _______ _______ _____ _____    ______ ____
ROOT
ATOM      1  O   UNL     1      46.810   3.909  14.371  0.00  0.00    +0.000 OA
ATOM      2  C   UNL     1      46.790   5.121  14.174  0.00  0.00    +0.000 C 
ATOM      3  N   UNL     1      45.688   5.769  13.681  0.00  0.00    +0.000 N 
ATOM      4  H   UNL     1      45.772   6.739  13.398  0.00  0.00    +0.000 HD
ENDROOT
BRANCH   2   5
ATOM      5  C   UNL     1      47.949   5.966  14.489  0.00  0.00    +0.000 A 
ATOM      6  C   UNL     1      48.490   5.953  15.769  0.00  0.00    +0.000 A 
ATOM      7  S   UNL     1      49.848   6.969  15.947  0.00  0.00    +0.000 S 
ATOM      8  C   UNL     1      49.785   7.429  14.312  0.00  0.00    +0.000 A 
ATOM      9  N   UNL     1      50.723   8.267  13.785  0.00  0.00    +0.000 NA
ATOM     10  C   UNL     1      50.583   8.496  12.522  0.00  0.00    +0.000 A 
ATOM     11  N   UNL     1      49.574   7.986  11.743  0.00  0.00    +0.000 N 
ATOM     12  C   UNL     1      48.559   7.215  12.250  0.00  0.00    +0.000 A 
ATOM     13  O   UNL     1      47.587   6.912  11.564  0.00  0.00    +0.000 OA
ATOM     14  C   UNL     1      48.714   6.859  13.650  0.00  0.00    +0.000 A 
ATOM     15  H   UNL     1      49.496   8.243  10.769  0.00  0.00    +0.000 HD
ENDBRANCH   2   5
BRANCH   3  16
ATOM     16  C   UNL     1      44.508   5.078  13.227  0.00  0.00    +0.000 C 
BRANCH  16  17
ATOM     17  C   UNL     1      44.640   4.634  11.801  0.00  0.00    +0.000 A 
ATOM     18  C   UNL     1      44.363   3.320  11.436  0.00  0.00    +0.000 A 
ATOM     19  C   UNL     1      44.489   2.930  10.107  0.00  0.00    +0.000 A 
ATOM     20  C   UNL     1      44.849   3.870   9.146  0.00  0.00    +0.000 A 
ATOM     21  N   UNL     1      45.153   5.147   9.482  0.00  0.00    +0.000 NA
ATOM     22  C   UNL     1      45.065   5.491  10.793  0.00  0.00    +0.000 A 
BRANCH  20  23
ATOM     23  C   UNL     1      44.983   3.487   7.687  0.00  0.00    +0.000 C 
BRANCH  23  24
ATOM     24  C   UNL     1      46.423   3.301   7.166  0.00  0.00    +0.000 C 
ATOM     25  C   UNL     1      46.524   3.079   5.661  0.00  0.00    +0.000 C 
ATOM     26  C   UNL     1      47.788   2.270   5.469  0.00  0.00    +0.000 C 
ATOM     27  C   UNL     1      47.964   1.515   6.770  0.00  0.00    +0.000 C 
ATOM     28  N   UNL     1      47.005   2.066   7.725  0.00  0.00    +0.000 NA
ATOM     29  H   UNL     1      47.456   2.261   8.618  0.00  0.00    +0.000 HD
ENDBRANCH  23  24
ENDBRANCH  20  23
ENDBRANCH  16  17
ENDBRANCH   3  16
TORSDOF 5
ENDMDL
MODEL 5
REMARK VINA RESULT:    -7.348      2.548      3.673
REMARK INTER + INTRA:         -10.297
REMARK INTER:                  -9.332
REMARK INTRA:                  -0.965
REMARK UNBOUND:                -0.801
REMARK  Name = 
REMARK  5 active torsions:
REMARK  status: ('A' for Active; 'I' for Inactive)
REMARK    1  A    between atoms: C_2  and  C_17
REMARK    2  A    between atoms: N_3  and  C_4
REMARK    3  A    between atoms: C_4  and  C_5
REMARK    4  A    between atoms: C_8  and  C_9
REMARK    5  A    between atoms: C_9  and  C_10
REMARK                            x       y       z     vdW  Elec       q    Type
REMARK                         _______ _______ _______ _____ _____    ______ ____
ROOT
ATOM      1  O   UNL     1      50.116   6.616  15.520  0.00  0.00    +0.000 OA
ATOM      2  C   UNL     1      48.990   6.287  15.879  0.00  0.00    +0.000 C 
ATOM      3  N   UNL     1      47.920   6.270  15.022  0.00  0.00    +0.000 N 
ATOM      4  H   UNL     1      46.988   6.136  15.400  0.00  0.00    +0.000 HD
ENDROOT
BRANCH   2   5
ATOM      5  C   UNL     1      48.721   5.852  17.256  0.00  0.00    +0.000 A 
ATOM      6  C   UNL     1      48.922   4.526  17.616  0.00  0.00    +0.000 A 
ATOM      7  S   UNL     1      48.592   4.207  19.259  0.00  0.00    +0.000 S 
ATOM      8  C   UNL     1      48.209   5.837  19.553  0.00  0.00    +0.000 A 
ATOM      9  N   UNL     1      47.881   6.263  20.807  0.00  0.00    +0.000 NA
ATOM     10  C   UNL     1      47.659   7.532  20.897  0.00  0.00    +0.000 A 
ATOM     11  N   UNL     1      47.707   8.410  19.843  0.00  0.00    +0.000 N 
ATOM     12  C   UNL     1      47.942   8.011  18.552  0.00  0.00    +0.000 A 
ATOM     13  O   UNL     1      47.817   8.791  17.613  0.00  0.00    +0.000 OA
ATOM     14  C   UNL     1      48.280   6.606  18.407  0.00  0.00    +0.000 A 
ATOM     15  H   UNL     1      47.477   9.385  19.974  0.00  0.00    +0.000 HD
ENDBRANCH   2   5
BRANCH   3  16
ATOM     16  C   UNL     1      47.988   6.761  13.670  0.00  0.00    +0.000 C 
BRANCH  16  17
ATOM     17  C   UNL     1      46.936   6.139  12.801  0.00  0.00    +0.000 A 
ATOM     18  C   UNL     1      46.295   4.966  13.186  0.00  0.00    +0.000 A 
ATOM     19  C   UNL     1      45.320   4.409  12.367  0.00  0.00    +0.000 A 
ATOM     20  C   UNL     1      44.961   5.055  11.188  0.00  0.00    +0.000 A 
ATOM     21  N   UNL     1      45.593   6.182  10.777  0.00  0.00    +0.000 NA
ATOM     22  C   UNL     1      46.572   6.681  11.574  0.00  0.00    +0.000 A 
BRANCH  20  23
ATOM     23  C   UNL     1      43.895   4.487  10.276  0.00  0.00    +0.000 C 
BRANCH  23  24
ATOM     24  C   UNL     1      44.399   3.812   8.983  0.00  0.00    +0.000 C 
ATOM     25  C   UNL     1      45.158   2.509   9.208  0.00  0.00    +0.000 C 
ATOM     26  C   UNL     1      46.102   2.398   8.032  0.00  0.00    +0.000 C 
ATOM     27  C   UNL     1      46.350   3.829   7.601  0.00  0.00    +0.000 C 
ATOM     28  N   UNL     1      45.400   4.671   8.324  0.00  0.00    +0.000 NA
ATOM     29  H   UNL     1      44.941   5.324   7.689  0.00  0.00    +0.000 HD
ENDBRANCH  23  24
ENDBRANCH  20  23
ENDBRANCH  16  17
ENDBRANCH   3  16
TORSDOF 5
ENDMDL
MODEL 6
REMARK VINA RESULT:    -7.283      3.952      8.724
REMARK INTER + INTRA:         -10.213
REMARK INTER:                  -9.382
REMARK INTRA:                  -0.831
REMARK UNBOUND:                -0.801
REMARK  Name = 
REMARK  5 active torsions:
REMARK  status: ('A' for Active; 'I' for Inactive)
REMARK    1  A    between atoms: C_2  and  C_17
REMARK    2  A    between atoms: N_3  and  C_4
REMARK    3  A    between atoms: C_4  and  C_5
REMARK    4  A    between atoms: C_8  and  C_9
REMARK    5  A    between atoms: C_9  and  C_10
REMARK                            x       y       z     vdW  Elec       q    Type
REMARK                         _______ _______ _______ _____ _____    ______ ____
ROOT
ATOM      1  O   UNL     1      47.162   3.062  14.053  0.00  0.00    +0.000 OA
ATOM      2  C   UNL     1      46.766   4.124  14.524  0.00  0.00    +0.000 C 
ATOM      3  N   UNL     1      46.763   4.377  15.871  0.00  0.00    +0.000 N 
ATOM      4  H   UNL     1      46.291   5.206  16.216  0.00  0.00    +0.000 HD
ENDROOT
BRANCH   2   5
ATOM      5  C   UNL     1      46.296   5.216  13.661  0.00  0.00    +0.000 A 
ATOM      6  C   UNL     1      47.130   6.295  13.392  0.00  0.00    +0.000 A 
ATOM      7  S   UNL     1      46.436   7.451  12.349  0.00  0.00    +0.000 S 
ATOM      8  C   UNL     1      45.014   6.531  12.189  0.00  0.00    +0.000 A 
ATOM      9  N   UNL     1      44.004   6.943  11.371  0.00  0.00    +0.000 NA
ATOM     10  C   UNL     1      43.005   6.127  11.307  0.00  0.00    +0.000 A 
ATOM     11  N   UNL     1      42.911   4.951  12.009  0.00  0.00    +0.000 N 
ATOM     12  C   UNL     1      43.861   4.544  12.912  0.00  0.00    +0.000 A 
ATOM     13  O   UNL     1      43.672   3.576  13.641  0.00  0.00    +0.000 OA
ATOM     14  C   UNL     1      45.045   5.384  12.959  0.00  0.00    +0.000 A 
ATOM     15  H   UNL     1      42.079   4.381  11.949  0.00  0.00    +0.000 HD
ENDBRANCH   2   5
BRANCH   3  16
ATOM     16  C   UNL     1      47.094   3.382  16.858  0.00  0.00    +0.000 C 
BRANCH  16  17
ATOM     17  C   UNL     1      48.577   3.269  17.056  0.00  0.00    +0.000 A 
ATOM     18  C   UNL     1      49.303   4.322  17.604  0.00  0.00    +0.000 A 
ATOM     19  C   UNL     1      50.676   4.196  17.782  0.00  0.00    +0.000 A 
ATOM     20  C   UNL     1      51.306   2.999  17.451  0.00  0.00    +0.000 A 
ATOM     21  N   UNL     1      50.623   1.972  16.888  0.00  0.00    +0.000 NA
ATOM     22  C   UNL     1      49.291   2.137  16.684  0.00  0.00    +0.000 A 
BRANCH  20  23
ATOM     23  C   UNL     1      52.796   2.817  17.643  0.00  0.00    +0.000 C 
BRANCH  23  24
ATOM     24  C   UNL     1      53.223   1.654  18.561  0.00  0.00    +0.000 C 
ATOM     25  C   UNL     1      54.727   1.560  18.801  0.00  0.00    +0.000 C 
ATOM     26  C   UNL     1      54.988   0.097  19.081  0.00  0.00    +0.000 C 
ATOM     27  C   UNL     1      53.877  -0.638  18.357  0.00  0.00    +0.000 C 
ATOM     28  N   UNL     1      52.907   0.364  17.920  0.00  0.00    +0.000 NA
ATOM     29  H   UNL     1      51.958   0.074  18.157  0.00  0.00    +0.000 HD
ENDBRANCH  23  24
ENDBRANCH  20  23
ENDBRANCH  16  17
ENDBRANCH   3  16
TORSDOF 5
ENDMDL
MODEL 7
REMARK VINA RESULT:    -7.283      3.943      8.626
REMARK INTER + INTRA:         -10.213
REMARK INTER:                  -9.188
REMARK INTRA:                  -1.024
REMARK UNBOUND:                -0.801
REMARK  Name = 
REMARK  5 active torsions:
REMARK  status: ('A' for Active; 'I' for Inactive)
REMARK    1  A    between atoms: C_2  and  C_17
REMARK    2  A    between atoms: N_3  and  C_4
REMARK    3  A    between atoms: C_4  and  C_5
REMARK    4  A    between atoms: C_8  and  C_9
REMARK    5  A    between atoms: C_9  and  C_10
REMARK                            x       y       z     vdW  Elec       q    Type
REMARK                         _______ _______ _______ _____ _____    ______ ____
ROOT
ATOM      1  O   UNL     1      49.456   6.743  14.324  0.00  0.00    +0.000 OA
ATOM      2  C   UNL     1      48.304   6.444  14.626  0.00  0.00    +0.000 C 
ATOM      3  N   UNL     1      47.909   6.258  15.925  0.00  0.00    +0.000 N 
ATOM      4  H   UNL     1      46.990   5.869  16.110  0.00  0.00    +0.000 HD
ENDROOT
BRANCH   2   5
ATOM      5  C   UNL     1      47.258   6.297  13.605  0.00  0.00    +0.000 A 
ATOM      6  C   UNL     1      46.847   7.403  12.870  0.00  0.00    +0.000 A 
ATOM      7  S   UNL     1      45.650   7.044  11.710  0.00  0.00    +0.000 S 
ATOM      8  C   UNL     1      45.671   5.394  12.121  0.00  0.00    +0.000 A 
ATOM      9  N   UNL     1      44.893   4.497  11.449  0.00  0.00    +0.000 NA
ATOM     10  C   UNL     1      45.042   3.272  11.833  0.00  0.00    +0.000 A 
ATOM     11  N   UNL     1      45.876   2.866  12.845  0.00  0.00    +0.000 N 
ATOM     12  C   UNL     1      46.605   3.744  13.606  0.00  0.00    +0.000 A 
ATOM     13  O   UNL     1      47.212   3.368  14.605  0.00  0.00    +0.000 OA
ATOM     14  C   UNL     1      46.538   5.126  13.163  0.00  0.00    +0.000 A 
ATOM     15  H   UNL     1      45.909   1.897  13.126  0.00  0.00    +0.000 HD
ENDBRANCH   2   5
BRANCH   3  16
ATOM     16  C   UNL     1      48.827   6.265  17.035  0.00  0.00    +0.000 C 
BRANCH  16  17
ATOM     17  C   UNL     1      49.528   4.948  17.182  0.00  0.00    +0.000 A 
ATOM     18  C   UNL     1      48.808   3.758  17.220  0.00  0.00    +0.000 A 
ATOM     19  C   UNL     1      49.478   2.548  17.354  0.00  0.00    +0.000 A 
ATOM     20  C   UNL     1      50.869   2.534  17.404  0.00  0.00    +0.000 A 
ATOM     21  N   UNL     1      51.590   3.682  17.400  0.00  0.00    +0.000 NA
ATOM     22  C   UNL     1      50.908   4.853  17.313  0.00  0.00    +0.000 A 
BRANCH  20  23
ATOM     23  C   UNL     1      51.636   1.236  17.536  0.00  0.00    +0.000 C 
BRANCH  23  24
ATOM     24  C   UNL     1      53.174   1.357  17.562  0.00  0.00    +0.000 C 
ATOM     25  C   UNL     1      53.914   0.039  17.366  0.00  0.00    +0.000 C 
ATOM     26  C   UNL     1      55.234   0.220  18.081  0.00  0.00    +0.000 C 
ATOM     27  C   UNL     1      54.949   1.244  19.161  0.00  0.00    +0.000 C 
ATOM     28  N   UNL     1      53.622   1.794  18.898  0.00  0.00    +0.000 NA
ATOM     29  H   UNL     1      53.636   2.813  18.950  0.00  0.00    +0.000 HD
ENDBRANCH  23  24
ENDBRANCH  20  23
ENDBRANCH  16  17
ENDBRANCH   3  16
TORSDOF 5
ENDMDL
MODEL 8
REMARK VINA RESULT:    -6.940      2.412      3.846
REMARK INTER + INTRA:          -9.769
REMARK INTER:                  -8.711
REMARK INTRA:                  -1.058
REMARK UNBOUND:                -0.801
REMARK  Name = 
REMARK  5 active torsions:
REMARK  status: ('A' for Active; 'I' for Inactive)
REMARK    1  A    between atoms: C_2  and  C_17
REMARK    2  A    between atoms: N_3  and  C_4
REMARK    3  A    between atoms: C_4  and  C_5
REMARK    4  A    between atoms: C_8  and  C_9
REMARK    5  A    between atoms: C_9  and  C_10
REMARK                            x       y       z     vdW  Elec       q    Type
REMARK                         _______ _______ _______ _____ _____    ______ ____
ROOT
ATOM      1  O   UNL     1      49.273   8.697  15.781  0.00  0.00    +0.000 OA
ATOM      2  C   UNL     1      48.771   7.627  16.114  0.00  0.00    +0.000 C 
ATOM      3  N   UNL     1      48.421   6.664  15.204  0.00  0.00    +0.000 N 
ATOM      4  H   UNL     1      47.877   5.866  15.515  0.00  0.00    +0.000 HD
ENDROOT
BRANCH   2   5
ATOM      5  C   UNL     1      48.543   7.295  17.526  0.00  0.00    +0.000 A 
ATOM      6  C   UNL     1      47.997   8.244  18.382  0.00  0.00    +0.000 A 
ATOM      7  S   UNL     1      47.772   7.678  19.974  0.00  0.00    +0.000 S 
ATOM      8  C   UNL     1      48.358   6.135  19.565  0.00  0.00    +0.000 A 
ATOM      9  N   UNL     1      48.385   5.131  20.488  0.00  0.00    +0.000 NA
ATOM     10  C   UNL     1      48.809   4.000  20.031  0.00  0.00    +0.000 A 
ATOM     11  N   UNL     1      49.236   3.788  18.743  0.00  0.00    +0.000 N 
ATOM     12  C   UNL     1      49.313   4.791  17.810  0.00  0.00    +0.000 A 
ATOM     13  O   UNL     1      49.850   4.607  16.722  0.00  0.00    +0.000 OA
ATOM     14  C   UNL     1      48.769   6.065  18.248  0.00  0.00    +0.000 A 
ATOM     15  H   UNL     1      49.601   2.889  18.463  0.00  0.00    +0.000 HD
ENDBRANCH   2   5
BRANCH   3  16
ATOM     16  C   UNL     1      48.484   6.868  13.779  0.00  0.00    +0.000 C 
BRANCH  16  17
ATOM     17  C   UNL     1      47.299   6.271  13.081  0.00  0.00    +0.000 A 
ATOM     18  C   UNL     1      46.807   5.024  13.453  0.00  0.00    +0.000 A 
ATOM     19  C   UNL     1      45.705   4.491  12.794  0.00  0.00    +0.000 A 
ATOM     20  C   UNL     1      45.076   5.230  11.796  0.00  0.00    +0.000 A 
ATOM     21  N   UNL     1      45.556   6.433  11.397  0.00  0.00    +0.000 NA
ATOM     22  C   UNL     1      46.660   6.911  12.026  0.00  0.00    +0.000 A 
BRANCH  20  23
ATOM     23  C   UNL     1      43.866   4.690  11.065  0.00  0.00    +0.000 C 
BRANCH  23  24
ATOM     24  C   UNL     1      44.136   4.059   9.683  0.00  0.00    +0.000 C 
ATOM     25  C   UNL     1      44.807   2.690   9.736  0.00  0.00    +0.000 C 
ATOM     26  C   UNL     1      45.574   2.580   8.437  0.00  0.00    +0.000 C 
ATOM     27  C   UNL     1      45.881   4.012   8.049  0.00  0.00    +0.000 C 
ATOM     28  N   UNL     1      45.109   4.878   8.937  0.00  0.00    +0.000 NA
ATOM     29  H   UNL     1      44.626   5.602   8.404  0.00  0.00    +0.000 HD
ENDBRANCH  23  24
ENDBRANCH  20  23
ENDBRANCH  16  17
ENDBRANCH   3  16
TORSDOF 5
ENDMDL
MODEL 9
REMARK VINA RESULT:    -6.940      3.107      4.578
REMARK INTER + INTRA:          -9.769
REMARK INTER:                  -8.402
REMARK INTRA:                  -1.367
REMARK UNBOUND:                -0.801
REMARK  Name = 
REMARK  5 active torsions:
REMARK  status: ('A' for Active; 'I' for Inactive)
REMARK    1  A    between atoms: C_2  and  C_17
REMARK    2  A    between atoms: N_3  and  C_4
REMARK    3  A    between atoms: C_4  and  C_5
REMARK    4  A    between atoms: C_8  and  C_9
REMARK    5  A    between atoms: C_9  and  C_10
REMARK                            x       y       z     vdW  Elec       q    Type
REMARK                         _______ _______ _______ _____ _____    ______ ____
ROOT
ATOM      1  O   UNL     1      48.717   8.604  15.819  0.00  0.00    +0.000 OA
ATOM      2  C   UNL     1      49.012   7.446  15.536  0.00  0.00    +0.000 C 
ATOM      3  N   UNL     1      49.168   7.021  14.243  0.00  0.00    +0.000 N 
ATOM      4  H   UNL     1      49.264   6.028  14.058  0.00  0.00    +0.000 HD
ENDROOT
BRANCH   2   5
ATOM      5  C   UNL     1      49.252   6.440  16.580  0.00  0.00    +0.000 A 
ATOM      6  C   UNL     1      50.205   6.675  17.563  0.00  0.00    +0.000 A 
ATOM      7  S   UNL     1      50.328   5.418  18.709  0.00  0.00    +0.000 S 
ATOM      8  C   UNL     1      49.084   4.538  17.955  0.00  0.00    +0.000 A 
ATOM      9  N   UNL     1      48.649   3.355  18.478  0.00  0.00    +0.000 NA
ATOM     10  C   UNL     1      47.669   2.816  17.832  0.00  0.00    +0.000 A 
ATOM     11  N   UNL     1      47.102   3.338  16.695  0.00  0.00    +0.000 N 
ATOM     12  C   UNL     1      47.567   4.474  16.085  0.00  0.00    +0.000 A 
ATOM     13  O   UNL     1      47.148   4.824  14.986  0.00  0.00    +0.000 OA
ATOM     14  C   UNL     1      48.615   5.165  16.817  0.00  0.00    +0.000 A 
ATOM     15  H   UNL     1      46.367   2.840  16.212  0.00  0.00    +0.000 HD
ENDBRANCH   2   5
BRANCH   3  16
ATOM     16  C   UNL     1      48.873   7.850  13.102  0.00  0.00    +0.000 C 
BRANCH  16  17
ATOM     17  C   UNL     1      47.469   7.644  12.616  0.00  0.00    +0.000 A 
ATOM     18  C   UNL     1      46.442   8.486  13.030  0.00  0.00    +0.000 A 
ATOM     19  C   UNL     1      45.148   8.279  12.565  0.00  0.00    +0.000 A 
ATOM     20  C   UNL     1      44.900   7.257  11.652  0.00  0.00    +0.000 A 
ATOM     21  N   UNL     1      45.879   6.407  11.259  0.00  0.00    +0.000 NA
ATOM     22  C   UNL     1      47.125   6.603  11.762  0.00  0.00    +0.000 A 
BRANCH  20  23
ATOM     23  C   UNL     1      43.509   7.009  11.112  0.00  0.00    +0.000 C 
BRANCH  23  24
ATOM     24  C   UNL     1      43.022   5.546  11.142  0.00  0.00    +0.000 C 
ATOM     25  C   UNL     1      43.293   4.818  12.455  0.00  0.00    +0.000 C 
ATOM     26  C   UNL     1      43.406   3.358  12.077  0.00  0.00    +0.000 C 
ATOM     27  C   UNL     1      43.871   3.368  10.635  0.00  0.00    +0.000 C 
ATOM     28  N   UNL     1      43.772   4.745  10.157  0.00  0.00    +0.000 NA
ATOM     29  H   UNL     1      43.309   4.779   9.248  0.00  0.00    +0.000 HD
ENDBRANCH  23  24
ENDBRANCH  20  23
ENDBRANCH  16  17
ENDBRANCH   3  16
TORSDOF 5
ENDMDL
