MODEL 1
REMARK VINA RESULT:    -7.152      0.000      0.000
REMARK INTER + INTRA:         -11.647
REMARK INTER:                 -10.079
REMARK INTRA:                  -1.567
REMARK UNBOUND:                -1.567
REMARK  Name = 
REMARK  10 active torsions:
REMARK  status: ('A' for Active; 'I' for Inactive)
REMARK    1  A    between atoms: C_1  and  O_2
REMARK    2  A    between atoms: O_2  and  C_3
REMARK    3  A    between atoms: C_10  and  C_11
REMARK    4  A    between atoms: N_13  and  C_14
REMARK    5  A    between atoms: C_14  and  C_15
REMARK    6  A    between atoms: C_18  and  N_19
REMARK    7  A    between atoms: N_19  and  C_20
REMARK    8  A    between atoms: C_20  and  C_21
REMARK    9  A    between atoms: N_24  and  C_25
REMARK   10  A    between atoms: C_27  and  C_28
REMARK                            x       y       z     vdW  Elec       q    Type
REMARK                         _______ _______ _______ _____ _____    ______ ____
ROOT
ATOM      1  C   UNL     1      45.939   5.974  12.911  0.00  0.00    +0.000 A 
ATOM      2  C   UNL     1      44.644   6.013  12.385  0.00  0.00    +0.000 A 
ATOM      3  C   UNL     1      44.056   4.855  11.863  0.00  0.00    +0.000 A 
ATOM      4  C   UNL     1      44.758   3.646  11.828  0.00  0.00    +0.000 A 
ATOM      5  C   UNL     1      45.974   3.578  12.515  0.00  0.00    +0.000 A 
ATOM      6  C   UNL     1      46.566   4.732  13.046  0.00  0.00    +0.000 A 
ENDROOT
BRANCH   4   7
ATOM      7  N   UNL     1      44.296   2.499  11.161  0.00  0.00    +0.000 N 
ATOM      8  H   UNL     1      43.450   2.140  11.600  0.00  0.00    +0.000 HD
BRANCH   7   9
ATOM      9  C   UNL     1      44.204   2.580   9.699  0.00  0.00    +0.000 C 
BRANCH   9  10
ATOM     10  C   UNL     1      45.592   2.639   9.023  0.00  0.00    +0.000 C 
ATOM     11  C   UNL     1      45.882   1.317   8.281  0.00  0.00    +0.000 C 
ATOM     12  C   UNL     1      47.201   1.355   7.510  0.00  0.00    +0.000 C 
ATOM     13  N   UNL     1      47.319   2.503   6.606  0.00  0.00    +0.000 NA
ATOM     14  C   UNL     1      46.402   2.412   5.471  0.00  0.00    +0.000 C 
ATOM     15  C   UNL     1      47.153   3.753   7.352  0.00  0.00    +0.000 C 
ATOM     16  C   UNL     1      45.814   3.871   8.111  0.00  0.00    +0.000 C 
ATOM     17  C   UNL     1      45.822   5.187   8.899  0.00  0.00    +0.000 C 
ENDBRANCH   9  10
ENDBRANCH   7   9
ENDBRANCH   4   7
BRANCH   1  18
ATOM     18  C   UNL     1      46.667   7.247  13.253  0.00  0.00    +0.000 C 
BRANCH  18  21
ATOM     19  C   UNL     1      48.847   6.959  14.303  0.00  0.00    +0.000 C 
ATOM     20  O   UNL     1      49.381   6.889  13.198  0.00  0.00    +0.000 OA
ATOM     21  N   UNL     1      47.494   7.132  14.423  0.00  0.00    +0.000 N 
ATOM     22  H   UNL     1      47.051   7.163  15.332  0.00  0.00    +0.000 HD
BRANCH  19  30
ATOM     23  C   UNL     1      48.580   5.055  17.163  0.00  0.00    +0.000 A 
ATOM     24  N   UNL     1      48.686   4.494  18.386  0.00  0.00    +0.000 NA
ATOM     25  C   UNL     1      49.690   4.884  19.175  0.00  0.00    +0.000 A 
ATOM     26  N   UNL     1      50.628   5.780  18.884  0.00  0.00    +0.000 NA
ATOM     27  C   UNL     1      50.477   6.327  17.670  0.00  0.00    +0.000 A 
ATOM     28  S   UNL     1      51.594   7.485  17.131  0.00  0.00    +0.000 S 
ATOM     29  C   UNL     1      50.770   7.665  15.657  0.00  0.00    +0.000 A 
ATOM     30  C   UNL     1      49.643   6.860  15.538  0.00  0.00    +0.000 A 
ATOM     31  C   UNL     1      49.478   6.046  16.738  0.00  0.00    +0.000 A 
BRANCH  23  33
ATOM     32  C   UNL     1      47.674   3.249  15.999  0.00  0.00    +0.000 C 
ATOM     33  O   UNL     1      47.552   4.629  16.345  0.00  0.00    +0.000 OA
ENDBRANCH  23  33
ENDBRANCH  19  30
ENDBRANCH  18  21
ENDBRANCH   1  18
TORSDOF 7
ENDMDL
MODEL 2
REMARK VINA RESULT:    -6.215      3.559      8.879
REMARK INTER + INTRA:         -10.325
REMARK INTER:                  -8.813
REMARK INTRA:                  -1.513
REMARK UNBOUND:                -1.567
REMARK  Name = 
REMARK  10 active torsions:
REMARK  status: ('A' for Active; 'I' for Inactive)
REMARK    1  A    between atoms: C_1  and  O_2
REMARK    2  A    between atoms: O_2  and  C_3
REMARK    3  A    between atoms: C_10  and  C_11
REMARK    4  A    between atoms: N_13  and  C_14
REMARK    5  A    between atoms: C_14  and  C_15
REMARK    6  A    between atoms: C_18  and  N_19
REMARK    7  A    between atoms: N_19  and  C_20
REMARK    8  A    between atoms: C_20  and  C_21
REMARK    9  A    between atoms: N_24  and  C_25
REMARK   10  A    between atoms: C_27  and  C_28
REMARK                            x       y       z     vdW  Elec       q    Type
REMARK                         _______ _______ _______ _____ _____    ______ ____
ROOT
ATOM      1  C   UNL     1      48.417   3.545  17.672  0.00  0.00    +0.000 A 
ATOM      2  C   UNL     1      49.630   3.068  17.165  0.00  0.00    +0.000 A 
ATOM      3  C   UNL     1      50.844   3.477  17.729  0.00  0.00    +0.000 A 
ATOM      4  C   UNL     1      50.873   4.392  18.786  0.00  0.00    +0.000 A 
ATOM      5  C   UNL     1      49.658   4.721  19.398  0.00  0.00    +0.000 A 
ATOM      6  C   UNL     1      48.440   4.309  18.843  0.00  0.00    +0.000 A 
ENDROOT
BRANCH   4   7
ATOM      7  N   UNL     1      52.053   4.976  19.276  0.00  0.00    +0.000 N 
ATOM      8  H   UNL     1      52.810   4.884  18.602  0.00  0.00    +0.000 HD
BRANCH   7   9
ATOM      9  C   UNL     1      51.935   6.326  19.840  0.00  0.00    +0.000 C 
BRANCH   9  10
ATOM     10  C   UNL     1      52.028   7.426  18.761  0.00  0.00    +0.000 C 
ATOM     11  C   UNL     1      52.858   6.927  17.558  0.00  0.00    +0.000 C 
ATOM     12  C   UNL     1      52.902   7.942  16.415  0.00  0.00    +0.000 C 
ATOM     13  N   UNL     1      51.576   8.399  15.988  0.00  0.00    +0.000 NA
ATOM     14  C   UNL     1      50.814   7.346  15.319  0.00  0.00    +0.000 C 
ATOM     15  C   UNL     1      50.849   8.974  17.122  0.00  0.00    +0.000 C 
ATOM     16  C   UNL     1      50.665   8.012  18.316  0.00  0.00    +0.000 C 
ATOM     17  C   UNL     1      49.961   8.775  19.445  0.00  0.00    +0.000 C 
ENDBRANCH   9  10
ENDBRANCH   7   9
ENDBRANCH   4   7
BRANCH   1  18
ATOM     18  C   UNL     1      47.128   3.305  16.933  0.00  0.00    +0.000 C 
BRANCH  18  21
ATOM     19  C   UNL     1      46.958   4.214  14.678  0.00  0.00    +0.000 C 
ATOM     20  O   UNL     1      47.418   3.173  14.213  0.00  0.00    +0.000 OA
ATOM     21  N   UNL     1      46.784   4.367  16.027  0.00  0.00    +0.000 N 
ATOM     22  H   UNL     1      46.431   5.234  16.413  0.00  0.00    +0.000 HD
BRANCH  19  30
ATOM     23  C   UNL     1      44.209   4.861  12.702  0.00  0.00    +0.000 A 
ATOM     24  N   UNL     1      43.302   5.338  11.824  0.00  0.00    +0.000 NA
ATOM     25  C   UNL     1      43.551   6.508  11.230  0.00  0.00    +0.000 A 
ATOM     26  N   UNL     1      44.617   7.282  11.414  0.00  0.00    +0.000 NA
ATOM     27  C   UNL     1      45.502   6.766  12.279  0.00  0.00    +0.000 A 
ATOM     28  S   UNL     1      46.917   7.629  12.640  0.00  0.00    +0.000 S 
ATOM     29  C   UNL     1      47.449   6.410  13.697  0.00  0.00    +0.000 A 
ATOM     30  C   UNL     1      46.576   5.333  13.801  0.00  0.00    +0.000 A 
ATOM     31  C   UNL     1      45.401   5.555  12.964  0.00  0.00    +0.000 A 
BRANCH  23  33
ATOM     32  C   UNL     1      43.539   2.648  12.403  0.00  0.00    +0.000 C 
ATOM     33  O   UNL     1      43.932   3.662  13.328  0.00  0.00    +0.000 OA
ENDBRANCH  23  33
ENDBRANCH  19  30
ENDBRANCH  18  21
ENDBRANCH   1  18
TORSDOF 7
ENDMDL
MODEL 3
REMARK VINA RESULT:    -6.147      3.721      8.661
REMARK INTER + INTRA:         -10.229
REMARK INTER:                  -8.879
REMARK INTRA:                  -1.351
REMARK UNBOUND:                -1.567
REMARK  Name = 
REMARK  10 active torsions:
REMARK  status: ('A' for Active; 'I' for Inactive)
REMARK    1  A    between atoms: C_1  and  O_2
REMARK    2  A    between atoms: O_2  and  C_3
REMARK    3  A    between atoms: C_10  and  C_11
REMARK    4  A    between atoms: N_13  and  C_14
REMARK    5  A    between atoms: C_14  and  C_15
REMARK    6  A    between atoms: C_18  and  N_19
REMARK    7  A    between atoms: N_19  and  C_20
REMARK    8  A    between atoms: C_20  and  C_21
REMARK    9  A    between atoms: N_24  and  C_25
REMARK   10  A    between atoms: C_27  and  C_28
REMARK                            x       y       z     vdW  Elec       q    Type
REMARK                         _______ _______ _______ _____ _____    ______ ____
ROOT
ATOM      1  C   UNL     1      49.593   7.226  16.729  0.00  0.00    +0.000 A 
ATOM      2  C   UNL     1      48.952   6.732  17.870  0.00  0.00    +0.000 A 
ATOM      3  C   UNL     1      49.449   5.600  18.527  0.00  0.00    +0.000 A 
ATOM      4  C   UNL     1      50.573   4.923  18.042  0.00  0.00    +0.000 A 
ATOM      5  C   UNL     1      51.305   5.527  17.015  0.00  0.00    +0.000 A 
ATOM      6  C   UNL     1      50.818   6.663  16.357  0.00  0.00    +0.000 A 
ENDROOT
BRANCH   4   7
ATOM      7  N   UNL     1      51.013   3.688  18.547  0.00  0.00    +0.000 N 
ATOM      8  H   UNL     1      50.306   3.268  19.147  0.00  0.00    +0.000 HD
BRANCH   7   9
ATOM      9  C   UNL     1      51.587   2.748  17.578  0.00  0.00    +0.000 C 
BRANCH   9  10
ATOM     10  C   UNL     1      52.849   2.040  18.118  0.00  0.00    +0.000 C 
ATOM     11  C   UNL     1      52.796   0.531  17.794  0.00  0.00    +0.000 C 
ATOM     12  C   UNL     1      54.067  -0.205  18.219  0.00  0.00    +0.000 C 
ATOM     13  N   UNL     1      55.296   0.402  17.701  0.00  0.00    +0.000 NA
ATOM     14  C   UNL     1      55.425   0.247  16.253  0.00  0.00    +0.000 C 
ATOM     15  C   UNL     1      55.382   1.804  18.116  0.00  0.00    +0.000 C 
ATOM     16  C   UNL     1      54.188   2.677  17.671  0.00  0.00    +0.000 C 
ATOM     17  C   UNL     1      54.383   4.087  18.243  0.00  0.00    +0.000 C 
ENDBRANCH   9  10
ENDBRANCH   7   9
ENDBRANCH   4   7
BRANCH   1  18
ATOM     18  C   UNL     1      48.942   8.287  15.882  0.00  0.00    +0.000 C 
BRANCH  18  21
ATOM     19  C   UNL     1      48.038   7.371  13.812  0.00  0.00    +0.000 C 
ATOM     20  O   UNL     1      49.153   7.410  13.297  0.00  0.00    +0.000 OA
ATOM     21  N   UNL     1      47.841   7.794  15.100  0.00  0.00    +0.000 N 
ATOM     22  H   UNL     1      46.919   7.788  15.516  0.00  0.00    +0.000 HD
BRANCH  19  30
ATOM     23  C   UNL     1      46.622   4.252  13.432  0.00  0.00    +0.000 A 
ATOM     24  N   UNL     1      45.908   3.166  13.069  0.00  0.00    +0.000 NA
ATOM     25  C   UNL     1      44.883   3.334  12.230  0.00  0.00    +0.000 A 
ATOM     26  N   UNL     1      44.468   4.481  11.702  0.00  0.00    +0.000 NA
ATOM     27  C   UNL     1      45.212   5.533  12.073  0.00  0.00    +0.000 A 
ATOM     28  S   UNL     1      44.816   7.080  11.500  0.00  0.00    +0.000 S 
ATOM     29  C   UNL     1      46.117   7.778  12.339  0.00  0.00    +0.000 A 
ATOM     30  C   UNL     1      46.873   6.866  13.066  0.00  0.00    +0.000 A 
ATOM     31  C   UNL     1      46.320   5.524  12.920  0.00  0.00    +0.000 A 
BRANCH  23  33
ATOM     32  C   UNL     1      47.248   4.197  15.677  0.00  0.00    +0.000 C 
ATOM     33  O   UNL     1      47.666   4.072  14.317  0.00  0.00    +0.000 OA
ENDBRANCH  23  33
ENDBRANCH  19  30
ENDBRANCH  18  21
ENDBRANCH   1  18
TORSDOF 7
ENDMDL
MODEL 4
REMARK VINA RESULT:    -6.140      2.536      4.744
REMARK INTER + INTRA:         -10.220
REMARK INTER:                  -9.005
REMARK INTRA:                  -1.215
REMARK UNBOUND:                -1.567
REMARK  Name = 
REMARK  10 active torsions:
REMARK  status: ('A' for Active; 'I' for Inactive)
REMARK    1  A    between atoms: C_1  and  O_2
REMARK    2  A    between atoms: O_2  and  C_3
REMARK    3  A    between atoms: C_10  and  C_11
REMARK    4  A    between atoms: N_13  and  C_14
REMARK    5  A    between atoms: C_14  and  C_15
REMARK    6  A    between atoms: C_18  and  N_19
REMARK    7  A    between atoms: N_19  and  C_20
REMARK    8  A    between atoms: C_20  and  C_21
REMARK    9  A    between atoms: N_24  and  C_25
REMARK   10  A    between atoms: C_27  and  C_28
REMARK                            x       y       z     vdW  Elec       q    Type
REMARK                         _______ _______ _______ _____ _____    ______ ____
ROOT
ATOM      1  C   UNL     1      49.487   8.230  15.310  0.00  0.00    +0.000 A 
ATOM      2  C   UNL     1      49.879   7.377  14.274  0.00  0.00    +0.000 A 
ATOM      3  C   UNL     1      49.003   7.090  13.221  0.00  0.00    +0.000 A 
ATOM      4  C   UNL     1      47.710   7.623  13.198  0.00  0.00    +0.000 A 
ATOM      5  C   UNL     1      47.394   8.610  14.137  0.00  0.00    +0.000 A 
ATOM      6  C   UNL     1      48.269   8.907  15.189  0.00  0.00    +0.000 A 
ENDROOT
BRANCH   4   7
ATOM      7  N   UNL     1      46.728   7.236  12.270  0.00  0.00    +0.000 N 
ATOM      8  H   UNL     1      46.988   6.368  11.806  0.00  0.00    +0.000 HD
BRANCH   7   9
ATOM      9  C   UNL     1      45.337   7.251  12.740  0.00  0.00    +0.000 C 
BRANCH   9  10
ATOM     10  C   UNL     1      44.652   5.874  12.600  0.00  0.00    +0.000 C 
ATOM     11  C   UNL     1      43.694   5.875  11.388  0.00  0.00    +0.000 C 
ATOM     12  C   UNL     1      43.061   4.505  11.141  0.00  0.00    +0.000 C 
ATOM     13  N   UNL     1      44.038   3.417  11.041  0.00  0.00    +0.000 NA
ATOM     14  C   UNL     1      44.847   3.509   9.826  0.00  0.00    +0.000 C 
ATOM     15  C   UNL     1      44.861   3.363  12.251  0.00  0.00    +0.000 C 
ATOM     16  C   UNL     1      45.624   4.669  12.565  0.00  0.00    +0.000 C 
ATOM     17  C   UNL     1      46.372   4.483  13.891  0.00  0.00    +0.000 C 
ENDBRANCH   9  10
ENDBRANCH   7   9
ENDBRANCH   4   7
BRANCH   1  18
ATOM     18  C   UNL     1      50.320   8.358  16.558  0.00  0.00    +0.000 C 
BRANCH  18  21
ATOM     19  C   UNL     1      50.770   6.342  17.851  0.00  0.00    +0.000 C 
ATOM     20  O   UNL     1      49.785   6.560  18.552  0.00  0.00    +0.000 OA
ATOM     21  N   UNL     1      51.114   7.191  16.834  0.00  0.00    +0.000 N 
ATOM     22  H   UNL     1      51.940   7.027  16.273  0.00  0.00    +0.000 HD
BRANCH  19  30
ATOM     23  C   UNL     1      50.405   2.985  17.158  0.00  0.00    +0.000 A 
ATOM     24  N   UNL     1      50.503   1.643  17.061  0.00  0.00    +0.000 NA
ATOM     25  C   UNL     1      51.598   1.052  17.546  0.00  0.00    +0.000 A 
ATOM     26  N   UNL     1      52.635   1.652  18.123  0.00  0.00    +0.000 NA
ATOM     27  C   UNL     1      52.492   2.982  18.216  0.00  0.00    +0.000 A 
ATOM     28  S   UNL     1      53.729   3.907  18.917  0.00  0.00    +0.000 S 
ATOM     29  C   UNL     1      52.852   5.343  18.685  0.00  0.00    +0.000 A 
ATOM     30  C   UNL     1      51.616   5.158  18.076  0.00  0.00    +0.000 A 
ATOM     31  C   UNL     1      51.409   3.744  17.780  0.00  0.00    +0.000 A 
BRANCH  23  33
ATOM     32  C   UNL     1      48.086   3.182  17.304  0.00  0.00    +0.000 C 
ATOM     33  O   UNL     1      49.279   3.589  16.634  0.00  0.00    +0.000 OA
ENDBRANCH  23  33
ENDBRANCH  19  30
ENDBRANCH  18  21
ENDBRANCH   1  18
TORSDOF 7
ENDMDL
MODEL 5
REMARK VINA RESULT:    -5.978      2.444      3.985
REMARK INTER + INTRA:          -9.992
REMARK INTER:                  -8.878
REMARK INTRA:                  -1.114
REMARK UNBOUND:                -1.567
REMARK  Name = 
REMARK  10 active torsions:
REMARK  status: ('A' for Active; 'I' for Inactive)
REMARK    1  A    between atoms: C_1  and  O_2
REMARK    2  A    between atoms: O_2  and  C_3
REMARK    3  A    between atoms: C_10  and  C_11
REMARK    4  A    between atoms: N_13  and  C_14
REMARK    5  A    between atoms: C_14  and  C_15
REMARK    6  A    between atoms: C_18  and  N_19
REMARK    7  A    between atoms: N_19  and  C_20
REMARK    8  A    between atoms: C_20  and  C_21
REMARK    9  A    between atoms: N_24  and  C_25
REMARK   10  A    between atoms: C_27  and  C_28
REMARK                            x       y       z     vdW  Elec       q    Type
REMARK                         _______ _______ _______ _____ _____    ______ ____
ROOT
ATOM      1  C   UNL     1      49.432   7.864  14.494  0.00  0.00    +0.000 A 
ATOM      2  C   UNL     1      49.894   7.789  13.177  0.00  0.00    +0.000 A 
ATOM      3  C   UNL     1      49.058   7.312  12.160  0.00  0.00    +0.000 A 
ATOM      4  C   UNL     1      47.761   6.874  12.442  0.00  0.00    +0.000 A 
ATOM      5  C   UNL     1      47.252   7.121  13.722  0.00  0.00    +0.000 A 
ATOM      6  C   UNL     1      48.081   7.604  14.743  0.00  0.00    +0.000 A 
ENDROOT
BRANCH   4   7
ATOM      7  N   UNL     1      46.940   6.224  11.506  0.00  0.00    +0.000 N 
ATOM      8  H   UNL     1      47.498   5.698  10.836  0.00  0.00    +0.000 HD
BRANCH   7   9
ATOM      9  C   UNL     1      45.804   5.463  12.042  0.00  0.00    +0.000 C 
BRANCH   9  10
ATOM     10  C   UNL     1      44.979   4.774  10.933  0.00  0.00    +0.000 C 
ATOM     11  C   UNL     1      45.620   5.030   9.552  0.00  0.00    +0.000 C 
ATOM     12  C   UNL     1      44.900   4.289   8.425  0.00  0.00    +0.000 C 
ATOM     13  N   UNL     1      44.741   2.853   8.676  0.00  0.00    +0.000 NA
ATOM     14  C   UNL     1      46.015   2.138   8.631  0.00  0.00    +0.000 C 
ATOM     15  C   UNL     1      44.028   2.635   9.937  0.00  0.00    +0.000 C 
ATOM     16  C   UNL     1      44.706   3.269  11.172  0.00  0.00    +0.000 C 
ATOM     17  C   UNL     1      43.809   3.023  12.392  0.00  0.00    +0.000 C 
ENDBRANCH   9  10
ENDBRANCH   7   9
ENDBRANCH   4   7
BRANCH   1  18
ATOM     18  C   UNL     1      50.384   8.145  15.627  0.00  0.00    +0.000 C 
BRANCH  18  21
ATOM     19  C   UNL     1      50.942   6.285  17.099  0.00  0.00    +0.000 C 
ATOM     20  O   UNL     1      50.007   6.579  17.840  0.00  0.00    +0.000 OA
ATOM     21  N   UNL     1      51.206   7.018  15.973  0.00  0.00    +0.000 N 
ATOM     22  H   UNL     1      51.992   6.794  15.376  0.00  0.00    +0.000 HD
BRANCH  19  30
ATOM     23  C   UNL     1      50.444   2.875  17.158  0.00  0.00    +0.000 A 
ATOM     24  N   UNL     1      50.520   1.537  17.310  0.00  0.00    +0.000 NA
ATOM     25  C   UNL     1      51.685   1.008  17.692  0.00  0.00    +0.000 A 
ATOM     26  N   UNL     1      52.813   1.666  17.938  0.00  0.00    +0.000 NA
ATOM     27  C   UNL     1      52.694   2.993  17.794  0.00  0.00    +0.000 A 
ATOM     28  S   UNL     1      54.043   3.987  18.059  0.00  0.00    +0.000 S 
ATOM     29  C   UNL     1      53.142   5.385  17.715  0.00  0.00    +0.000 A 
ATOM     30  C   UNL     1      51.813   5.135  17.393  0.00  0.00    +0.000 A 
ATOM     31  C   UNL     1      51.550   3.700  17.423  0.00  0.00    +0.000 A 
BRANCH  23  33
ATOM     32  C   UNL     1      48.201   3.207  17.697  0.00  0.00    +0.000 C 
ATOM     33  O   UNL     1      49.242   3.411  16.742  0.00  0.00    +0.000 OA
ENDBRANCH  23  33
ENDBRANCH  19  30
ENDBRANCH  18  21
ENDBRANCH   1  18
TORSDOF 7
ENDMDL
MODEL 6
REMARK VINA RESULT:    -5.845      3.199      8.707
REMARK INTER + INTRA:          -9.803
REMARK INTER:                  -8.351
REMARK INTRA:                  -1.453
REMARK UNBOUND:                -1.567
REMARK  Name = 
REMARK  10 active torsions:
REMARK  status: ('A' for Active; 'I' for Inactive)
REMARK    1  A    between atoms: C_1  and  O_2
REMARK    2  A    between atoms: O_2  and  C_3
REMARK    3  A    between atoms: C_10  and  C_11
REMARK    4  A    between atoms: N_13  and  C_14
REMARK    5  A    between atoms: C_14  and  C_15
REMARK    6  A    between atoms: C_18  and  N_19
REMARK    7  A    between atoms: N_19  and  C_20
REMARK    8  A    between atoms: C_20  and  C_21
REMARK    9  A    between atoms: N_24  and  C_25
REMARK   10  A    between atoms: C_27  and  C_28
REMARK                            x       y       z     vdW  Elec       q    Type
REMARK                         _______ _______ _______ _____ _____    ______ ____
ROOT
ATOM      1  C   UNL     1      48.603   7.983  13.244  0.00  0.00    +0.000 A 
ATOM      2  C   UNL     1      49.740   7.303  13.690  0.00  0.00    +0.000 A 
ATOM      3  C   UNL     1      50.149   7.408  15.025  0.00  0.00    +0.000 A 
ATOM      4  C   UNL     1      49.452   8.215  15.929  0.00  0.00    +0.000 A 
ATOM      5  C   UNL     1      48.223   8.742  15.520  0.00  0.00    +0.000 A 
ATOM      6  C   UNL     1      47.803   8.636  14.188  0.00  0.00    +0.000 A 
ENDROOT
BRANCH   4   7
ATOM      7  N   UNL     1      49.909   8.501  17.226  0.00  0.00    +0.000 N 
ATOM      8  H   UNL     1      49.129   8.682  17.855  0.00  0.00    +0.000 HD
BRANCH   7   9
ATOM      9  C   UNL     1      50.910   7.586  17.788  0.00  0.00    +0.000 C 
BRANCH   9  10
ATOM     10  C   UNL     1      50.270   6.409  18.555  0.00  0.00    +0.000 C 
ATOM     11  C   UNL     1      48.861   6.799  19.054  0.00  0.00    +0.000 C 
ATOM     12  C   UNL     1      48.139   5.638  19.737  0.00  0.00    +0.000 C 
ATOM     13  N   UNL     1      48.092   4.418  18.924  0.00  0.00    +0.000 NA
ATOM     14  C   UNL     1      47.224   4.563  17.757  0.00  0.00    +0.000 C 
ATOM     15  C   UNL     1      49.447   4.002  18.557  0.00  0.00    +0.000 C 
ATOM     16  C   UNL     1      50.256   5.066  17.784  0.00  0.00    +0.000 C 
ATOM     17  C   UNL     1      51.667   4.517  17.542  0.00  0.00    +0.000 C 
ENDBRANCH   9  10
ENDBRANCH   7   9
ENDBRANCH   4   7
BRANCH   1  18
ATOM     18  C   UNL     1      48.289   8.073  11.774  0.00  0.00    +0.000 C 
BRANCH  18  21
ATOM     19  C   UNL     1      46.226   6.904  11.209  0.00  0.00    +0.000 C 
ATOM     20  O   UNL     1      45.565   7.866  11.592  0.00  0.00    +0.000 OA
ATOM     21  N   UNL     1      47.594   6.919  11.269  0.00  0.00    +0.000 N 
ATOM     22  H   UNL     1      48.139   6.118  10.979  0.00  0.00    +0.000 HD
BRANCH  19  30
ATOM     23  C   UNL     1      44.473   4.304  12.639  0.00  0.00    +0.000 A 
ATOM     24  N   UNL     1      43.813   3.163  12.928  0.00  0.00    +0.000 NA
ATOM     25  C   UNL     1      43.502   2.341  11.924  0.00  0.00    +0.000 A 
ATOM     26  N   UNL     1      43.768   2.525  10.634  0.00  0.00    +0.000 NA
ATOM     27  C   UNL     1      44.439   3.660  10.389  0.00  0.00    +0.000 A 
ATOM     28  S   UNL     1      44.851   4.059   8.793  0.00  0.00    +0.000 S 
ATOM     29  C   UNL     1      45.614   5.490   9.297  0.00  0.00    +0.000 A 
ATOM     30  C   UNL     1      45.573   5.699  10.671  0.00  0.00    +0.000 A 
ATOM     31  C   UNL     1      44.854   4.610  11.323  0.00  0.00    +0.000 A 
BRANCH  23  33
ATOM     32  C   UNL     1      46.087   4.947  14.194  0.00  0.00    +0.000 C 
ATOM     33  O   UNL     1      44.771   5.159  13.682  0.00  0.00    +0.000 OA
ENDBRANCH  23  33
ENDBRANCH  19  30
ENDBRANCH  18  21
ENDBRANCH   1  18
TORSDOF 7
ENDMDL
MODEL 7
REMARK VINA RESULT:    -5.798      3.535      8.888
REMARK INTER + INTRA:          -9.738
REMARK INTER:                  -8.046
REMARK INTRA:                  -1.691
REMARK UNBOUND:                -1.567
REMARK  Name = 
REMARK  10 active torsions:
REMARK  status: ('A' for Active; 'I' for Inactive)
REMARK    1  A    between atoms: C_1  and  O_2
REMARK    2  A    between atoms: O_2  and  C_3
REMARK    3  A    between atoms: C_10  and  C_11
REMARK    4  A    between atoms: N_13  and  C_14
REMARK    5  A    between atoms: C_14  and  C_15
REMARK    6  A    between atoms: C_18  and  N_19
REMARK    7  A    between atoms: N_19  and  C_20
REMARK    8  A    between atoms: C_20  and  C_21
REMARK    9  A    between atoms: N_24  and  C_25
REMARK   10  A    between atoms: C_27  and  C_28
REMARK                            x       y       z     vdW  Elec       q    Type
REMARK                         _______ _______ _______ _____ _____    ______ ____
ROOT
ATOM      1  C   UNL     1      48.766   8.362  15.160  0.00  0.00    +0.000 A 
ATOM      2  C   UNL     1      49.708   7.394  14.799  0.00  0.00    +0.000 A 
ATOM      3  C   UNL     1      50.643   6.932  15.733  0.00  0.00    +0.000 A 
ATOM      4  C   UNL     1      50.674   7.446  17.033  0.00  0.00    +0.000 A 
ATOM      5  C   UNL     1      49.621   8.275  17.432  0.00  0.00    +0.000 A 
ATOM      6  C   UNL     1      48.678   8.737  16.505  0.00  0.00    +0.000 A 
ENDROOT
BRANCH   4   7
ATOM      7  N   UNL     1      51.692   7.157  17.958  0.00  0.00    +0.000 N 
ATOM      8  H   UNL     1      51.557   7.679  18.821  0.00  0.00    +0.000 HD
BRANCH   7   9
ATOM      9  C   UNL     1      51.997   5.738  18.177  0.00  0.00    +0.000 C 
BRANCH   9  10
ATOM     10  C   UNL     1      50.962   5.046  19.092  0.00  0.00    +0.000 C 
ATOM     11  C   UNL     1      50.563   5.984  20.252  0.00  0.00    +0.000 C 
ATOM     12  C   UNL     1      49.468   5.388  21.137  0.00  0.00    +0.000 C 
ATOM     13  N   UNL     1      48.288   4.943  20.388  0.00  0.00    +0.000 NA
ATOM     14  C   UNL     1      47.534   6.062  19.825  0.00  0.00    +0.000 C 
ATOM     15  C   UNL     1      48.675   3.967  19.367  0.00  0.00    +0.000 C 
ATOM     16  C   UNL     1      49.723   4.482  18.356  0.00  0.00    +0.000 C 
ATOM     17  C   UNL     1      50.081   3.331  17.406  0.00  0.00    +0.000 C 
ENDBRANCH   9  10
ENDBRANCH   7   9
ENDBRANCH   4   7
BRANCH   1  18
ATOM     18  C   UNL     1      47.918   9.037  14.115  0.00  0.00    +0.000 C 
BRANCH  18  21
ATOM     19  C   UNL     1      46.793   7.550  12.545  0.00  0.00    +0.000 C 
ATOM     20  O   UNL     1      47.774   7.573  11.806  0.00  0.00    +0.000 OA
ATOM     21  N   UNL     1      46.777   8.258  13.717  0.00  0.00    +0.000 N 
ATOM     22  H   UNL     1      45.960   8.262  14.314  0.00  0.00    +0.000 HD
BRANCH  19  30
ATOM     23  C   UNL     1      45.935   4.234  12.925  0.00  0.00    +0.000 A 
ATOM     24  N   UNL     1      45.371   3.009  12.894  0.00  0.00    +0.000 NA
ATOM     25  C   UNL     1      44.161   2.883  12.343  0.00  0.00    +0.000 A 
ATOM     26  N   UNL     1      43.425   3.854  11.812  0.00  0.00    +0.000 NA
ATOM     27  C   UNL     1      44.026   5.052  11.845  0.00  0.00    +0.000 A 
ATOM     28  S   UNL     1      43.222   6.408  11.218  0.00  0.00    +0.000 S 
ATOM     29  C   UNL     1      44.533   7.420  11.595  0.00  0.00    +0.000 A 
ATOM     30  C   UNL     1      45.599   6.762  12.199  0.00  0.00    +0.000 A 
ATOM     31  C   UNL     1      45.287   5.346  12.364  0.00  0.00    +0.000 A 
BRANCH  23  33
ATOM     32  C   UNL     1      47.081   4.627  14.916  0.00  0.00    +0.000 C 
ATOM     33  O   UNL     1      47.176   4.359  13.517  0.00  0.00    +0.000 OA
ENDBRANCH  23  33
ENDBRANCH  19  30
ENDBRANCH  18  21
ENDBRANCH   1  18
TORSDOF 7
ENDMDL
MODEL 8
REMARK VINA RESULT:    -5.737      4.960      7.688
REMARK INTER + INTRA:          -9.652
REMARK INTER:                  -8.276
REMARK INTRA:                  -1.376
REMARK UNBOUND:                -1.567
REMARK  Name = 
REMARK  10 active torsions:
REMARK  status: ('A' for Active; 'I' for Inactive)
REMARK    1  A    between atoms: C_1  and  O_2
REMARK    2  A    between atoms: O_2  and  C_3
REMARK    3  A    between atoms: C_10  and  C_11
REMARK    4  A    between atoms: N_13  and  C_14
REMARK    5  A    between atoms: C_14  and  C_15
REMARK    6  A    between atoms: C_18  and  N_19
REMARK    7  A    between atoms: N_19  and  C_20
REMARK    8  A    between atoms: C_20  and  C_21
REMARK    9  A    between atoms: N_24  and  C_25
REMARK   10  A    between atoms: C_27  and  C_28
REMARK                            x       y       z     vdW  Elec       q    Type
REMARK                         _______ _______ _______ _____ _____    ______ ____
ROOT
ATOM      1  C   UNL     1      50.210   8.626  11.631  0.00  0.00    +0.000 A 
ATOM      2  C   UNL     1      49.262   9.651  11.552  0.00  0.00    +0.000 A 
ATOM      3  C   UNL     1      47.898   9.366  11.684  0.00  0.00    +0.000 A 
ATOM      4  C   UNL     1      47.453   8.053  11.867  0.00  0.00    +0.000 A 
ATOM      5  C   UNL     1      48.412   7.069  12.124  0.00  0.00    +0.000 A 
ATOM      6  C   UNL     1      49.779   7.348  12.000  0.00  0.00    +0.000 A 
ENDROOT
BRANCH   4   7
ATOM      7  N   UNL     1      46.098   7.680  11.830  0.00  0.00    +0.000 N 
ATOM      8  H   UNL     1      45.900   7.116  11.006  0.00  0.00    +0.000 HD
BRANCH   7   9
ATOM      9  C   UNL     1      45.534   7.126  13.066  0.00  0.00    +0.000 C 
BRANCH   9  10
ATOM     10  C   UNL     1      44.743   5.822  12.821  0.00  0.00    +0.000 C 
ATOM     11  C   UNL     1      43.600   6.071  11.813  0.00  0.00    +0.000 C 
ATOM     12  C   UNL     1      42.843   4.792  11.457  0.00  0.00    +0.000 C 
ATOM     13  N   UNL     1      43.714   3.702  11.008  0.00  0.00    +0.000 NA
ATOM     14  C   UNL     1      44.314   3.973   9.703  0.00  0.00    +0.000 C 
ATOM     15  C   UNL     1      44.721   3.405  12.029  0.00  0.00    +0.000 C 
ATOM     16  C   UNL     1      45.612   4.605  12.417  0.00  0.00    +0.000 C 
ATOM     17  C   UNL     1      46.555   4.161  13.542  0.00  0.00    +0.000 C 
ENDBRANCH   9  10
ENDBRANCH   7   9
ENDBRANCH   4   7
BRANCH   1  18
ATOM     18  C   UNL     1      51.646   8.878  11.257  0.00  0.00    +0.000 C 
BRANCH  18  21
ATOM     19  C   UNL     1      53.633   7.621  10.615  0.00  0.00    +0.000 C 
ATOM     20  O   UNL     1      54.349   8.455  11.164  0.00  0.00    +0.000 OA
ATOM     21  N   UNL     1      52.271   7.756  10.609  0.00  0.00    +0.000 N 
ATOM     22  H   UNL     1      51.681   7.084  10.135  0.00  0.00    +0.000 HD
BRANCH  19  30
ATOM     23  C   UNL     1      53.139   6.146   7.540  0.00  0.00    +0.000 A 
ATOM     24  N   UNL     1      53.110   5.347   6.453  0.00  0.00    +0.000 NA
ATOM     25  C   UNL     1      53.904   4.274   6.435  0.00  0.00    +0.000 A 
ATOM     26  N   UNL     1      54.749   3.894   7.388  0.00  0.00    +0.000 NA
ATOM     27  C   UNL     1      54.736   4.702   8.459  0.00  0.00    +0.000 A 
ATOM     28  S   UNL     1      55.763   4.371   9.767  0.00  0.00    +0.000 S 
ATOM     29  C   UNL     1      55.186   5.719  10.624  0.00  0.00    +0.000 A 
ATOM     30  C   UNL     1      54.213   6.444   9.946  0.00  0.00    +0.000 A 
ATOM     31  C   UNL     1      53.957   5.844   8.641  0.00  0.00    +0.000 A 
BRANCH  23  33
ATOM     32  C   UNL     1      52.907   8.346   6.804  0.00  0.00    +0.000 C 
ATOM     33  O   UNL     1      52.332   7.266   7.540  0.00  0.00    +0.000 OA
ENDBRANCH  23  33
ENDBRANCH  19  30
ENDBRANCH  18  21
ENDBRANCH   1  18
TORSDOF 7
ENDMDL
