MODEL 1
REMARK VINA RESULT:    -7.977      0.000      0.000
REMARK INTER + INTRA:         -11.037
REMARK INTER:                 -10.542
REMARK INTRA:                  -0.495
REMARK UNBOUND:                -0.495
REMARK  Name = 
REMARK  6 active torsions:
REMARK  status: ('A' for Active; 'I' for Inactive)
REMARK    1  A    between atoms: N_1  and  C_2
REMARK    2  A    between atoms: C_2  and  C_3
REMARK    3  A    between atoms: C_6  and  C_7
REMARK    4  A    between atoms: C_7  and  C_8
REMARK    5  A    between atoms: C_8  and  N_9
REMARK    6  A    between atoms: C_13  and  C_14
REMARK                            x       y       z     vdW  Elec       q    Type
REMARK                         _______ _______ _______ _____ _____    ______ ____
ROOT
ATOM      1  N   UNL     1      43.764   4.717   9.894  0.00  0.00    +0.000 N 
ATOM      2  C   UNL     1      44.706   3.968   9.202  0.00  0.00    +0.000 A 
ATOM      3  C   UNL     1      44.783   2.569   9.243  0.00  0.00    +0.000 A 
ATOM      4  N   UNL     1      45.669   1.825   8.532  0.00  0.00    +0.000 NA
ATOM      5  C   UNL     1      46.487   2.551   7.726  0.00  0.00    +0.000 A 
ATOM      6  C   UNL     1      46.425   3.935   7.659  0.00  0.00    +0.000 A 
ATOM      7  N   UNL     1      45.542   4.663   8.399  0.00  0.00    +0.000 NA
ATOM      8  H   UNL     1      44.033   5.695   9.825  0.00  0.00    +0.000 HD
ENDROOT
BRANCH   5   9
ATOM      9  C   UNL     1      47.461   1.795   6.894  0.00  0.00    +0.000 C 
ATOM     10  N   UNL     1      48.557   2.506   6.478  0.00  0.00    +0.000 N 
ATOM     11  O   UNL     1      47.301   0.617   6.600  0.00  0.00    +0.000 OA
ATOM     12  H   UNL     1      48.656   3.478   6.749  0.00  0.00    +0.000 HD
ATOM     13  H   UNL     1      49.267   2.052   5.921  0.00  0.00    +0.000 HD
ENDBRANCH   5   9
BRANCH   1  14
ATOM     14  C   UNL     1      43.334   4.250  11.207  0.00  0.00    +0.000 C 
BRANCH  14  15
ATOM     15  C   UNL     1      43.248   5.406  12.209  0.00  0.00    +0.000 C 
BRANCH  15  19
ATOM     16  C   UNL     1      47.241   6.531  13.473  0.00  0.00    +0.000 A 
ATOM     17  C   UNL     1      46.365   7.483  12.932  0.00  0.00    +0.000 A 
ATOM     18  C   UNL     1      45.072   7.126  12.542  0.00  0.00    +0.000 A 
ATOM     19  C   UNL     1      44.626   5.807  12.684  0.00  0.00    +0.000 A 
ATOM     20  C   UNL     1      45.500   4.852  13.221  0.00  0.00    +0.000 A 
ATOM     21  C   UNL     1      46.794   5.211  13.612  0.00  0.00    +0.000 A 
BRANCH  16  22
ATOM     22  C   UNL     1      48.644   6.918  13.868  0.00  0.00    +0.000 C 
BRANCH  22  23
ATOM     23  N   UNL     1      49.593   6.697  12.784  0.00  0.00    +0.000 NA
ATOM     24  H   UNL     1      49.853   7.595  12.380  0.00  0.00    +0.000 HD
ATOM     25  H   UNL     1      49.128   6.172  12.045  0.00  0.00    +0.000 HD
ENDBRANCH  22  23
ENDBRANCH  16  22
ENDBRANCH  15  19
ENDBRANCH  14  15
ENDBRANCH   1  14
TORSDOF 6
ENDMDL
MODEL 2
REMARK VINA RESULT:    -7.495      2.918      6.519
REMARK INTER + INTRA:         -10.401
REMARK INTER:                  -9.862
REMARK INTRA:                  -0.539
REMARK UNBOUND:                -0.495
REMARK  Name = 
REMARK  6 active torsions:
REMARK  status: ('A' for Active; 'I' for Inactive)
REMARK    1  A    between atoms: N_1  and  C_2
REMARK    2  A    between atoms: C_2  and  C_3
REMARK    3  A    between atoms: C_6  and  C_7
REMARK    4  A    between atoms: C_7  and  C_8
REMARK    5  A    between atoms: C_8  and  N_9
REMARK    6  A    between atoms: C_13  and  C_14
REMARK                            x       y       z     vdW  Elec       q    Type
REMARK                         _______ _______ _______ _____ _____    ______ ____
ROOT
ATOM      1  N   UNL     1      44.050   4.133  12.333  0.00  0.00    +0.000 N 
ATOM      2  C   UNL     1      45.247   4.786  12.594  0.00  0.00    +0.000 A 
ATOM      3  C   UNL     1      45.761   5.828  11.810  0.00  0.00    +0.000 A 
ATOM      4  N   UNL     1      46.905   6.507  12.084  0.00  0.00    +0.000 NA
ATOM      5  C   UNL     1      47.526   6.114  13.227  0.00  0.00    +0.000 A 
ATOM      6  C   UNL     1      47.034   5.092  14.026  0.00  0.00    +0.000 A 
ATOM      7  N   UNL     1      45.895   4.410  13.719  0.00  0.00    +0.000 NA
ATOM      8  H   UNL     1      43.999   3.322  12.945  0.00  0.00    +0.000 HD
ENDROOT
BRANCH   5   9
ATOM      9  C   UNL     1      48.770   6.839  13.603  0.00  0.00    +0.000 C 
ATOM     10  N   UNL     1      49.698   6.972  12.604  0.00  0.00    +0.000 N 
ATOM     11  O   UNL     1      48.955   7.288  14.727  0.00  0.00    +0.000 OA
ATOM     12  H   UNL     1      49.504   6.592  11.685  0.00  0.00    +0.000 HD
ATOM     13  H   UNL     1      50.562   7.465  12.784  0.00  0.00    +0.000 HD
ENDBRANCH   5   9
BRANCH   1  14
ATOM     14  C   UNL     1      43.661   3.926  10.943  0.00  0.00    +0.000 C 
BRANCH  14  15
ATOM     15  C   UNL     1      44.051   2.525  10.458  0.00  0.00    +0.000 C 
BRANCH  15  19
ATOM     16  C   UNL     1      46.698   2.791   7.032  0.00  0.00    +0.000 A 
ATOM     17  C   UNL     1      46.468   1.562   7.668  0.00  0.00    +0.000 A 
ATOM     18  C   UNL     1      45.601   1.472   8.760  0.00  0.00    +0.000 A 
ATOM     19  C   UNL     1      44.944   2.610   9.240  0.00  0.00    +0.000 A 
ATOM     20  C   UNL     1      45.174   3.841   8.609  0.00  0.00    +0.000 A 
ATOM     21  C   UNL     1      46.041   3.929   7.515  0.00  0.00    +0.000 A 
BRANCH  16  22
ATOM     22  C   UNL     1      47.654   2.885   5.870  0.00  0.00    +0.000 C 
BRANCH  22  23
ATOM     23  N   UNL     1      48.502   1.702   5.770  0.00  0.00    +0.000 NA
ATOM     24  H   UNL     1      48.797   1.585   4.802  0.00  0.00    +0.000 HD
ATOM     25  H   UNL     1      47.946   0.881   6.003  0.00  0.00    +0.000 HD
ENDBRANCH  22  23
ENDBRANCH  16  22
ENDBRANCH  15  19
ENDBRANCH  14  15
ENDBRANCH   1  14
TORSDOF 6
ENDMDL
MODEL 3
REMARK VINA RESULT:    -7.390      3.190      6.942
REMARK INTER + INTRA:         -10.262
REMARK INTER:                  -9.920
REMARK INTRA:                  -0.342
REMARK UNBOUND:                -0.495
REMARK  Name = 
REMARK  6 active torsions:
REMARK  status: ('A' for Active; 'I' for Inactive)
REMARK    1  A    between atoms: N_1  and  C_2
REMARK    2  A    between atoms: C_2  and  C_3
REMARK    3  A    between atoms: C_6  and  C_7
REMARK    4  A    between atoms: C_7  and  C_8
REMARK    5  A    between atoms: C_8  and  N_9
REMARK    6  A    between atoms: C_13  and  C_14
REMARK                            x       y       z     vdW  Elec       q    Type
REMARK                         _______ _______ _______ _____ _____    ______ ____
ROOT
ATOM      1  N   UNL     1      45.620   5.170  11.451  0.00  0.00    +0.000 N 
ATOM      2  C   UNL     1      46.206   5.146  12.709  0.00  0.00    +0.000 A 
ATOM      3  C   UNL     1      46.140   4.056  13.587  0.00  0.00    +0.000 A 
ATOM      4  N   UNL     1      46.751   4.002  14.798  0.00  0.00    +0.000 NA
ATOM      5  C   UNL     1      47.482   5.106  15.102  0.00  0.00    +0.000 A 
ATOM      6  C   UNL     1      47.572   6.195  14.248  0.00  0.00    +0.000 A 
ATOM      7  N   UNL     1      46.932   6.235  13.046  0.00  0.00    +0.000 NA
ATOM      8  H   UNL     1      45.674   6.124  11.101  0.00  0.00    +0.000 HD
ENDROOT
BRANCH   5   9
ATOM      9  C   UNL     1      48.204   5.101  16.403  0.00  0.00    +0.000 C 
ATOM     10  N   UNL     1      47.448   5.436  17.497  0.00  0.00    +0.000 N 
ATOM     11  O   UNL     1      49.391   4.817  16.496  0.00  0.00    +0.000 OA
ATOM     12  H   UNL     1      46.466   5.658  17.379  0.00  0.00    +0.000 HD
ATOM     13  H   UNL     1      47.870   5.440  18.416  0.00  0.00    +0.000 HD
ENDBRANCH   5   9
BRANCH   1  14
ATOM     14  C   UNL     1      44.349   4.479  11.264  0.00  0.00    +0.000 C 
BRANCH  14  15
ATOM     15  C   UNL     1      43.955   4.429   9.784  0.00  0.00    +0.000 C 
BRANCH  15  19
ATOM     16  C   UNL     1      46.806   2.180   7.412  0.00  0.00    +0.000 A 
ATOM     17  C   UNL     1      46.707   3.573   7.284  0.00  0.00    +0.000 A 
ATOM     18  C   UNL     1      45.802   4.301   8.061  0.00  0.00    +0.000 A 
ATOM     19  C   UNL     1      44.976   3.651   8.984  0.00  0.00    +0.000 A 
ATOM     20  C   UNL     1      45.069   2.258   9.112  0.00  0.00    +0.000 A 
ATOM     21  C   UNL     1      45.976   1.531   8.334  0.00  0.00    +0.000 A 
BRANCH  16  22
ATOM     22  C   UNL     1      47.767   1.398   6.552  0.00  0.00    +0.000 C 
BRANCH  22  23
ATOM     23  N   UNL     1      48.411   2.244   5.553  0.00  0.00    +0.000 NA
ATOM     24  H   UNL     1      47.717   2.535   4.866  0.00  0.00    +0.000 HD
ATOM     25  H   UNL     1      49.100   1.689   5.050  0.00  0.00    +0.000 HD
ENDBRANCH  22  23
ENDBRANCH  16  22
ENDBRANCH  15  19
ENDBRANCH  14  15
ENDBRANCH   1  14
TORSDOF 6
ENDMDL
MODEL 4
REMARK VINA RESULT:    -7.310      2.992      6.558
REMARK INTER + INTRA:         -10.156
REMARK INTER:                 -10.239
REMARK INTRA:                   0.083
REMARK UNBOUND:                -0.495
REMARK  Name = 
REMARK  6 active torsions:
REMARK  status: ('A' for Active; 'I' for Inactive)
REMARK    1  A    between atoms: N_1  and  C_2
REMARK    2  A    between atoms: C_2  and  C_3
REMARK    3  A    between atoms: C_6  and  C_7
REMARK    4  A    between atoms: C_7  and  C_8
REMARK    5  A    between atoms: C_8  and  N_9
REMARK    6  A    between atoms: C_13  and  C_14
REMARK                            x       y       z     vdW  Elec       q    Type
REMARK                         _______ _______ _______ _____ _____    ______ ____
ROOT
ATOM      1  N   UNL     1      44.851   3.423  12.515  0.00  0.00    +0.000 N 
ATOM      2  C   UNL     1      45.299   4.730  12.649  0.00  0.00    +0.000 A 
ATOM      3  C   UNL     1      44.460   5.853  12.636  0.00  0.00    +0.000 A 
ATOM      4  N   UNL     1      44.881   7.132  12.816  0.00  0.00    +0.000 NA
ATOM      5  C   UNL     1      46.215   7.252  13.046  0.00  0.00    +0.000 A 
ATOM      6  C   UNL     1      47.065   6.157  13.074  0.00  0.00    +0.000 A 
ATOM      7  N   UNL     1      46.623   4.884  12.869  0.00  0.00    +0.000 NA
ATOM      8  H   UNL     1      45.666   2.827  12.391  0.00  0.00    +0.000 HD
ENDROOT
BRANCH   5   9
ATOM      9  C   UNL     1      46.739   8.625  13.283  0.00  0.00    +0.000 C 
ATOM     10  N   UNL     1      47.186   8.873  14.554  0.00  0.00    +0.000 N 
ATOM     11  O   UNL     1      46.772   9.476  12.404  0.00  0.00    +0.000 OA
ATOM     12  H   UNL     1      47.148   8.138  15.252  0.00  0.00    +0.000 HD
ATOM     13  H   UNL     1      47.567   9.780  14.783  0.00  0.00    +0.000 HD
ENDBRANCH   5   9
BRANCH   1  14
ATOM     14  C   UNL     1      43.715   3.164  11.639  0.00  0.00    +0.000 C 
BRANCH  14  15
ATOM     15  C   UNL     1      43.790   4.011  10.364  0.00  0.00    +0.000 C 
BRANCH  15  19
ATOM     16  C   UNL     1      46.576   2.323   7.500  0.00  0.00    +0.000 A 
ATOM     17  C   UNL     1      46.397   3.711   7.595  0.00  0.00    +0.000 A 
ATOM     18  C   UNL     1      45.514   4.257   8.530  0.00  0.00    +0.000 A 
ATOM     19  C   UNL     1      44.790   3.426   9.392  0.00  0.00    +0.000 A 
ATOM     20  C   UNL     1      44.964   2.038   9.298  0.00  0.00    +0.000 A 
ATOM     21  C   UNL     1      45.849   1.493   8.362  0.00  0.00    +0.000 A 
BRANCH  16  22
ATOM     22  C   UNL     1      47.513   1.740   6.472  0.00  0.00    +0.000 C 
BRANCH  22  23
ATOM     23  N   UNL     1      48.674   2.594   6.252  0.00  0.00    +0.000 NA
ATOM     24  H   UNL     1      49.500   2.138   6.636  0.00  0.00    +0.000 HD
ATOM     25  H   UNL     1      48.550   3.457   6.778  0.00  0.00    +0.000 HD
ENDBRANCH  22  23
ENDBRANCH  16  22
ENDBRANCH  15  19
ENDBRANCH  14  15
ENDBRANCH   1  14
TORSDOF 6
ENDMDL
MODEL 5
REMARK VINA RESULT:    -6.673      3.315      7.402
REMARK INTER + INTRA:          -9.313
REMARK INTER:                  -8.959
REMARK INTRA:                  -0.354
REMARK UNBOUND:                -0.495
REMARK  Name = 
REMARK  6 active torsions:
REMARK  status: ('A' for Active; 'I' for Inactive)
REMARK    1  A    between atoms: N_1  and  C_2
REMARK    2  A    between atoms: C_2  and  C_3
REMARK    3  A    between atoms: C_6  and  C_7
REMARK    4  A    between atoms: C_7  and  C_8
REMARK    5  A    between atoms: C_8  and  N_9
REMARK    6  A    between atoms: C_13  and  C_14
REMARK                            x       y       z     vdW  Elec       q    Type
REMARK                         _______ _______ _______ _____ _____    ______ ____
ROOT
ATOM      1  N   UNL     1      45.871   5.326  11.894  0.00  0.00    +0.000 N 
ATOM      2  C   UNL     1      46.565   6.272  12.635  0.00  0.00    +0.000 A 
ATOM      3  C   UNL     1      46.127   7.588  12.837  0.00  0.00    +0.000 A 
ATOM      4  N   UNL     1      46.772   8.507  13.601  0.00  0.00    +0.000 NA
ATOM      5  C   UNL     1      47.898   8.040  14.202  0.00  0.00    +0.000 A 
ATOM      6  C   UNL     1      48.348   6.740  14.027  0.00  0.00    +0.000 A 
ATOM      7  N   UNL     1      47.695   5.842  13.238  0.00  0.00    +0.000 NA
ATOM      8  H   UNL     1      46.481   4.521  11.769  0.00  0.00    +0.000 HD
ENDROOT
BRANCH   5   9
ATOM      9  C   UNL     1      48.638   8.988  15.079  0.00  0.00    +0.000 C 
ATOM     10  N   UNL     1      48.541  10.310  14.731  0.00  0.00    +0.000 N 
ATOM     11  O   UNL     1      49.288   8.616  16.047  0.00  0.00    +0.000 OA
ATOM     12  H   UNL     1      47.987  10.577  13.926  0.00  0.00    +0.000 HD
ATOM     13  H   UNL     1      49.008  11.011  15.290  0.00  0.00    +0.000 HD
ENDBRANCH   5   9
BRANCH   1  14
ATOM     14  C   UNL     1      45.128   5.771  10.721  0.00  0.00    +0.000 C 
BRANCH  14  15
ATOM     15  C   UNL     1      44.248   4.648  10.161  0.00  0.00    +0.000 C 
BRANCH  15  19
ATOM     16  C   UNL     1      46.589   2.158   7.491  0.00  0.00    +0.000 A 
ATOM     17  C   UNL     1      45.793   1.585   8.493  0.00  0.00    +0.000 A 
ATOM     18  C   UNL     1      45.024   2.385   9.342  0.00  0.00    +0.000 A 
ATOM     19  C   UNL     1      45.034   3.777   9.206  0.00  0.00    +0.000 A 
ATOM     20  C   UNL     1      45.830   4.354   8.207  0.00  0.00    +0.000 A 
ATOM     21  C   UNL     1      46.599   3.551   7.358  0.00  0.00    +0.000 A 
BRANCH  16  22
ATOM     22  C   UNL     1      47.436   1.289   6.595  0.00  0.00    +0.000 C 
BRANCH  22  23
ATOM     23  N   UNL     1      48.536   2.037   5.998  0.00  0.00    +0.000 NA
ATOM     24  H   UNL     1      48.532   1.888   4.990  0.00  0.00    +0.000 HD
ATOM     25  H   UNL     1      49.415   1.656   6.343  0.00  0.00    +0.000 HD
ENDBRANCH  22  23
ENDBRANCH  16  22
ENDBRANCH  15  19
ENDBRANCH  14  15
ENDBRANCH   1  14
TORSDOF 6
ENDMDL
MODEL 6
REMARK VINA RESULT:    -6.357      4.775      6.670
REMARK INTER + INTRA:          -8.896
REMARK INTER:                  -8.593
REMARK INTRA:                  -0.303
REMARK UNBOUND:                -0.495
REMARK  Name = 
REMARK  6 active torsions:
REMARK  status: ('A' for Active; 'I' for Inactive)
REMARK    1  A    between atoms: N_1  and  C_2
REMARK    2  A    between atoms: C_2  and  C_3
REMARK    3  A    between atoms: C_6  and  C_7
REMARK    4  A    between atoms: C_7  and  C_8
REMARK    5  A    between atoms: C_8  and  N_9
REMARK    6  A    between atoms: C_13  and  C_14
REMARK                            x       y       z     vdW  Elec       q    Type
REMARK                         _______ _______ _______ _____ _____    ______ ____
ROOT
ATOM      1  N   UNL     1      47.152   3.610  14.640  0.00  0.00    +0.000 N 
ATOM      2  C   UNL     1      46.210   4.070  13.730  0.00  0.00    +0.000 A 
ATOM      3  C   UNL     1      45.849   5.417  13.586  0.00  0.00    +0.000 A 
ATOM      4  N   UNL     1      44.966   5.883  12.666  0.00  0.00    +0.000 NA
ATOM      5  C   UNL     1      44.458   4.927  11.845  0.00  0.00    +0.000 A 
ATOM      6  C   UNL     1      44.806   3.589  11.960  0.00  0.00    +0.000 A 
ATOM      7  N   UNL     1      45.679   3.141  12.906  0.00  0.00    +0.000 NA
ATOM      8  H   UNL     1      47.100   2.594  14.655  0.00  0.00    +0.000 HD
ENDROOT
BRANCH   5   9
ATOM      9  C   UNL     1      43.507   5.375  10.792  0.00  0.00    +0.000 C 
ATOM     10  N   UNL     1      42.793   6.507  11.088  0.00  0.00    +0.000 N 
ATOM     11  O   UNL     1      43.370   4.778   9.733  0.00  0.00    +0.000 OA
ATOM     12  H   UNL     1      42.941   6.977  11.974  0.00  0.00    +0.000 HD
ATOM     13  H   UNL     1      42.138   6.877  10.413  0.00  0.00    +0.000 HD
ENDBRANCH   5   9
BRANCH   1  14
ATOM     14  C   UNL     1      47.251   4.276  15.934  0.00  0.00    +0.000 C 
BRANCH  14  15
ATOM     15  C   UNL     1      47.525   3.271  17.058  0.00  0.00    +0.000 C 
BRANCH  15  19
ATOM     16  C   UNL     1      51.769   2.742  17.777  0.00  0.00    +0.000 A 
ATOM     17  C   UNL     1      51.017   1.739  17.150  0.00  0.00    +0.000 A 
ATOM     18  C   UNL     1      49.654   1.915  16.901  0.00  0.00    +0.000 A 
ATOM     19  C   UNL     1      49.012   3.101  17.274  0.00  0.00    +0.000 A 
ATOM     20  C   UNL     1      49.760   4.106  17.904  0.00  0.00    +0.000 A 
ATOM     21  C   UNL     1      51.125   3.928  18.151  0.00  0.00    +0.000 A 
BRANCH  16  22
ATOM     22  C   UNL     1      53.235   2.535  18.065  0.00  0.00    +0.000 C 
BRANCH  22  23
ATOM     23  N   UNL     1      53.503   2.481  19.497  0.00  0.00    +0.000 NA
ATOM     24  H   UNL     1      54.256   3.131  19.720  0.00  0.00    +0.000 HD
ATOM     25  H   UNL     1      53.846   1.551  19.731  0.00  0.00    +0.000 HD
ENDBRANCH  22  23
ENDBRANCH  16  22
ENDBRANCH  15  19
ENDBRANCH  14  15
ENDBRANCH   1  14
TORSDOF 6
ENDMDL
MODEL 7
REMARK VINA RESULT:    -6.311      4.400      7.831
REMARK INTER + INTRA:          -8.835
REMARK INTER:                  -8.550
REMARK INTRA:                  -0.285
REMARK UNBOUND:                -0.495
REMARK  Name = 
REMARK  6 active torsions:
REMARK  status: ('A' for Active; 'I' for Inactive)
REMARK    1  A    between atoms: N_1  and  C_2
REMARK    2  A    between atoms: C_2  and  C_3
REMARK    3  A    between atoms: C_6  and  C_7
REMARK    4  A    between atoms: C_7  and  C_8
REMARK    5  A    between atoms: C_8  and  N_9
REMARK    6  A    between atoms: C_13  and  C_14
REMARK                            x       y       z     vdW  Elec       q    Type
REMARK                         _______ _______ _______ _____ _____    ______ ____
ROOT
ATOM      1  N   UNL     1      46.392   4.106  14.716  0.00  0.00    +0.000 N 
ATOM      2  C   UNL     1      47.491   4.095  15.565  0.00  0.00    +0.000 A 
ATOM      3  C   UNL     1      48.166   5.246  15.992  0.00  0.00    +0.000 A 
ATOM      4  N   UNL     1      49.209   5.250  16.861  0.00  0.00    +0.000 NA
ATOM      5  C   UNL     1      49.549   4.021  17.330  0.00  0.00    +0.000 A 
ATOM      6  C   UNL     1      48.891   2.867  16.932  0.00  0.00    +0.000 A 
ATOM      7  N   UNL     1      47.860   2.885  16.041  0.00  0.00    +0.000 NA
ATOM      8  H   UNL     1      46.205   3.146  14.437  0.00  0.00    +0.000 HD
ENDROOT
BRANCH   5   9
ATOM      9  C   UNL     1      50.665   3.957  18.312  0.00  0.00    +0.000 C 
ATOM     10  N   UNL     1      50.354   4.359  19.584  0.00  0.00    +0.000 N 
ATOM     11  O   UNL     1      51.786   3.570  18.008  0.00  0.00    +0.000 OA
ATOM     12  H   UNL     1      49.411   4.665  19.797  0.00  0.00    +0.000 HD
ATOM     13  H   UNL     1      51.060   4.329  20.307  0.00  0.00    +0.000 HD
ENDBRANCH   5   9
BRANCH   1  14
ATOM     14  C   UNL     1      46.340   5.112  13.662  0.00  0.00    +0.000 C 
BRANCH  14  15
ATOM     15  C   UNL     1      44.970   5.131  12.977  0.00  0.00    +0.000 C 
BRANCH  15  19
ATOM     16  C   UNL     1      45.417   3.892   8.844  0.00  0.00    +0.000 A 
ATOM     17  C   UNL     1      44.955   2.993   9.817  0.00  0.00    +0.000 A 
ATOM     18  C   UNL     1      44.793   3.396  11.145  0.00  0.00    +0.000 A 
ATOM     19  C   UNL     1      45.089   4.708  11.529  0.00  0.00    +0.000 A 
ATOM     20  C   UNL     1      45.554   5.609  10.561  0.00  0.00    +0.000 A 
ATOM     21  C   UNL     1      45.714   5.204   9.231  0.00  0.00    +0.000 A 
BRANCH  16  22
ATOM     22  C   UNL     1      45.613   3.443   7.418  0.00  0.00    +0.000 C 
BRANCH  22  23
ATOM     23  N   UNL     1      46.733   4.128   6.784  0.00  0.00    +0.000 NA
ATOM     24  H   UNL     1      47.267   3.456   6.235  0.00  0.00    +0.000 HD
ATOM     25  H   UNL     1      47.360   4.470   7.511  0.00  0.00    +0.000 HD
ENDBRANCH  22  23
ENDBRANCH  16  22
ENDBRANCH  15  19
ENDBRANCH  14  15
ENDBRANCH   1  14
TORSDOF 6
ENDMDL
MODEL 8
REMARK VINA RESULT:    -5.803      3.221      5.066
REMARK INTER + INTRA:          -8.164
REMARK INTER:                  -7.723
REMARK INTRA:                  -0.441
REMARK UNBOUND:                -0.495
REMARK  Name = 
REMARK  6 active torsions:
REMARK  status: ('A' for Active; 'I' for Inactive)
REMARK    1  A    between atoms: N_1  and  C_2
REMARK    2  A    between atoms: C_2  and  C_3
REMARK    3  A    between atoms: C_6  and  C_7
REMARK    4  A    between atoms: C_7  and  C_8
REMARK    5  A    between atoms: C_8  and  N_9
REMARK    6  A    between atoms: C_13  and  C_14
REMARK                            x       y       z     vdW  Elec       q    Type
REMARK                         _______ _______ _______ _____ _____    ______ ____
ROOT
ATOM      1  N   UNL     1      44.917   8.082  12.793  0.00  0.00    +0.000 N 
ATOM      2  C   UNL     1      44.708   6.780  12.361  0.00  0.00    +0.000 A 
ATOM      3  C   UNL     1      45.392   5.665  12.863  0.00  0.00    +0.000 A 
ATOM      4  N   UNL     1      45.160   4.382  12.484  0.00  0.00    +0.000 NA
ATOM      5  C   UNL     1      44.162   4.242  11.572  0.00  0.00    +0.000 A 
ATOM      6  C   UNL     1      43.462   5.327  11.066  0.00  0.00    +0.000 A 
ATOM      7  N   UNL     1      43.728   6.609  11.446  0.00  0.00    +0.000 NA
ATOM      8  H   UNL     1      44.422   8.704  12.157  0.00  0.00    +0.000 HD
ENDROOT
BRANCH   5   9
ATOM      9  C   UNL     1      43.835   2.858  11.136  0.00  0.00    +0.000 C 
ATOM     10  N   UNL     1      44.614   2.360  10.124  0.00  0.00    +0.000 N 
ATOM     11  O   UNL     1      42.933   2.204  11.644  0.00  0.00    +0.000 OA
ATOM     12  H   UNL     1      45.355   2.931   9.735  0.00  0.00    +0.000 HD
ATOM     13  H   UNL     1      44.456   1.421   9.786  0.00  0.00    +0.000 HD
ENDBRANCH   5   9
BRANCH   1  14
ATOM     14  C   UNL     1      46.268   8.479  13.172  0.00  0.00    +0.000 C 
BRANCH  14  15
ATOM     15  C   UNL     1      46.851   9.490  12.179  0.00  0.00    +0.000 C 
BRANCH  15  19
ATOM     16  C   UNL     1      50.952   8.437  11.234  0.00  0.00    +0.000 A 
ATOM     17  C   UNL     1      49.986   7.443  11.447  0.00  0.00    +0.000 A 
ATOM     18  C   UNL     1      48.661   7.780  11.733  0.00  0.00    +0.000 A 
ATOM     19  C   UNL     1      48.272   9.122  11.812  0.00  0.00    +0.000 A 
ATOM     20  C   UNL     1      49.234  10.119  11.603  0.00  0.00    +0.000 A 
ATOM     21  C   UNL     1      50.561   9.779  11.315  0.00  0.00    +0.000 A 
BRANCH  16  22
ATOM     22  C   UNL     1      52.385   8.065  10.950  0.00  0.00    +0.000 C 
BRANCH  22  23
ATOM     23  N   UNL     1      52.508   6.680  10.510  0.00  0.00    +0.000 NA
ATOM     24  H   UNL     1      52.120   6.593   9.572  0.00  0.00    +0.000 HD
ATOM     25  H   UNL     1      51.935   6.093  11.115  0.00  0.00    +0.000 HD
ENDBRANCH  22  23
ENDBRANCH  16  22
ENDBRANCH  15  19
ENDBRANCH  14  15
ENDBRANCH   1  14
TORSDOF 6
ENDMDL
MODEL 9
REMARK VINA RESULT:    -5.716      4.282      6.419
REMARK INTER + INTRA:          -8.050
REMARK INTER:                  -7.737
REMARK INTRA:                  -0.313
REMARK UNBOUND:                -0.495
REMARK  Name = 
REMARK  6 active torsions:
REMARK  status: ('A' for Active; 'I' for Inactive)
REMARK    1  A    between atoms: N_1  and  C_2
REMARK    2  A    between atoms: C_2  and  C_3
REMARK    3  A    between atoms: C_6  and  C_7
REMARK    4  A    between atoms: C_7  and  C_8
REMARK    5  A    between atoms: C_8  and  N_9
REMARK    6  A    between atoms: C_13  and  C_14
REMARK                            x       y       z     vdW  Elec       q    Type
REMARK                         _______ _______ _______ _____ _____    ______ ____
ROOT
ATOM      1  N   UNL     1      47.703   7.001  14.503  0.00  0.00    +0.000 N 
ATOM      2  C   UNL     1      47.023   6.013  13.805  0.00  0.00    +0.000 A 
ATOM      3  C   UNL     1      46.993   4.663  14.182  0.00  0.00    +0.000 A 
ATOM      4  N   UNL     1      46.290   3.697  13.537  0.00  0.00    +0.000 NA
ATOM      5  C   UNL     1      45.567   4.148  12.478  0.00  0.00    +0.000 A 
ATOM      6  C   UNL     1      45.571   5.479  12.089  0.00  0.00    +0.000 A 
ATOM      7  N   UNL     1      46.302   6.427  12.741  0.00  0.00    +0.000 NA
ATOM      8  H   UNL     1      47.701   7.843  13.931  0.00  0.00    +0.000 HD
ENDROOT
BRANCH   5   9
ATOM      9  C   UNL     1      44.748   3.146  11.743  0.00  0.00    +0.000 C 
ATOM     10  N   UNL     1      43.865   2.432  12.510  0.00  0.00    +0.000 N 
ATOM     11  O   UNL     1      44.852   2.970  10.536  0.00  0.00    +0.000 OA
ATOM     12  H   UNL     1      43.805   2.613  13.506  0.00  0.00    +0.000 HD
ATOM     13  H   UNL     1      43.267   1.743  12.075  0.00  0.00    +0.000 HD
ENDBRANCH   5   9
BRANCH   1  14
ATOM     14  C   UNL     1      48.965   6.654  15.145  0.00  0.00    +0.000 C 
BRANCH  14  15
ATOM     15  C   UNL     1      48.758   6.288  16.619  0.00  0.00    +0.000 C 
BRANCH  15  19
ATOM     16  C   UNL     1      51.423   3.034  17.679  0.00  0.00    +0.000 A 
ATOM     17  C   UNL     1      51.910   4.340  17.528  0.00  0.00    +0.000 A 
ATOM     18  C   UNL     1      51.049   5.393  17.205  0.00  0.00    +0.000 A 
ATOM     19  C   UNL     1      49.681   5.161  17.026  0.00  0.00    +0.000 A 
ATOM     20  C   UNL     1      49.191   3.856  17.172  0.00  0.00    +0.000 A 
ATOM     21  C   UNL     1      50.054   2.804  17.497  0.00  0.00    +0.000 A 
BRANCH  16  22
ATOM     22  C   UNL     1      52.361   1.899  18.003  0.00  0.00    +0.000 C 
BRANCH  22  23
ATOM     23  N   UNL     1      51.908   0.640  17.424  0.00  0.00    +0.000 NA
ATOM     24  H   UNL     1      51.986   0.692  16.410  0.00  0.00    +0.000 HD
ATOM     25  H   UNL     1      50.918   0.522  17.631  0.00  0.00    +0.000 HD
ENDBRANCH  22  23
ENDBRANCH  16  22
ENDBRANCH  15  19
ENDBRANCH  14  15
ENDBRANCH   1  14
TORSDOF 6
ENDMDL
