MODEL 1
REMARK VINA RESULT:    -8.588      0.000      0.000
REMARK INTER + INTRA:         -11.762
REMARK INTER:                 -11.098
REMARK INTRA:                  -0.664
REMARK UNBOUND:                -0.664
REMARK  Name = 
REMARK  5 active torsions:
REMARK  status: ('A' for Active; 'I' for Inactive)
REMARK    1  A    between atoms: C_2  and  C_3
REMARK    2  A    between atoms: C_6  and  N_7
REMARK    3  A    between atoms: N_7  and  C_8
REMARK    4  A    between atoms: C_8  and  C_9
REMARK    5  A    between atoms: C_11  and  C_12
REMARK                            x       y       z     vdW  Elec       q    Type
REMARK                         _______ _______ _______ _____ _____    ______ ____
ROOT
ATOM      1  C   UNL     1      44.190   4.122  11.787  0.00  0.00    +0.000 C 
ATOM      2  C   UNL     1      43.392   3.031  12.481  0.00  0.00    +0.000 C 
ATOM      3  C   UNL     1      43.027   4.452  12.732  0.00  0.00    +0.000 C 
ENDROOT
BRANCH   1   4
ATOM      4  C   UNL     1      45.532   4.610  12.359  0.00  0.00    +0.000 A 
ATOM      5  C   UNL     1      46.083   5.788  11.842  0.00  0.00    +0.000 A 
ATOM      6  C   UNL     1      47.047   6.509  12.558  0.00  0.00    +0.000 A 
ATOM      7  C   UNL     1      47.526   5.923  13.731  0.00  0.00    +0.000 A 
ATOM      8  C   UNL     1      47.019   4.695  14.128  0.00  0.00    +0.000 A 
ATOM      9  N   UNL     1      46.034   4.038  13.482  0.00  0.00    +0.000 NA
BRANCH   6  10
ATOM     10  C   UNL     1      47.396   7.887  12.158  0.00  0.00    +0.000 A 
ATOM     11  C   UNL     1      48.674   8.273  11.756  0.00  0.00    +0.000 A 
ATOM     12  C   UNL     1      48.941   9.625  11.537  0.00  0.00    +0.000 A 
ATOM     13  C   UNL     1      47.929  10.559  11.713  0.00  0.00    +0.000 A 
ATOM     14  C   UNL     1      46.680  10.100  12.082  0.00  0.00    +0.000 A 
ATOM     15  N   UNL     1      46.396   8.798  12.300  0.00  0.00    +0.000 NA
ENDBRANCH   6  10
ENDBRANCH   1   4
BRANCH   1  16
ATOM     16  N   UNL     1      44.021   4.304  10.331  0.00  0.00    +0.000 N 
ATOM     17  H   UNL     1      43.093   4.519   9.985  0.00  0.00    +0.000 HD
BRANCH  16  21
ATOM     18  C   UNL     1      46.660   2.602   7.493  0.00  0.00    +0.000 A 
ATOM     19  C   UNL     1      45.984   1.771   8.388  0.00  0.00    +0.000 A 
ATOM     20  C   UNL     1      45.116   2.324   9.336  0.00  0.00    +0.000 A 
ATOM     21  C   UNL     1      44.859   3.700   9.373  0.00  0.00    +0.000 A 
ATOM     22  C   UNL     1      45.569   4.521   8.487  0.00  0.00    +0.000 A 
ATOM     23  C   UNL     1      46.463   3.980   7.555  0.00  0.00    +0.000 A 
BRANCH  18  25
ATOM     24  N   UNL     1      48.301   1.590   5.751  0.00  0.00    +0.000 NA
ATOM     25  C   UNL     1      47.572   2.040   6.533  0.00  0.00    +0.000 C 
ENDBRANCH  18  25
ENDBRANCH  16  21
ENDBRANCH   1  16
TORSDOF 5
ENDMDL
MODEL 2
REMARK VINA RESULT:    -8.516      1.614      3.598
REMARK INTER + INTRA:         -11.669
REMARK INTER:                 -11.292
REMARK INTRA:                  -0.378
REMARK UNBOUND:                -0.664
REMARK  Name = 
REMARK  5 active torsions:
REMARK  status: ('A' for Active; 'I' for Inactive)
REMARK    1  A    between atoms: C_2  and  C_3
REMARK    2  A    between atoms: C_6  and  N_7
REMARK    3  A    between atoms: N_7  and  C_8
REMARK    4  A    between atoms: C_8  and  C_9
REMARK    5  A    between atoms: C_11  and  C_12
REMARK                            x       y       z     vdW  Elec       q    Type
REMARK                         _______ _______ _______ _____ _____    ______ ____
ROOT
ATOM      1  C   UNL     1      44.032   4.733  11.553  0.00  0.00    +0.000 C 
ATOM      2  C   UNL     1      43.413   3.565  12.301  0.00  0.00    +0.000 C 
ATOM      3  C   UNL     1      42.774   4.904  12.413  0.00  0.00    +0.000 C 
ENDROOT
BRANCH   1   4
ATOM      4  C   UNL     1      45.221   5.512  12.140  0.00  0.00    +0.000 A 
ATOM      5  C   UNL     1      45.669   5.170  13.422  0.00  0.00    +0.000 A 
ATOM      6  C   UNL     1      46.954   5.518  13.855  0.00  0.00    +0.000 A 
ATOM      7  C   UNL     1      47.702   6.337  13.006  0.00  0.00    +0.000 A 
ATOM      8  C   UNL     1      47.153   6.736  11.797  0.00  0.00    +0.000 A 
ATOM      9  N   UNL     1      45.947   6.336  11.344  0.00  0.00    +0.000 NA
BRANCH   6  10
ATOM     10  C   UNL     1      47.524   4.903  15.071  0.00  0.00    +0.000 A 
ATOM     11  C   UNL     1      48.258   5.610  16.021  0.00  0.00    +0.000 A 
ATOM     12  C   UNL     1      48.878   4.914  17.060  0.00  0.00    +0.000 A 
ATOM     13  C   UNL     1      48.745   3.534  17.134  0.00  0.00    +0.000 A 
ATOM     14  C   UNL     1      47.977   2.905  16.174  0.00  0.00    +0.000 A 
ATOM     15  N   UNL     1      47.367   3.554  15.159  0.00  0.00    +0.000 NA
ENDBRANCH   6  10
ENDBRANCH   1   4
BRANCH   1  16
ATOM     16  N   UNL     1      43.920   4.769  10.081  0.00  0.00    +0.000 N 
ATOM     17  H   UNL     1      43.010   4.967   9.679  0.00  0.00    +0.000 HD
BRANCH  16  21
ATOM     18  C   UNL     1      46.624   2.723   7.548  0.00  0.00    +0.000 A 
ATOM     19  C   UNL     1      45.777   1.992   8.383  0.00  0.00    +0.000 A 
ATOM     20  C   UNL     1      44.885   2.659   9.231  0.00  0.00    +0.000 A 
ATOM     21  C   UNL     1      44.777   4.055   9.221  0.00  0.00    +0.000 A 
ATOM     22  C   UNL     1      45.656   4.773   8.398  0.00  0.00    +0.000 A 
ATOM     23  C   UNL     1      46.572   4.115   7.569  0.00  0.00    +0.000 A 
BRANCH  18  25
ATOM     24  N   UNL     1      48.320   1.500   6.006  0.00  0.00    +0.000 NA
ATOM     25  C   UNL     1      47.559   2.042   6.693  0.00  0.00    +0.000 C 
ENDBRANCH  18  25
ENDBRANCH  16  21
ENDBRANCH   1  16
TORSDOF 5
ENDMDL
MODEL 3
REMARK VINA RESULT:    -8.003      1.492      2.142
REMARK INTER + INTRA:         -11.005
REMARK INTER:                 -10.191
REMARK INTRA:                  -0.814
REMARK UNBOUND:                -0.664
REMARK  Name = 
REMARK  5 active torsions:
REMARK  status: ('A' for Active; 'I' for Inactive)
REMARK    1  A    between atoms: C_2  and  C_3
REMARK    2  A    between atoms: C_6  and  N_7
REMARK    3  A    between atoms: N_7  and  C_8
REMARK    4  A    between atoms: C_8  and  C_9
REMARK    5  A    between atoms: C_11  and  C_12
REMARK                            x       y       z     vdW  Elec       q    Type
REMARK                         _______ _______ _______ _____ _____    ______ ____
ROOT
ATOM      1  C   UNL     1      44.353   4.350  11.637  0.00  0.00    +0.000 C 
ATOM      2  C   UNL     1      44.993   3.261  12.482  0.00  0.00    +0.000 C 
ATOM      3  C   UNL     1      43.615   3.711  12.821  0.00  0.00    +0.000 C 
ENDROOT
BRANCH   1   4
ATOM      4  C   UNL     1      44.650   5.836  11.899  0.00  0.00    +0.000 A 
ATOM      5  C   UNL     1      45.900   6.179  12.427  0.00  0.00    +0.000 A 
ATOM      6  C   UNL     1      46.400   7.482  12.311  0.00  0.00    +0.000 A 
ATOM      7  C   UNL     1      45.536   8.440  11.776  0.00  0.00    +0.000 A 
ATOM      8  C   UNL     1      44.266   8.056  11.378  0.00  0.00    +0.000 A 
ATOM      9  N   UNL     1      43.812   6.787  11.415  0.00  0.00    +0.000 NA
BRANCH   6  10
ATOM     10  C   UNL     1      47.823   7.762  12.592  0.00  0.00    +0.000 A 
ATOM     11  C   UNL     1      48.784   7.941  11.599  0.00  0.00    +0.000 A 
ATOM     12  C   UNL     1      50.127   8.057  11.963  0.00  0.00    +0.000 A 
ATOM     13  C   UNL     1      50.479   8.003  13.304  0.00  0.00    +0.000 A 
ATOM     14  C   UNL     1      49.469   7.855  14.234  0.00  0.00    +0.000 A 
ATOM     15  N   UNL     1      48.163   7.740  13.909  0.00  0.00    +0.000 NA
ENDBRANCH   6  10
ENDBRANCH   1   4
BRANCH   1  16
ATOM     16  N   UNL     1      43.939   4.023  10.258  0.00  0.00    +0.000 N 
ATOM     17  H   UNL     1      42.966   3.788  10.097  0.00  0.00    +0.000 HD
BRANCH  16  21
ATOM     18  C   UNL     1      46.696   2.553   7.401  0.00  0.00    +0.000 A 
ATOM     19  C   UNL     1      46.021   1.656   8.231  0.00  0.00    +0.000 A 
ATOM     20  C   UNL     1      45.114   2.132   9.185  0.00  0.00    +0.000 A 
ATOM     21  C   UNL     1      44.818   3.496   9.290  0.00  0.00    +0.000 A 
ATOM     22  C   UNL     1      45.526   4.384   8.470  0.00  0.00    +0.000 A 
ATOM     23  C   UNL     1      46.458   3.920   7.534  0.00  0.00    +0.000 A 
BRANCH  18  25
ATOM     24  N   UNL     1      48.406   1.682   5.651  0.00  0.00    +0.000 NA
ATOM     25  C   UNL     1      47.646   2.071   6.436  0.00  0.00    +0.000 C 
ENDBRANCH  18  25
ENDBRANCH  16  21
ENDBRANCH   1  16
TORSDOF 5
ENDMDL
MODEL 4
REMARK VINA RESULT:    -7.289      2.124      7.052
REMARK INTER + INTRA:         -10.084
REMARK INTER:                  -9.899
REMARK INTRA:                  -0.184
REMARK UNBOUND:                -0.664
REMARK  Name = 
REMARK  5 active torsions:
REMARK  status: ('A' for Active; 'I' for Inactive)
REMARK    1  A    between atoms: C_2  and  C_3
REMARK    2  A    between atoms: C_6  and  N_7
REMARK    3  A    between atoms: N_7  and  C_8
REMARK    4  A    between atoms: C_8  and  C_9
REMARK    5  A    between atoms: C_11  and  C_12
REMARK                            x       y       z     vdW  Elec       q    Type
REMARK                         _______ _______ _______ _____ _____    ______ ____
ROOT
ATOM      1  C   UNL     1      45.485   6.235  11.681  0.00  0.00    +0.000 C 
ATOM      2  C   UNL     1      45.004   7.649  11.401  0.00  0.00    +0.000 C 
ATOM      3  C   UNL     1      44.508   6.954  12.620  0.00  0.00    +0.000 C 
ENDROOT
BRANCH   1   4
ATOM      4  C   UNL     1      44.822   5.022  11.006  0.00  0.00    +0.000 A 
ATOM      5  C   UNL     1      45.304   4.614   9.757  0.00  0.00    +0.000 A 
ATOM      6  C   UNL     1      45.060   3.322   9.275  0.00  0.00    +0.000 A 
ATOM      7  C   UNL     1      44.200   2.522  10.033  0.00  0.00    +0.000 A 
ATOM      8  C   UNL     1      43.664   3.031  11.205  0.00  0.00    +0.000 A 
ATOM      9  N   UNL     1      43.962   4.245  11.710  0.00  0.00    +0.000 NA
BRANCH   6  10
ATOM     10  C   UNL     1      45.813   2.803   8.116  0.00  0.00    +0.000 A 
ATOM     11  C   UNL     1      46.362   1.522   8.065  0.00  0.00    +0.000 A 
ATOM     12  C   UNL     1      47.180   1.174   6.988  0.00  0.00    +0.000 A 
ATOM     13  C   UNL     1      47.424   2.103   5.986  0.00  0.00    +0.000 A 
ATOM     14  C   UNL     1      46.821   3.341   6.089  0.00  0.00    +0.000 A 
ATOM     15  N   UNL     1      46.026   3.703   7.119  0.00  0.00    +0.000 NA
ENDBRANCH   6  10
ENDBRANCH   1   4
BRANCH   1  16
ATOM     16  N   UNL     1      46.887   6.036  12.101  0.00  0.00    +0.000 N 
ATOM     17  H   UNL     1      47.568   5.807  11.385  0.00  0.00    +0.000 HD
BRANCH  16  21
ATOM     18  C   UNL     1      47.950   4.915  16.041  0.00  0.00    +0.000 A 
ATOM     19  C   UNL     1      47.160   4.059  15.272  0.00  0.00    +0.000 A 
ATOM     20  C   UNL     1      46.795   4.424  13.971  0.00  0.00    +0.000 A 
ATOM     21  C   UNL     1      47.256   5.612  13.392  0.00  0.00    +0.000 A 
ATOM     22  C   UNL     1      48.024   6.472  14.189  0.00  0.00    +0.000 A 
ATOM     23  C   UNL     1      48.368   6.130  15.502  0.00  0.00    +0.000 A 
BRANCH  18  25
ATOM     24  N   UNL     1      48.586   4.261  18.474  0.00  0.00    +0.000 NA
ATOM     25  C   UNL     1      48.307   4.555  17.387  0.00  0.00    +0.000 C 
ENDBRANCH  18  25
ENDBRANCH  16  21
ENDBRANCH   1  16
TORSDOF 5
ENDMDL
MODEL 5
REMARK VINA RESULT:    -7.184      2.096      7.087
REMARK INTER + INTRA:          -9.948
REMARK INTER:                  -9.801
REMARK INTRA:                  -0.147
REMARK UNBOUND:                -0.664
REMARK  Name = 
REMARK  5 active torsions:
REMARK  status: ('A' for Active; 'I' for Inactive)
REMARK    1  A    between atoms: C_2  and  C_3
REMARK    2  A    between atoms: C_6  and  N_7
REMARK    3  A    between atoms: N_7  and  C_8
REMARK    4  A    between atoms: C_8  and  C_9
REMARK    5  A    between atoms: C_11  and  C_12
REMARK                            x       y       z     vdW  Elec       q    Type
REMARK                         _______ _______ _______ _____ _____    ______ ____
ROOT
ATOM      1  C   UNL     1      46.182   7.198  11.970  0.00  0.00    +0.000 C 
ATOM      2  C   UNL     1      46.188   8.705  11.776  0.00  0.00    +0.000 C 
ATOM      3  C   UNL     1      45.466   8.139  12.947  0.00  0.00    +0.000 C 
ENDROOT
BRANCH   1   4
ATOM      4  C   UNL     1      45.181   6.305  11.218  0.00  0.00    +0.000 A 
ATOM      5  C   UNL     1      45.637   5.592  10.102  0.00  0.00    +0.000 A 
ATOM      6  C   UNL     1      44.940   4.476   9.624  0.00  0.00    +0.000 A 
ATOM      7  C   UNL     1      43.708   4.201  10.223  0.00  0.00    +0.000 A 
ATOM      8  C   UNL     1      43.260   5.018  11.249  0.00  0.00    +0.000 A 
ATOM      9  N   UNL     1      43.966   6.045  11.763  0.00  0.00    +0.000 NA
BRANCH   6  10
ATOM     10  C   UNL     1      45.574   3.560   8.654  0.00  0.00    +0.000 A 
ATOM     11  C   UNL     1      45.603   2.174   8.808  0.00  0.00    +0.000 A 
ATOM     12  C   UNL     1      46.351   1.406   7.914  0.00  0.00    +0.000 A 
ATOM     13  C   UNL     1      47.042   2.031   6.886  0.00  0.00    +0.000 A 
ATOM     14  C   UNL     1      46.941   3.404   6.778  0.00  0.00    +0.000 A 
ATOM     15  N   UNL     1      46.226   4.171   7.629  0.00  0.00    +0.000 NA
ENDBRANCH   6  10
ENDBRANCH   1   4
BRANCH   1  16
ATOM     16  N   UNL     1      47.434   6.533  12.382  0.00  0.00    +0.000 N 
ATOM     17  H   UNL     1      48.018   6.129  11.658  0.00  0.00    +0.000 HD
BRANCH  16  21
ATOM     18  C   UNL     1      47.967   4.939  16.267  0.00  0.00    +0.000 A 
ATOM     19  C   UNL     1      47.119   4.290  15.368  0.00  0.00    +0.000 A 
ATOM     20  C   UNL     1      46.928   4.814  14.084  0.00  0.00    +0.000 A 
ATOM     21  C   UNL     1      47.621   5.952  13.652  0.00  0.00    +0.000 A 
ATOM     22  C   UNL     1      48.445   6.606  14.577  0.00  0.00    +0.000 A 
ATOM     23  C   UNL     1      48.618   6.107  15.874  0.00  0.00    +0.000 A 
BRANCH  18  25
ATOM     24  N   UNL     1      48.299   4.004  18.668  0.00  0.00    +0.000 NA
ATOM     25  C   UNL     1      48.147   4.418  17.596  0.00  0.00    +0.000 C 
ENDBRANCH  18  25
ENDBRANCH  16  21
ENDBRANCH   1  16
TORSDOF 5
ENDMDL
MODEL 6
REMARK VINA RESULT:    -6.486      2.125      7.118
REMARK INTER + INTRA:          -9.046
REMARK INTER:                  -8.502
REMARK INTRA:                  -0.544
REMARK UNBOUND:                -0.664
REMARK  Name = 
REMARK  5 active torsions:
REMARK  status: ('A' for Active; 'I' for Inactive)
REMARK    1  A    between atoms: C_2  and  C_3
REMARK    2  A    between atoms: C_6  and  N_7
REMARK    3  A    between atoms: N_7  and  C_8
REMARK    4  A    between atoms: C_8  and  C_9
REMARK    5  A    between atoms: C_11  and  C_12
REMARK                            x       y       z     vdW  Elec       q    Type
REMARK                         _______ _______ _______ _____ _____    ______ ____
ROOT
ATOM      1  C   UNL     1      48.745   7.902  12.494  0.00  0.00    +0.000 C 
ATOM      2  C   UNL     1      49.919   7.506  11.614  0.00  0.00    +0.000 C 
ATOM      3  C   UNL     1      49.564   8.947  11.726  0.00  0.00    +0.000 C 
ENDROOT
BRANCH   1   4
ATOM      4  C   UNL     1      47.300   7.828  11.971  0.00  0.00    +0.000 A 
ATOM      5  C   UNL     1      46.966   6.791  11.092  0.00  0.00    +0.000 A 
ATOM      6  C   UNL     1      45.632   6.408  10.901  0.00  0.00    +0.000 A 
ATOM      7  C   UNL     1      44.658   7.199  11.516  0.00  0.00    +0.000 A 
ATOM      8  C   UNL     1      45.054   8.284  12.282  0.00  0.00    +0.000 A 
ATOM      9  N   UNL     1      46.340   8.606  12.531  0.00  0.00    +0.000 NA
BRANCH   6  10
ATOM     10  C   UNL     1      45.311   5.138  10.221  0.00  0.00    +0.000 A 
ATOM     11  C   UNL     1      44.725   4.047  10.861  0.00  0.00    +0.000 A 
ATOM     12  C   UNL     1      44.594   2.841  10.171  0.00  0.00    +0.000 A 
ATOM     13  C   UNL     1      45.039   2.752   8.859  0.00  0.00    +0.000 A 
ATOM     14  C   UNL     1      45.580   3.882   8.280  0.00  0.00    +0.000 A 
ATOM     15  N   UNL     1      45.719   5.061   8.926  0.00  0.00    +0.000 NA
ENDBRANCH   6  10
ENDBRANCH   1   4
BRANCH   1  16
ATOM     16  N   UNL     1      48.892   7.793  13.960  0.00  0.00    +0.000 N 
ATOM     17  H   UNL     1      49.632   8.326  14.403  0.00  0.00    +0.000 HD
BRANCH  16  21
ATOM     18  C   UNL     1      47.629   4.501  16.302  0.00  0.00    +0.000 A 
ATOM     19  C   UNL     1      47.190   4.615  14.981  0.00  0.00    +0.000 A 
ATOM     20  C   UNL     1      47.594   5.704  14.201  0.00  0.00    +0.000 A 
ATOM     21  C   UNL     1      48.486   6.663  14.696  0.00  0.00    +0.000 A 
ATOM     22  C   UNL     1      48.893   6.548  16.032  0.00  0.00    +0.000 A 
ATOM     23  C   UNL     1      48.470   5.479  16.830  0.00  0.00    +0.000 A 
BRANCH  18  25
ATOM     24  N   UNL     1      46.851   2.499  17.764  0.00  0.00    +0.000 NA
ATOM     25  C   UNL     1      47.197   3.396  17.115  0.00  0.00    +0.000 C 
ENDBRANCH  18  25
ENDBRANCH  16  21
ENDBRANCH   1  16
TORSDOF 5
ENDMDL
MODEL 7
REMARK VINA RESULT:    -6.261      2.483      7.056
REMARK INTER + INTRA:          -8.755
REMARK INTER:                  -8.498
REMARK INTRA:                  -0.256
REMARK UNBOUND:                -0.664
REMARK  Name = 
REMARK  5 active torsions:
REMARK  status: ('A' for Active; 'I' for Inactive)
REMARK    1  A    between atoms: C_2  and  C_3
REMARK    2  A    between atoms: C_6  and  N_7
REMARK    3  A    between atoms: N_7  and  C_8
REMARK    4  A    between atoms: C_8  and  C_9
REMARK    5  A    between atoms: C_11  and  C_12
REMARK                            x       y       z     vdW  Elec       q    Type
REMARK                         _______ _______ _______ _____ _____    ______ ____
ROOT
ATOM      1  C   UNL     1      46.541   7.499  12.320  0.00  0.00    +0.000 C 
ATOM      2  C   UNL     1      46.592   8.979  11.981  0.00  0.00    +0.000 C 
ATOM      3  C   UNL     1      45.967   8.561  13.265  0.00  0.00    +0.000 C 
ENDROOT
BRANCH   1   4
ATOM      4  C   UNL     1      45.433   6.593  11.756  0.00  0.00    +0.000 A 
ATOM      5  C   UNL     1      45.692   5.885  10.576  0.00  0.00    +0.000 A 
ATOM      6  C   UNL     1      44.935   4.759  10.229  0.00  0.00    +0.000 A 
ATOM      7  C   UNL     1      43.832   4.471  11.036  0.00  0.00    +0.000 A 
ATOM      8  C   UNL     1      43.564   5.283  12.127  0.00  0.00    +0.000 A 
ATOM      9  N   UNL     1      44.338   6.320  12.508  0.00  0.00    +0.000 NA
BRANCH   6  10
ATOM     10  C   UNL     1      45.398   3.850   9.161  0.00  0.00    +0.000 A 
ATOM     11  C   UNL     1      45.365   2.460   9.264  0.00  0.00    +0.000 A 
ATOM     12  C   UNL     1      45.957   1.688   8.263  0.00  0.00    +0.000 A 
ATOM     13  C   UNL     1      46.559   2.316   7.182  0.00  0.00    +0.000 A 
ATOM     14  C   UNL     1      46.526   3.695   7.132  0.00  0.00    +0.000 A 
ATOM     15  N   UNL     1      45.960   4.465   8.086  0.00  0.00    +0.000 NA
ENDBRANCH   6  10
ENDBRANCH   1   4
BRANCH   1  16
ATOM     16  N   UNL     1      47.800   6.811  12.673  0.00  0.00    +0.000 N 
ATOM     17  H   UNL     1      47.750   6.038  13.328  0.00  0.00    +0.000 HD
BRANCH  16  21
ATOM     18  C   UNL     1      51.646   8.578  12.646  0.00  0.00    +0.000 A 
ATOM     19  C   UNL     1      51.071   8.163  11.443  0.00  0.00    +0.000 A 
ATOM     20  C   UNL     1      49.804   7.569  11.442  0.00  0.00    +0.000 A 
ATOM     21  C   UNL     1      49.063   7.433  12.622  0.00  0.00    +0.000 A 
ATOM     22  C   UNL     1      49.667   7.828  13.823  0.00  0.00    +0.000 A 
ATOM     23  C   UNL     1      50.947   8.394  13.838  0.00  0.00    +0.000 A 
BRANCH  18  25
ATOM     24  N   UNL     1      54.020   9.632  12.666  0.00  0.00    +0.000 NA
ATOM     25  C   UNL     1      52.958   9.166  12.655  0.00  0.00    +0.000 C 
ENDBRANCH  18  25
ENDBRANCH  16  21
ENDBRANCH   1  16
TORSDOF 5
ENDMDL
MODEL 8
REMARK VINA RESULT:    -6.049      2.897      5.965
REMARK INTER + INTRA:          -8.481
REMARK INTER:                  -7.731
REMARK INTRA:                  -0.749
REMARK UNBOUND:                -0.664
REMARK  Name = 
REMARK  5 active torsions:
REMARK  status: ('A' for Active; 'I' for Inactive)
REMARK    1  A    between atoms: C_2  and  C_3
REMARK    2  A    between atoms: C_6  and  N_7
REMARK    3  A    between atoms: N_7  and  C_8
REMARK    4  A    between atoms: C_8  and  C_9
REMARK    5  A    between atoms: C_11  and  C_12
REMARK                            x       y       z     vdW  Elec       q    Type
REMARK                         _______ _______ _______ _____ _____    ______ ____
ROOT
ATOM      1  C   UNL     1      47.480   8.191  12.858  0.00  0.00    +0.000 C 
ATOM      2  C   UNL     1      46.179   8.923  13.135  0.00  0.00    +0.000 C 
ATOM      3  C   UNL     1      47.304   9.675  12.516  0.00  0.00    +0.000 C 
ENDROOT
BRANCH   1   4
ATOM      4  C   UNL     1      48.531   7.992  13.964  0.00  0.00    +0.000 A 
ATOM      5  C   UNL     1      48.206   7.165  15.046  0.00  0.00    +0.000 A 
ATOM      6  C   UNL     1      49.204   6.609  15.855  0.00  0.00    +0.000 A 
ATOM      7  C   UNL     1      50.514   7.033  15.617  0.00  0.00    +0.000 A 
ATOM      8  C   UNL     1      50.753   7.945  14.601  0.00  0.00    +0.000 A 
ATOM      9  N   UNL     1      49.804   8.420  13.770  0.00  0.00    +0.000 NA
BRANCH   6  10
ATOM     10  C   UNL     1      48.881   5.512  16.790  0.00  0.00    +0.000 A 
ATOM     11  C   UNL     1      49.203   5.536  18.146  0.00  0.00    +0.000 A 
ATOM     12  C   UNL     1      48.987   4.393  18.918  0.00  0.00    +0.000 A 
ATOM     13  C   UNL     1      48.448   3.259  18.325  0.00  0.00    +0.000 A 
ATOM     14  C   UNL     1      48.126   3.320  16.984  0.00  0.00    +0.000 A 
ATOM     15  N   UNL     1      48.324   4.412  16.215  0.00  0.00    +0.000 NA
ENDBRANCH   6  10
ENDBRANCH   1   4
BRANCH   1  16
ATOM     16  N   UNL     1      47.511   7.190  11.772  0.00  0.00    +0.000 N 
ATOM     17  H   UNL     1      47.915   7.466  10.884  0.00  0.00    +0.000 HD
BRANCH  16  21
ATOM     18  C   UNL     1      44.686   4.042  11.622  0.00  0.00    +0.000 A 
ATOM     19  C   UNL     1      44.822   4.896  10.526  0.00  0.00    +0.000 A 
ATOM     20  C   UNL     1      45.747   5.946  10.569  0.00  0.00    +0.000 A 
ATOM     21  C   UNL     1      46.591   6.128  11.671  0.00  0.00    +0.000 A 
ATOM     22  C   UNL     1      46.419   5.279  12.773  0.00  0.00    +0.000 A 
ATOM     23  C   UNL     1      45.476   4.246  12.751  0.00  0.00    +0.000 A 
BRANCH  18  25
ATOM     24  N   UNL     1      42.945   2.114  11.576  0.00  0.00    +0.000 NA
ATOM     25  C   UNL     1      43.720   2.977  11.592  0.00  0.00    +0.000 C 
ENDBRANCH  18  25
ENDBRANCH  16  21
ENDBRANCH   1  16
TORSDOF 5
ENDMDL
MODEL 9
REMARK VINA RESULT:    -5.761      2.979      7.703
REMARK INTER + INTRA:          -8.109
REMARK INTER:                  -7.489
REMARK INTRA:                  -0.620
REMARK UNBOUND:                -0.664
REMARK  Name = 
REMARK  5 active torsions:
REMARK  status: ('A' for Active; 'I' for Inactive)
REMARK    1  A    between atoms: C_2  and  C_3
REMARK    2  A    between atoms: C_6  and  N_7
REMARK    3  A    between atoms: N_7  and  C_8
REMARK    4  A    between atoms: C_8  and  C_9
REMARK    5  A    between atoms: C_11  and  C_12
REMARK                            x       y       z     vdW  Elec       q    Type
REMARK                         _______ _______ _______ _____ _____    ______ ____
ROOT
ATOM      1  C   UNL     1      48.602   7.928  12.816  0.00  0.00    +0.000 C 
ATOM      2  C   UNL     1      49.784   7.276  12.118  0.00  0.00    +0.000 C 
ATOM      3  C   UNL     1      49.519   8.720  11.875  0.00  0.00    +0.000 C 
ENDROOT
BRANCH   1   4
ATOM      4  C   UNL     1      47.179   7.811  12.244  0.00  0.00    +0.000 A 
ATOM      5  C   UNL     1      46.911   6.776  11.341  0.00  0.00    +0.000 A 
ATOM      6  C   UNL     1      45.599   6.350  11.100  0.00  0.00    +0.000 A 
ATOM      7  C   UNL     1      44.578   7.097  11.692  0.00  0.00    +0.000 A 
ATOM      8  C   UNL     1      44.910   8.185  12.485  0.00  0.00    +0.000 A 
ATOM      9  N   UNL     1      46.174   8.547  12.781  0.00  0.00    +0.000 NA
BRANCH   6  10
ATOM     10  C   UNL     1      45.345   5.078  10.393  0.00  0.00    +0.000 A 
ATOM     11  C   UNL     1      45.658   4.867   9.051  0.00  0.00    +0.000 A 
ATOM     12  C   UNL     1      45.249   3.683   8.434  0.00  0.00    +0.000 A 
ATOM     13  C   UNL     1      44.548   2.737   9.168  0.00  0.00    +0.000 A 
ATOM     14  C   UNL     1      44.301   3.001  10.500  0.00  0.00    +0.000 A 
ATOM     15  N   UNL     1      44.686   4.137  11.121  0.00  0.00    +0.000 NA
ENDBRANCH   6  10
ENDBRANCH   1   4
BRANCH   1  16
ATOM     16  N   UNL     1      48.680   8.155  14.273  0.00  0.00    +0.000 N 
ATOM     17  H   UNL     1      48.655   9.113  14.606  0.00  0.00    +0.000 HD
BRANCH  16  21
ATOM     18  C   UNL     1      50.625   5.600  17.030  0.00  0.00    +0.000 A 
ATOM     19  C   UNL     1      49.265   5.425  16.772  0.00  0.00    +0.000 A 
ATOM     20  C   UNL     1      48.610   6.270  15.869  0.00  0.00    +0.000 A 
ATOM     21  C   UNL     1      49.304   7.261  15.165  0.00  0.00    +0.000 A 
ATOM     22  C   UNL     1      50.662   7.442  15.459  0.00  0.00    +0.000 A 
ATOM     23  C   UNL     1      51.319   6.621  16.384  0.00  0.00    +0.000 A 
BRANCH  18  25
ATOM     24  N   UNL     1      51.833   4.067  18.746  0.00  0.00    +0.000 NA
ATOM     25  C   UNL     1      51.297   4.750  17.976  0.00  0.00    +0.000 C 
ENDBRANCH  18  25
ENDBRANCH  16  21
ENDBRANCH   1  16
TORSDOF 5
ENDMDL
