MODEL 1
REMARK VINA RESULT:    -7.401      0.000      0.000
REMARK INTER + INTRA:          -9.857
REMARK INTER:                  -9.348
REMARK INTRA:                  -0.510
REMARK UNBOUND:                -0.510
REMARK  Name = 
REMARK  5 active torsions:
REMARK  status: ('A' for Active; 'I' for Inactive)
REMARK    1  A    between atoms: N_1  and  C_2
REMARK    2  A    between atoms: C_2  and  C_3
REMARK    3  A    between atoms: C_6  and  O_7
REMARK    4  A    between atoms: O_7  and  C_8
REMARK    5  A    between atoms: C_8  and  C_9
REMARK                            x       y       z     vdW  Elec       q    Type
REMARK                         _______ _______ _______ _____ _____    ______ ____
ROOT
ATOM      1  C   UNL     1      46.547   2.409   7.221  0.00  0.00    +0.000 A 
ATOM      2  C   UNL     1      46.110   3.736   7.324  0.00  0.00    +0.000 A 
ATOM      3  C   UNL     1      45.197   4.109   8.310  0.00  0.00    +0.000 A 
ATOM      4  C   UNL     1      44.680   3.154   9.188  0.00  0.00    +0.000 A 
ATOM      5  C   UNL     1      45.148   1.842   9.130  0.00  0.00    +0.000 A 
ATOM      6  C   UNL     1      46.067   1.479   8.148  0.00  0.00    +0.000 A 
ATOM      7  F   UNL     1      46.478   0.204   8.089  0.00  0.00    +0.000 F 
ENDROOT
BRANCH   1   8
ATOM      8  C   UNL     1      47.479   2.003   6.117  0.00  0.00    +0.000 C 
BRANCH   8   9
ATOM      9  N   UNL     1      48.823   2.536   6.324  0.00  0.00    +0.000 NA
ATOM     10  H   UNL     1      48.749   3.458   6.750  0.00  0.00    +0.000 HD
ATOM     11  H   UNL     1      49.258   2.681   5.413  0.00  0.00    +0.000 HD
ENDBRANCH   8   9
ENDBRANCH   1   8
BRANCH   4  12
ATOM     12  O   UNL     1      43.712   3.406  10.125  0.00  0.00    +0.000 OA
BRANCH  12  13
ATOM     13  C   UNL     1      43.653   4.766  10.563  0.00  0.00    +0.000 C 
BRANCH  13  14
ATOM     14  C   UNL     1      44.759   5.034  11.548  0.00  0.00    +0.000 A 
ATOM     15  C   UNL     1      44.941   4.211  12.663  0.00  0.00    +0.000 A 
ATOM     16  C   UNL     1      45.995   4.484  13.520  0.00  0.00    +0.000 A 
ATOM     17  N   UNL     1      46.865   5.503  13.343  0.00  0.00    +0.000 NA
ATOM     18  C   UNL     1      46.665   6.290  12.266  0.00  0.00    +0.000 A 
ATOM     19  C   UNL     1      45.641   6.099  11.353  0.00  0.00    +0.000 A 
ENDBRANCH  13  14
ENDBRANCH  12  13
ENDBRANCH   4  12
TORSDOF 5
ENDMDL
MODEL 2
REMARK VINA RESULT:    -7.217      1.522      2.205
REMARK INTER + INTRA:          -9.626
REMARK INTER:                  -9.015
REMARK INTRA:                  -0.611
REMARK UNBOUND:                -0.510
REMARK  Name = 
REMARK  5 active torsions:
REMARK  status: ('A' for Active; 'I' for Inactive)
REMARK    1  A    between atoms: N_1  and  C_2
REMARK    2  A    between atoms: C_2  and  C_3
REMARK    3  A    between atoms: C_6  and  O_7
REMARK    4  A    between atoms: O_7  and  C_8
REMARK    5  A    between atoms: C_8  and  C_9
REMARK                            x       y       z     vdW  Elec       q    Type
REMARK                         _______ _______ _______ _____ _____    ______ ____
ROOT
ATOM      1  C   UNL     1      46.190   1.980   7.908  0.00  0.00    +0.000 A 
ATOM      2  C   UNL     1      45.251   1.526   8.842  0.00  0.00    +0.000 A 
ATOM      3  C   UNL     1      44.429   2.426   9.519  0.00  0.00    +0.000 A 
ATOM      4  C   UNL     1      44.556   3.799   9.297  0.00  0.00    +0.000 A 
ATOM      5  C   UNL     1      45.449   4.259   8.330  0.00  0.00    +0.000 A 
ATOM      6  C   UNL     1      46.261   3.352   7.652  0.00  0.00    +0.000 A 
ATOM      7  F   UNL     1      47.136   3.820   6.751  0.00  0.00    +0.000 F 
ENDROOT
BRANCH   1   8
ATOM      8  C   UNL     1      47.115   1.010   7.232  0.00  0.00    +0.000 C 
BRANCH   8   9
ATOM      9  N   UNL     1      46.888  -0.358   7.691  0.00  0.00    +0.000 NA
ATOM     10  H   UNL     1      46.639  -0.337   8.678  0.00  0.00    +0.000 HD
ATOM     11  H   UNL     1      47.768  -0.869   7.632  0.00  0.00    +0.000 HD
ENDBRANCH   8   9
ENDBRANCH   1   8
BRANCH   4  12
ATOM     12  O   UNL     1      43.861   4.764   9.980  0.00  0.00    +0.000 OA
BRANCH  12  13
ATOM     13  C   UNL     1      43.730   4.514  11.382  0.00  0.00    +0.000 C 
BRANCH  13  14
ATOM     14  C   UNL     1      45.048   4.750  12.069  0.00  0.00    +0.000 A 
ATOM     15  C   UNL     1      45.715   5.972  11.943  0.00  0.00    +0.000 A 
ATOM     16  C   UNL     1      46.908   6.146  12.624  0.00  0.00    +0.000 A 
ATOM     17  N   UNL     1      47.472   5.203  13.410  0.00  0.00    +0.000 NA
ATOM     18  C   UNL     1      46.818   4.028  13.510  0.00  0.00    +0.000 A 
ATOM     19  C   UNL     1      45.620   3.757  12.869  0.00  0.00    +0.000 A 
ENDBRANCH  13  14
ENDBRANCH  12  13
ENDBRANCH   4  12
TORSDOF 5
ENDMDL
MODEL 3
REMARK VINA RESULT:    -7.036      2.041      5.672
REMARK INTER + INTRA:          -9.397
REMARK INTER:                  -8.828
REMARK INTRA:                  -0.569
REMARK UNBOUND:                -0.510
REMARK  Name = 
REMARK  5 active torsions:
REMARK  status: ('A' for Active; 'I' for Inactive)
REMARK    1  A    between atoms: N_1  and  C_2
REMARK    2  A    between atoms: C_2  and  C_3
REMARK    3  A    between atoms: C_6  and  O_7
REMARK    4  A    between atoms: O_7  and  C_8
REMARK    5  A    between atoms: C_8  and  C_9
REMARK                            x       y       z     vdW  Elec       q    Type
REMARK                         _______ _______ _______ _____ _____    ______ ____
ROOT
ATOM      1  C   UNL     1      46.423   5.879  12.451  0.00  0.00    +0.000 A 
ATOM      2  C   UNL     1      46.252   6.310  11.129  0.00  0.00    +0.000 A 
ATOM      3  C   UNL     1      45.548   5.529  10.213  0.00  0.00    +0.000 A 
ATOM      4  C   UNL     1      45.033   4.289  10.595  0.00  0.00    +0.000 A 
ATOM      5  C   UNL     1      45.151   3.874  11.921  0.00  0.00    +0.000 A 
ATOM      6  C   UNL     1      45.848   4.664  12.832  0.00  0.00    +0.000 A 
ATOM      7  F   UNL     1      45.978   4.230  14.094  0.00  0.00    +0.000 F 
ENDROOT
BRANCH   1   8
ATOM      8  C   UNL     1      47.237   6.695  13.413  0.00  0.00    +0.000 C 
BRANCH   8   9
ATOM      9  N   UNL     1      48.644   6.301  13.395  0.00  0.00    +0.000 NA
ATOM     10  H   UNL     1      48.996   6.296  14.350  0.00  0.00    +0.000 HD
ATOM     11  H   UNL     1      49.175   7.020  12.903  0.00  0.00    +0.000 HD
ENDBRANCH   8   9
ENDBRANCH   1   8
BRANCH   4  12
ATOM     12  O   UNL     1      44.412   3.411   9.744  0.00  0.00    +0.000 OA
BRANCH  12  13
ATOM     13  C   UNL     1      44.619   3.688   8.356  0.00  0.00    +0.000 C 
BRANCH  13  14
ATOM     14  C   UNL     1      45.765   2.864   7.835  0.00  0.00    +0.000 A 
ATOM     15  C   UNL     1      45.920   1.528   8.217  0.00  0.00    +0.000 A 
ATOM     16  C   UNL     1      46.974   0.806   7.681  0.00  0.00    +0.000 A 
ATOM     17  N   UNL     1      47.867   1.315   6.804  0.00  0.00    +0.000 NA
ATOM     18  C   UNL     1      47.705   2.608   6.456  0.00  0.00    +0.000 A 
ATOM     19  C   UNL     1      46.685   3.412   6.937  0.00  0.00    +0.000 A 
ENDBRANCH  13  14
ENDBRANCH  12  13
ENDBRANCH   4  12
TORSDOF 5
ENDMDL
MODEL 4
REMARK VINA RESULT:    -6.867      2.187      5.983
REMARK INTER + INTRA:          -9.183
REMARK INTER:                  -8.689
REMARK INTRA:                  -0.494
REMARK UNBOUND:                -0.510
REMARK  Name = 
REMARK  5 active torsions:
REMARK  status: ('A' for Active; 'I' for Inactive)
REMARK    1  A    between atoms: N_1  and  C_2
REMARK    2  A    between atoms: C_2  and  C_3
REMARK    3  A    between atoms: C_6  and  O_7
REMARK    4  A    between atoms: O_7  and  C_8
REMARK    5  A    between atoms: C_8  and  C_9
REMARK                            x       y       z     vdW  Elec       q    Type
REMARK                         _______ _______ _______ _____ _____    ______ ____
ROOT
ATOM      1  C   UNL     1      46.431   5.266  12.870  0.00  0.00    +0.000 A 
ATOM      2  C   UNL     1      46.031   3.932  13.018  0.00  0.00    +0.000 A 
ATOM      3  C   UNL     1      45.334   3.282  12.000  0.00  0.00    +0.000 A 
ATOM      4  C   UNL     1      44.996   3.967  10.830  0.00  0.00    +0.000 A 
ATOM      5  C   UNL     1      45.435   5.278  10.650  0.00  0.00    +0.000 A 
ATOM      6  C   UNL     1      46.138   5.917  11.668  0.00  0.00    +0.000 A 
ATOM      7  F   UNL     1      46.522   7.189  11.486  0.00  0.00    +0.000 F 
ENDROOT
BRANCH   1   8
ATOM      8  C   UNL     1      47.124   5.978  13.996  0.00  0.00    +0.000 C 
BRANCH   8   9
ATOM      9  N   UNL     1      47.460   5.063  15.084  0.00  0.00    +0.000 NA
ATOM     10  H   UNL     1      48.046   5.554  15.757  0.00  0.00    +0.000 HD
ATOM     11  H   UNL     1      48.034   4.310  14.707  0.00  0.00    +0.000 HD
ENDBRANCH   8   9
ENDBRANCH   1   8
BRANCH   4  12
ATOM     12  O   UNL     1      44.233   3.443   9.818  0.00  0.00    +0.000 OA
BRANCH  12  13
ATOM     13  C   UNL     1      44.617   3.872   8.509  0.00  0.00    +0.000 C 
BRANCH  13  14
ATOM     14  C   UNL     1      45.694   2.969   7.971  0.00  0.00    +0.000 A 
ATOM     15  C   UNL     1      46.709   3.471   7.151  0.00  0.00    +0.000 A 
ATOM     16  C   UNL     1      47.693   2.602   6.711  0.00  0.00    +0.000 A 
ATOM     17  N   UNL     1      47.736   1.289   7.028  0.00  0.00    +0.000 NA
ATOM     18  C   UNL     1      46.742   0.823   7.812  0.00  0.00    +0.000 A 
ATOM     19  C   UNL     1      45.714   1.611   8.301  0.00  0.00    +0.000 A 
ENDBRANCH  13  14
ENDBRANCH  12  13
ENDBRANCH   4  12
TORSDOF 5
ENDMDL
MODEL 5
REMARK VINA RESULT:    -5.502      1.896      1.961
REMARK INTER + INTRA:          -7.460
REMARK INTER:                  -7.010
REMARK INTRA:                  -0.450
REMARK UNBOUND:                -0.510
REMARK  Name = 
REMARK  5 active torsions:
REMARK  status: ('A' for Active; 'I' for Inactive)
REMARK    1  A    between atoms: N_1  and  C_2
REMARK    2  A    between atoms: C_2  and  C_3
REMARK    3  A    between atoms: C_6  and  O_7
REMARK    4  A    between atoms: O_7  and  C_8
REMARK    5  A    between atoms: C_8  and  C_9
REMARK                            x       y       z     vdW  Elec       q    Type
REMARK                         _______ _______ _______ _____ _____    ______ ____
ROOT
ATOM      1  C   UNL     1      47.471   2.350   6.981  0.00  0.00    +0.000 A 
ATOM      2  C   UNL     1      46.990   3.658   7.119  0.00  0.00    +0.000 A 
ATOM      3  C   UNL     1      45.847   3.919   7.874  0.00  0.00    +0.000 A 
ATOM      4  C   UNL     1      45.146   2.870   8.475  0.00  0.00    +0.000 A 
ATOM      5  C   UNL     1      45.645   1.571   8.388  0.00  0.00    +0.000 A 
ATOM      6  C   UNL     1      46.792   1.320   7.640  0.00  0.00    +0.000 A 
ATOM      7  F   UNL     1      47.235   0.059   7.542  0.00  0.00    +0.000 F 
ENDROOT
BRANCH   1   8
ATOM      8  C   UNL     1      48.664   2.070   6.114  0.00  0.00    +0.000 C 
BRANCH   8   9
ATOM      9  N   UNL     1      48.314   2.090   4.695  0.00  0.00    +0.000 NA
ATOM     10  H   UNL     1      47.710   1.295   4.494  0.00  0.00    +0.000 HD
ATOM     11  H   UNL     1      49.164   1.944   4.151  0.00  0.00    +0.000 HD
ENDBRANCH   8   9
ENDBRANCH   1   8
BRANCH   4  12
ATOM     12  O   UNL     1      43.964   3.016   9.154  0.00  0.00    +0.000 OA
BRANCH  12  13
ATOM     13  C   UNL     1      43.690   4.353   9.580  0.00  0.00    +0.000 C 
BRANCH  13  14
ATOM     14  C   UNL     1      43.455   4.378  11.067  0.00  0.00    +0.000 A 
ATOM     15  C   UNL     1      43.850   3.308  11.874  0.00  0.00    +0.000 A 
ATOM     16  C   UNL     1      43.639   3.398  13.240  0.00  0.00    +0.000 A 
ATOM     17  N   UNL     1      43.072   4.465  13.846  0.00  0.00    +0.000 NA
ATOM     18  C   UNL     1      42.690   5.482  13.048  0.00  0.00    +0.000 A 
ATOM     19  C   UNL     1      42.857   5.487  11.673  0.00  0.00    +0.000 A 
ENDBRANCH  13  14
ENDBRANCH  12  13
ENDBRANCH   4  12
TORSDOF 5
ENDMDL
MODEL 6
REMARK VINA RESULT:    -5.488      4.903      8.317
REMARK INTER + INTRA:          -7.441
REMARK INTER:                  -7.061
REMARK INTRA:                  -0.380
REMARK UNBOUND:                -0.510
REMARK  Name = 
REMARK  5 active torsions:
REMARK  status: ('A' for Active; 'I' for Inactive)
REMARK    1  A    between atoms: N_1  and  C_2
REMARK    2  A    between atoms: C_2  and  C_3
REMARK    3  A    between atoms: C_6  and  O_7
REMARK    4  A    between atoms: O_7  and  C_8
REMARK    5  A    between atoms: C_8  and  C_9
REMARK                            x       y       z     vdW  Elec       q    Type
REMARK                         _______ _______ _______ _____ _____    ______ ____
ROOT
ATOM      1  C   UNL     1      48.507   4.390  18.219  0.00  0.00    +0.000 A 
ATOM      2  C   UNL     1      48.249   3.071  17.827  0.00  0.00    +0.000 A 
ATOM      3  C   UNL     1      47.756   2.793  16.552  0.00  0.00    +0.000 A 
ATOM      4  C   UNL     1      47.483   3.833  15.661  0.00  0.00    +0.000 A 
ATOM      5  C   UNL     1      47.786   5.145  16.021  0.00  0.00    +0.000 A 
ATOM      6  C   UNL     1      48.285   5.414  17.293  0.00  0.00    +0.000 A 
ATOM      7  F   UNL     1      48.538   6.686  17.631  0.00  0.00    +0.000 F 
ENDROOT
BRANCH   1   8
ATOM      8  C   UNL     1      48.974   4.687  19.615  0.00  0.00    +0.000 C 
BRANCH   8   9
ATOM      9  N   UNL     1      48.429   3.733  20.578  0.00  0.00    +0.000 NA
ATOM     10  H   UNL     1      47.683   3.204  20.131  0.00  0.00    +0.000 HD
ATOM     11  H   UNL     1      47.991   4.254  21.337  0.00  0.00    +0.000 HD
ENDBRANCH   8   9
ENDBRANCH   1   8
BRANCH   4  12
ATOM     12  O   UNL     1      46.911   3.666  14.425  0.00  0.00    +0.000 OA
BRANCH  12  13
ATOM     13  C   UNL     1      46.368   4.862  13.861  0.00  0.00    +0.000 C 
BRANCH  13  14
ATOM     14  C   UNL     1      45.185   4.526  12.993  0.00  0.00    +0.000 A 
ATOM     15  C   UNL     1      45.141   3.330  12.271  0.00  0.00    +0.000 A 
ATOM     16  C   UNL     1      44.013   3.057  11.515  0.00  0.00    +0.000 A 
ATOM     17  N   UNL     1      42.944   3.880  11.431  0.00  0.00    +0.000 NA
ATOM     18  C   UNL     1      43.012   5.033  12.127  0.00  0.00    +0.000 A 
ATOM     19  C   UNL     1      44.094   5.396  12.911  0.00  0.00    +0.000 A 
ENDBRANCH  13  14
ENDBRANCH  12  13
ENDBRANCH   4  12
TORSDOF 5
ENDMDL
MODEL 7
REMARK VINA RESULT:    -5.272      4.616      6.040
REMARK INTER + INTRA:          -7.168
REMARK INTER:                  -6.727
REMARK INTRA:                  -0.442
REMARK UNBOUND:                -0.510
REMARK  Name = 
REMARK  5 active torsions:
REMARK  status: ('A' for Active; 'I' for Inactive)
REMARK    1  A    between atoms: N_1  and  C_2
REMARK    2  A    between atoms: C_2  and  C_3
REMARK    3  A    between atoms: C_6  and  O_7
REMARK    4  A    between atoms: O_7  and  C_8
REMARK    5  A    between atoms: C_8  and  C_9
REMARK                            x       y       z     vdW  Elec       q    Type
REMARK                         _______ _______ _______ _____ _____    ______ ____
ROOT
ATOM      1  C   UNL     1      44.365   5.203  11.842  0.00  0.00    +0.000 A 
ATOM      2  C   UNL     1      45.162   6.354  11.865  0.00  0.00    +0.000 A 
ATOM      3  C   UNL     1      46.389   6.356  12.528  0.00  0.00    +0.000 A 
ATOM      4  C   UNL     1      46.823   5.216  13.207  0.00  0.00    +0.000 A 
ATOM      5  C   UNL     1      46.064   4.048  13.146  0.00  0.00    +0.000 A 
ATOM      6  C   UNL     1      44.844   4.052  12.475  0.00  0.00    +0.000 A 
ATOM      7  F   UNL     1      44.114   2.927  12.457  0.00  0.00    +0.000 F 
ENDROOT
BRANCH   1   8
ATOM      8  C   UNL     1      43.017   5.229  11.182  0.00  0.00    +0.000 C 
BRANCH   8   9
ATOM      9  N   UNL     1      42.147   6.242  11.776  0.00  0.00    +0.000 NA
ATOM     10  H   UNL     1      41.621   6.699  11.034  0.00  0.00    +0.000 HD
ATOM     11  H   UNL     1      42.732   6.964  12.195  0.00  0.00    +0.000 HD
ENDBRANCH   8   9
ENDBRANCH   1   8
BRANCH   4  12
ATOM     12  O   UNL     1      47.965   5.151  13.964  0.00  0.00    +0.000 OA
BRANCH  12  13
ATOM     13  C   UNL     1      47.892   5.860  15.203  0.00  0.00    +0.000 C 
BRANCH  13  14
ATOM     14  C   UNL     1      48.132   4.913  16.349  0.00  0.00    +0.000 A 
ATOM     15  C   UNL     1      47.223   3.891  16.636  0.00  0.00    +0.000 A 
ATOM     16  C   UNL     1      47.509   3.028  17.681  0.00  0.00    +0.000 A 
ATOM     17  N   UNL     1      48.621   3.112  18.444  0.00  0.00    +0.000 NA
ATOM     18  C   UNL     1      49.480   4.111  18.156  0.00  0.00    +0.000 A 
ATOM     19  C   UNL     1      49.283   5.024  17.133  0.00  0.00    +0.000 A 
ENDBRANCH  13  14
ENDBRANCH  12  13
ENDBRANCH   4  12
TORSDOF 5
ENDMDL
MODEL 8
REMARK VINA RESULT:    -5.214      2.705      4.096
REMARK INTER + INTRA:          -7.095
REMARK INTER:                  -6.709
REMARK INTRA:                  -0.386
REMARK UNBOUND:                -0.510
REMARK  Name = 
REMARK  5 active torsions:
REMARK  status: ('A' for Active; 'I' for Inactive)
REMARK    1  A    between atoms: N_1  and  C_2
REMARK    2  A    between atoms: C_2  and  C_3
REMARK    3  A    between atoms: C_6  and  O_7
REMARK    4  A    between atoms: O_7  and  C_8
REMARK    5  A    between atoms: C_8  and  C_9
REMARK                            x       y       z     vdW  Elec       q    Type
REMARK                         _______ _______ _______ _____ _____    ______ ____
ROOT
ATOM      1  C   UNL     1      44.700   3.229   9.991  0.00  0.00    +0.000 A 
ATOM      2  C   UNL     1      44.324   3.021  11.324  0.00  0.00    +0.000 A 
ATOM      3  C   UNL     1      44.564   3.997  12.291  0.00  0.00    +0.000 A 
ATOM      4  C   UNL     1      45.215   5.183  11.947  0.00  0.00    +0.000 A 
ATOM      5  C   UNL     1      45.546   5.424  10.614  0.00  0.00    +0.000 A 
ATOM      6  C   UNL     1      45.295   4.447   9.653  0.00  0.00    +0.000 A 
ATOM      7  F   UNL     1      45.652   4.686   8.383  0.00  0.00    +0.000 F 
ENDROOT
BRANCH   1   8
ATOM      8  C   UNL     1      44.497   2.147   8.970  0.00  0.00    +0.000 C 
BRANCH   8   9
ATOM      9  N   UNL     1      45.710   1.357   8.776  0.00  0.00    +0.000 NA
ATOM     10  H   UNL     1      45.448   0.391   8.592  0.00  0.00    +0.000 HD
ATOM     11  H   UNL     1      46.233   1.346   9.651  0.00  0.00    +0.000 HD
ENDBRANCH   8   9
ENDBRANCH   1   8
BRANCH   4  12
ATOM     12  O   UNL     1      45.578   6.157  12.841  0.00  0.00    +0.000 OA
BRANCH  12  13
ATOM     13  C   UNL     1      46.983   6.422  12.886  0.00  0.00    +0.000 C 
BRANCH  13  14
ATOM     14  C   UNL     1      47.555   5.933  14.189  0.00  0.00    +0.000 A 
ATOM     15  C   UNL     1      48.522   6.675  14.872  0.00  0.00    +0.000 A 
ATOM     16  C   UNL     1      48.990   6.194  16.084  0.00  0.00    +0.000 A 
ATOM     17  N   UNL     1      48.565   5.044  16.652  0.00  0.00    +0.000 NA
ATOM     18  C   UNL     1      47.639   4.338  15.972  0.00  0.00    +0.000 A 
ATOM     19  C   UNL     1      47.110   4.735  14.754  0.00  0.00    +0.000 A 
ENDBRANCH  13  14
ENDBRANCH  12  13
ENDBRANCH   4  12
TORSDOF 5
ENDMDL
MODEL 9
REMARK VINA RESULT:    -5.175      5.417      6.950
REMARK INTER + INTRA:          -7.046
REMARK INTER:                  -6.595
REMARK INTRA:                  -0.451
REMARK UNBOUND:                -0.510
REMARK  Name = 
REMARK  5 active torsions:
REMARK  status: ('A' for Active; 'I' for Inactive)
REMARK    1  A    between atoms: N_1  and  C_2
REMARK    2  A    between atoms: C_2  and  C_3
REMARK    3  A    between atoms: C_6  and  O_7
REMARK    4  A    between atoms: O_7  and  C_8
REMARK    5  A    between atoms: C_8  and  C_9
REMARK                            x       y       z     vdW  Elec       q    Type
REMARK                         _______ _______ _______ _____ _____    ______ ____
ROOT
ATOM      1  C   UNL     1      45.778   7.003  12.635  0.00  0.00    +0.000 A 
ATOM      2  C   UNL     1      47.110   6.997  13.066  0.00  0.00    +0.000 A 
ATOM      3  C   UNL     1      47.624   5.910  13.771  0.00  0.00    +0.000 A 
ATOM      4  C   UNL     1      46.804   4.824  14.085  0.00  0.00    +0.000 A 
ATOM      5  C   UNL     1      45.492   4.794  13.615  0.00  0.00    +0.000 A 
ATOM      6  C   UNL     1      44.988   5.881  12.905  0.00  0.00    +0.000 A 
ATOM      7  F   UNL     1      43.713   5.846  12.491  0.00  0.00    +0.000 F 
ENDROOT
BRANCH   1   8
ATOM      8  C   UNL     1      45.214   8.205  11.934  0.00  0.00    +0.000 C 
BRANCH   8   9
ATOM      9  N   UNL     1      44.993   9.313  12.861  0.00  0.00    +0.000 NA
ATOM     10  H   UNL     1      44.957  10.182  12.332  0.00  0.00    +0.000 HD
ATOM     11  H   UNL     1      45.804   9.389  13.474  0.00  0.00    +0.000 HD
ENDBRANCH   8   9
ENDBRANCH   1   8
BRANCH   4  12
ATOM     12  O   UNL     1      47.192   3.755  14.852  0.00  0.00    +0.000 OA
BRANCH  12  13
ATOM     13  C   UNL     1      47.202   4.012  16.259  0.00  0.00    +0.000 C 
BRANCH  13  14
ATOM     14  C   UNL     1      48.576   3.755  16.816  0.00  0.00    +0.000 A 
ATOM     15  C   UNL     1      49.092   2.458  16.883  0.00  0.00    +0.000 A 
ATOM     16  C   UNL     1      50.376   2.283  17.373  0.00  0.00    +0.000 A 
ATOM     17  N   UNL     1      51.167   3.295  17.793  0.00  0.00    +0.000 NA
ATOM     18  C   UNL     1      50.646   4.537  17.729  0.00  0.00    +0.000 A 
ATOM     19  C   UNL     1      49.374   4.815  17.255  0.00  0.00    +0.000 A 
ENDBRANCH  13  14
ENDBRANCH  12  13
ENDBRANCH   4  12
TORSDOF 5
ENDMDL
