MODEL 1
REMARK VINA RESULT:    -8.940      0.000      0.000
REMARK INTER + INTRA:         -12.276
REMARK INTER:                 -11.554
REMARK INTRA:                  -0.722
REMARK UNBOUND:                -0.722
REMARK  Name = 
REMARK  6 active torsions:
REMARK  status: ('A' for Active; 'I' for Inactive)
REMARK    1  A    between atoms: C_1  and  C_2
REMARK    2  A    between atoms: C_4  and  O_5
REMARK    3  A    between atoms: O_5  and  C_6
REMARK    4  A    between atoms: C_6  and  C_7
REMARK    5  A    between atoms: C_11  and  C_12
REMARK    6  A    between atoms: C_22  and  C_23
REMARK                            x       y       z     vdW  Elec       q    Type
REMARK                         _______ _______ _______ _____ _____    ______ ____
ROOT
ATOM      1  C   UNL     1      43.717   4.351  10.678  0.00  0.00    +0.000 C 
ENDROOT
BRANCH   1   2
ATOM      2  C   UNL     1      44.889   4.708  11.565  0.00  0.00    +0.000 A 
ATOM      3  C   UNL     1      45.297   3.811  12.561  0.00  0.00    +0.000 A 
ATOM      4  C   UNL     1      46.354   4.133  13.406  0.00  0.00    +0.000 A 
ATOM      5  C   UNL     1      47.012   5.357  13.266  0.00  0.00    +0.000 A 
ATOM      6  C   UNL     1      46.634   6.286  12.280  0.00  0.00    +0.000 A 
ATOM      7  C   UNL     1      45.550   5.941  11.452  0.00  0.00    +0.000 A 
BRANCH   6   8
ATOM      8  C   UNL     1      47.363   7.562  12.096  0.00  0.00    +0.000 A 
ATOM      9  C   UNL     1      46.737   8.809  12.297  0.00  0.00    +0.000 A 
ATOM     10  C   UNL     1      47.417  10.015  12.087  0.00  0.00    +0.000 A 
ATOM     11  C   UNL     1      48.746   9.998  11.681  0.00  0.00    +0.000 A 
ATOM     12  C   UNL     1      49.379   8.781  11.485  0.00  0.00    +0.000 A 
ATOM     13  F   UNL     1      50.660   8.758  11.091  0.00  0.00    +0.000 F 
ATOM     14  C   UNL     1      48.705   7.578  11.680  0.00  0.00    +0.000 A 
ENDBRANCH   6   8
ENDBRANCH   1   2
BRANCH   1  15
ATOM     15  O   UNL     1      43.820   3.001  10.208  0.00  0.00    +0.000 OA
BRANCH  15  19
ATOM     16  C   UNL     1      46.763   0.214   7.732  0.00  0.00    +0.000 C 
ATOM     17  C   UNL     1      46.192   1.589   7.917  0.00  0.00    +0.000 A 
ATOM     18  N   UNL     1      45.288   1.686   8.929  0.00  0.00    +0.000 NA
ATOM     19  C   UNL     1      44.723   2.883   9.173  0.00  0.00    +0.000 A 
ATOM     20  C   UNL     1      45.005   4.019   8.440  0.00  0.00    +0.000 A 
ATOM     21  C   UNL     1      45.925   3.917   7.397  0.00  0.00    +0.000 A 
ATOM     22  C   UNL     1      46.533   2.683   7.116  0.00  0.00    +0.000 A 
BRANCH  22  23
ATOM     23  C   UNL     1      47.532   2.560   6.019  0.00  0.00    +0.000 C 
ATOM     24  N   UNL     1      48.854   2.590   6.365  0.00  0.00    +0.000 N 
ATOM     25  O   UNL     1      47.211   2.451   4.843  0.00  0.00    +0.000 OA
ATOM     26  H   UNL     1      49.189   2.869   7.276  0.00  0.00    +0.000 HD
ATOM     27  H   UNL     1      49.517   2.589   5.599  0.00  0.00    +0.000 HD
ENDBRANCH  22  23
ENDBRANCH  15  19
ENDBRANCH   1  15
TORSDOF 5
ENDMDL
MODEL 2
REMARK VINA RESULT:    -8.583      1.396      1.970
REMARK INTER + INTRA:         -11.814
REMARK INTER:                 -10.961
REMARK INTRA:                  -0.854
REMARK UNBOUND:                -0.722
REMARK  Name = 
REMARK  6 active torsions:
REMARK  status: ('A' for Active; 'I' for Inactive)
REMARK    1  A    between atoms: C_1  and  C_2
REMARK    2  A    between atoms: C_4  and  O_5
REMARK    3  A    between atoms: O_5  and  C_6
REMARK    4  A    between atoms: C_6  and  C_7
REMARK    5  A    between atoms: C_11  and  C_12
REMARK    6  A    between atoms: C_22  and  C_23
REMARK                            x       y       z     vdW  Elec       q    Type
REMARK                         _______ _______ _______ _____ _____    ______ ____
ROOT
ATOM      1  C   UNL     1      44.293   3.103  11.358  0.00  0.00    +0.000 C 
ENDROOT
BRANCH   1   2
ATOM      2  C   UNL     1      44.539   4.585  11.535  0.00  0.00    +0.000 A 
ATOM      3  C   UNL     1      43.490   5.488  11.322  0.00  0.00    +0.000 A 
ATOM      4  C   UNL     1      43.704   6.856  11.452  0.00  0.00    +0.000 A 
ATOM      5  C   UNL     1      44.971   7.336  11.791  0.00  0.00    +0.000 A 
ATOM      6  C   UNL     1      46.052   6.465  12.011  0.00  0.00    +0.000 A 
ATOM      7  C   UNL     1      45.810   5.087  11.856  0.00  0.00    +0.000 A 
BRANCH   6   8
ATOM      8  C   UNL     1      47.384   6.967  12.420  0.00  0.00    +0.000 A 
ATOM      9  C   UNL     1      48.165   7.775  11.570  0.00  0.00    +0.000 A 
ATOM     10  C   UNL     1      49.440   8.218  11.944  0.00  0.00    +0.000 A 
ATOM     11  C   UNL     1      49.955   7.872  13.188  0.00  0.00    +0.000 A 
ATOM     12  C   UNL     1      49.198   7.083  14.039  0.00  0.00    +0.000 A 
ATOM     13  F   UNL     1      49.691   6.743  15.238  0.00  0.00    +0.000 F 
ATOM     14  C   UNL     1      47.935   6.628  13.668  0.00  0.00    +0.000 A 
ENDBRANCH   6   8
ENDBRANCH   1   2
BRANCH   1  15
ATOM     15  O   UNL     1      43.717   2.827  10.075  0.00  0.00    +0.000 OA
BRANCH  15  19
ATOM     16  C   UNL     1      46.803   0.110   7.696  0.00  0.00    +0.000 C 
ATOM     17  C   UNL     1      46.216   1.479   7.883  0.00  0.00    +0.000 A 
ATOM     18  N   UNL     1      45.259   1.548   8.846  0.00  0.00    +0.000 NA
ATOM     19  C   UNL     1      44.675   2.736   9.088  0.00  0.00    +0.000 A 
ATOM     20  C   UNL     1      44.991   3.891   8.399  0.00  0.00    +0.000 A 
ATOM     21  C   UNL     1      45.967   3.817   7.405  0.00  0.00    +0.000 A 
ATOM     22  C   UNL     1      46.594   2.593   7.127  0.00  0.00    +0.000 A 
BRANCH  22  23
ATOM     23  C   UNL     1      47.652   2.500   6.083  0.00  0.00    +0.000 C 
ATOM     24  N   UNL     1      48.953   2.528   6.501  0.00  0.00    +0.000 N 
ATOM     25  O   UNL     1      47.395   2.417   4.890  0.00  0.00    +0.000 OA
ATOM     26  H   UNL     1      49.237   2.788   7.435  0.00  0.00    +0.000 HD
ATOM     27  H   UNL     1      49.656   2.548   5.772  0.00  0.00    +0.000 HD
ENDBRANCH  22  23
ENDBRANCH  15  19
ENDBRANCH   1  15
TORSDOF 5
ENDMDL
MODEL 3
REMARK VINA RESULT:    -8.505      1.983      2.370
REMARK INTER + INTRA:         -11.713
REMARK INTER:                 -10.914
REMARK INTRA:                  -0.799
REMARK UNBOUND:                -0.722
REMARK  Name = 
REMARK  6 active torsions:
REMARK  status: ('A' for Active; 'I' for Inactive)
REMARK    1  A    between atoms: C_1  and  C_2
REMARK    2  A    between atoms: C_4  and  O_5
REMARK    3  A    between atoms: O_5  and  C_6
REMARK    4  A    between atoms: C_6  and  C_7
REMARK    5  A    between atoms: C_11  and  C_12
REMARK    6  A    between atoms: C_22  and  C_23
REMARK                            x       y       z     vdW  Elec       q    Type
REMARK                         _______ _______ _______ _____ _____    ______ ____
ROOT
ATOM      1  C   UNL     1      44.536   3.035  11.743  0.00  0.00    +0.000 C 
ENDROOT
BRANCH   1   2
ATOM      2  C   UNL     1      45.345   4.191  12.287  0.00  0.00    +0.000 A 
ATOM      3  C   UNL     1      46.370   3.942  13.207  0.00  0.00    +0.000 A 
ATOM      4  C   UNL     1      47.106   4.995  13.740  0.00  0.00    +0.000 A 
ATOM      5  C   UNL     1      46.821   6.309  13.361  0.00  0.00    +0.000 A 
ATOM      6  C   UNL     1      45.799   6.603  12.441  0.00  0.00    +0.000 A 
ATOM      7  C   UNL     1      45.060   5.519  11.932  0.00  0.00    +0.000 A 
BRANCH   6   8
ATOM      8  C   UNL     1      45.529   7.990  11.998  0.00  0.00    +0.000 A 
ATOM      9  C   UNL     1      46.385   9.058  12.338  0.00  0.00    +0.000 A 
ATOM     10  C   UNL     1      46.107  10.374  11.950  0.00  0.00    +0.000 A 
ATOM     11  C   UNL     1      44.969  10.649  11.200  0.00  0.00    +0.000 A 
ATOM     12  C   UNL     1      44.120   9.611  10.852  0.00  0.00    +0.000 A 
ATOM     13  F   UNL     1      43.020   9.870  10.132  0.00  0.00    +0.000 F 
ATOM     14  C   UNL     1      44.383   8.301  11.245  0.00  0.00    +0.000 A 
ENDBRANCH   6   8
ENDBRANCH   1   2
BRANCH   1  15
ATOM     15  O   UNL     1      43.927   3.376  10.491  0.00  0.00    +0.000 OA
BRANCH  15  19
ATOM     16  C   UNL     1      46.444   0.344   7.838  0.00  0.00    +0.000 C 
ATOM     17  C   UNL     1      46.056   1.772   8.090  0.00  0.00    +0.000 A 
ATOM     18  N   UNL     1      45.192   1.939   9.127  0.00  0.00    +0.000 NA
ATOM     19  C   UNL     1      44.787   3.187   9.431  0.00  0.00    +0.000 A 
ATOM     20  C   UNL     1      45.197   4.308   8.735  0.00  0.00    +0.000 A 
ATOM     21  C   UNL     1      46.077   4.134   7.667  0.00  0.00    +0.000 A 
ATOM     22  C   UNL     1      46.517   2.846   7.323  0.00  0.00    +0.000 A 
BRANCH  22  23
ATOM     23  C   UNL     1      47.471   2.644   6.198  0.00  0.00    +0.000 C 
ATOM     24  N   UNL     1      48.787   2.453   6.516  0.00  0.00    +0.000 N 
ATOM     25  O   UNL     1      47.121   2.659   5.026  0.00  0.00    +0.000 OA
ATOM     26  H   UNL     1      49.173   2.621   7.433  0.00  0.00    +0.000 HD
ATOM     27  H   UNL     1      49.432   2.401   5.736  0.00  0.00    +0.000 HD
ENDBRANCH  22  23
ENDBRANCH  15  19
ENDBRANCH   1  15
TORSDOF 5
ENDMDL
MODEL 4
REMARK VINA RESULT:    -8.415      3.817      7.154
REMARK INTER + INTRA:         -11.597
REMARK INTER:                 -10.591
REMARK INTRA:                  -1.007
REMARK UNBOUND:                -0.722
REMARK  Name = 
REMARK  6 active torsions:
REMARK  status: ('A' for Active; 'I' for Inactive)
REMARK    1  A    between atoms: C_1  and  C_2
REMARK    2  A    between atoms: C_4  and  O_5
REMARK    3  A    between atoms: O_5  and  C_6
REMARK    4  A    between atoms: C_6  and  C_7
REMARK    5  A    between atoms: C_11  and  C_12
REMARK    6  A    between atoms: C_22  and  C_23
REMARK                            x       y       z     vdW  Elec       q    Type
REMARK                         _______ _______ _______ _____ _____    ______ ____
ROOT
ATOM      1  C   UNL     1      44.321   6.809  11.421  0.00  0.00    +0.000 C 
ENDROOT
BRANCH   1   2
ATOM      2  C   UNL     1      44.218   5.346  11.051  0.00  0.00    +0.000 A 
ATOM      3  C   UNL     1      43.374   4.507  11.789  0.00  0.00    +0.000 A 
ATOM      4  C   UNL     1      43.288   3.153  11.483  0.00  0.00    +0.000 A 
ATOM      5  C   UNL     1      44.048   2.623  10.438  0.00  0.00    +0.000 A 
ATOM      6  C   UNL     1      44.909   3.430   9.673  0.00  0.00    +0.000 A 
ATOM      7  C   UNL     1      44.989   4.792  10.017  0.00  0.00    +0.000 A 
BRANCH   6   8
ATOM      8  C   UNL     1      45.678   2.881   8.533  0.00  0.00    +0.000 A 
ATOM      9  C   UNL     1      46.097   3.694   7.460  0.00  0.00    +0.000 A 
ATOM     10  C   UNL     1      46.791   3.166   6.365  0.00  0.00    +0.000 A 
ATOM     11  C   UNL     1      47.093   1.810   6.326  0.00  0.00    +0.000 A 
ATOM     12  C   UNL     1      46.695   0.997   7.375  0.00  0.00    +0.000 A 
ATOM     13  F   UNL     1      46.981  -0.311   7.341  0.00  0.00    +0.000 F 
ATOM     14  C   UNL     1      45.993   1.513   8.461  0.00  0.00    +0.000 A 
ENDBRANCH   6   8
ENDBRANCH   1   2
BRANCH   1  15
ATOM     15  O   UNL     1      44.924   6.973  12.710  0.00  0.00    +0.000 OA
BRANCH  15  19
ATOM     16  C   UNL     1      48.296  10.134  11.614  0.00  0.00    +0.000 C 
ATOM     17  C   UNL     1      47.981   8.747  12.093  0.00  0.00    +0.000 A 
ATOM     18  N   UNL     1      46.651   8.483  12.198  0.00  0.00    +0.000 NA
ATOM     19  C   UNL     1      46.269   7.262  12.617  0.00  0.00    +0.000 A 
ATOM     20  C   UNL     1      47.161   6.264  12.959  0.00  0.00    +0.000 A 
ATOM     21  C   UNL     1      48.525   6.539  12.859  0.00  0.00    +0.000 A 
ATOM     22  C   UNL     1      48.956   7.802  12.425  0.00  0.00    +0.000 A 
BRANCH  22  23
ATOM     23  C   UNL     1      50.408   8.106  12.294  0.00  0.00    +0.000 C 
ATOM     24  N   UNL     1      51.075   7.550  11.238  0.00  0.00    +0.000 N 
ATOM     25  O   UNL     1      51.010   8.810  13.095  0.00  0.00    +0.000 OA
ATOM     26  H   UNL     1      50.695   6.814  10.660  0.00  0.00    +0.000 HD
ATOM     27  H   UNL     1      52.076   7.700  11.214  0.00  0.00    +0.000 HD
ENDBRANCH  22  23
ENDBRANCH  15  19
ENDBRANCH   1  15
TORSDOF 5
ENDMDL
MODEL 5
REMARK VINA RESULT:    -8.223      2.742      4.078
REMARK INTER + INTRA:         -11.349
REMARK INTER:                 -11.232
REMARK INTRA:                  -0.117
REMARK UNBOUND:                -0.722
REMARK  Name = 
REMARK  6 active torsions:
REMARK  status: ('A' for Active; 'I' for Inactive)
REMARK    1  A    between atoms: C_1  and  C_2
REMARK    2  A    between atoms: C_4  and  O_5
REMARK    3  A    between atoms: O_5  and  C_6
REMARK    4  A    between atoms: C_6  and  C_7
REMARK    5  A    between atoms: C_11  and  C_12
REMARK    6  A    between atoms: C_22  and  C_23
REMARK                            x       y       z     vdW  Elec       q    Type
REMARK                         _______ _______ _______ _____ _____    ______ ____
ROOT
ATOM      1  C   UNL     1      43.832   4.769  11.295  0.00  0.00    +0.000 C 
ENDROOT
BRANCH   1   2
ATOM      2  C   UNL     1      45.107   5.396  11.812  0.00  0.00    +0.000 A 
ATOM      3  C   UNL     1      45.767   6.356  11.035  0.00  0.00    +0.000 A 
ATOM      4  C   UNL     1      46.957   6.923  11.481  0.00  0.00    +0.000 A 
ATOM      5  C   UNL     1      47.501   6.533  12.707  0.00  0.00    +0.000 A 
ATOM      6  C   UNL     1      46.871   5.571  13.517  0.00  0.00    +0.000 A 
ATOM      7  C   UNL     1      45.679   5.002  13.032  0.00  0.00    +0.000 A 
BRANCH   6   8
ATOM      8  C   UNL     1      47.418   5.192  14.840  0.00  0.00    +0.000 A 
ATOM      9  C   UNL     1      48.371   5.990  15.505  0.00  0.00    +0.000 A 
ATOM     10  C   UNL     1      48.915   5.611  16.739  0.00  0.00    +0.000 A 
ATOM     11  C   UNL     1      48.505   4.427  17.341  0.00  0.00    +0.000 A 
ATOM     12  C   UNL     1      47.564   3.634  16.704  0.00  0.00    +0.000 A 
ATOM     13  F   UNL     1      47.168   2.490  17.278  0.00  0.00    +0.000 F 
ATOM     14  C   UNL     1      47.029   3.998  15.471  0.00  0.00    +0.000 A 
ENDBRANCH   6   8
ENDBRANCH   1   2
BRANCH   1  15
ATOM     15  O   UNL     1      43.767   4.840   9.865  0.00  0.00    +0.000 OA
BRANCH  15  19
ATOM     16  C   UNL     1      46.990   3.825   6.526  0.00  0.00    +0.000 C 
ATOM     17  C   UNL     1      46.141   3.311   7.651  0.00  0.00    +0.000 A 
ATOM     18  N   UNL     1      45.369   4.260   8.245  0.00  0.00    +0.000 NA
ATOM     19  C   UNL     1      44.570   3.894   9.265  0.00  0.00    +0.000 A 
ATOM     20  C   UNL     1      44.501   2.601   9.748  0.00  0.00    +0.000 A 
ATOM     21  C   UNL     1      45.299   1.630   9.143  0.00  0.00    +0.000 A 
ATOM     22  C   UNL     1      46.144   1.979   8.078  0.00  0.00    +0.000 A 
BRANCH  22  23
ATOM     23  C   UNL     1      46.989   0.952   7.409  0.00  0.00    +0.000 C 
ATOM     24  N   UNL     1      46.642  -0.359   7.585  0.00  0.00    +0.000 N 
ATOM     25  O   UNL     1      47.969   1.240   6.736  0.00  0.00    +0.000 OA
ATOM     26  H   UNL     1      45.976  -0.675   8.274  0.00  0.00    +0.000 HD
ATOM     27  H   UNL     1      47.276  -1.045   7.191  0.00  0.00    +0.000 HD
ENDBRANCH  22  23
ENDBRANCH  15  19
ENDBRANCH   1  15
TORSDOF 5
ENDMDL
MODEL 6
REMARK VINA RESULT:    -8.111      4.038      7.515
REMARK INTER + INTRA:         -11.203
REMARK INTER:                 -10.611
REMARK INTRA:                  -0.592
REMARK UNBOUND:                -0.722
REMARK  Name = 
REMARK  6 active torsions:
REMARK  status: ('A' for Active; 'I' for Inactive)
REMARK    1  A    between atoms: C_1  and  C_2
REMARK    2  A    between atoms: C_4  and  O_5
REMARK    3  A    between atoms: O_5  and  C_6
REMARK    4  A    between atoms: C_6  and  C_7
REMARK    5  A    between atoms: C_11  and  C_12
REMARK    6  A    between atoms: C_22  and  C_23
REMARK                            x       y       z     vdW  Elec       q    Type
REMARK                         _______ _______ _______ _____ _____    ______ ____
ROOT
ATOM      1  C   UNL     1      44.858   6.960  11.456  0.00  0.00    +0.000 C 
ENDROOT
BRANCH   1   2
ATOM      2  C   UNL     1      44.551   5.539  11.040  0.00  0.00    +0.000 A 
ATOM      3  C   UNL     1      43.551   4.825  11.712  0.00  0.00    +0.000 A 
ATOM      4  C   UNL     1      43.274   3.508  11.363  0.00  0.00    +0.000 A 
ATOM      5  C   UNL     1      43.996   2.889  10.340  0.00  0.00    +0.000 A 
ATOM      6  C   UNL     1      45.009   3.569   9.641  0.00  0.00    +0.000 A 
ATOM      7  C   UNL     1      45.279   4.894  10.028  0.00  0.00    +0.000 A 
BRANCH   6   8
ATOM      8  C   UNL     1      45.742   2.932   8.522  0.00  0.00    +0.000 A 
ATOM      9  C   UNL     1      46.203   3.677   7.418  0.00  0.00    +0.000 A 
ATOM     10  C   UNL     1      46.862   3.067   6.344  0.00  0.00    +0.000 A 
ATOM     11  C   UNL     1      47.087   1.696   6.359  0.00  0.00    +0.000 A 
ATOM     12  C   UNL     1      46.645   0.949   7.439  0.00  0.00    +0.000 A 
ATOM     13  F   UNL     1      46.856  -0.374   7.458  0.00  0.00    +0.000 F 
ATOM     14  C   UNL     1      45.978   1.547   8.505  0.00  0.00    +0.000 A 
ENDBRANCH   6   8
ENDBRANCH   1   2
BRANCH   1  15
ATOM     15  O   UNL     1      46.260   7.237  11.344  0.00  0.00    +0.000 OA
BRANCH  15  19
ATOM     16  C   UNL     1      47.095   4.295  14.978  0.00  0.00    +0.000 C 
ATOM     17  C   UNL     1      47.385   5.624  14.344  0.00  0.00    +0.000 A 
ATOM     18  N   UNL     1      46.733   5.834  13.169  0.00  0.00    +0.000 NA
ATOM     19  C   UNL     1      46.928   7.001  12.526  0.00  0.00    +0.000 A 
ATOM     20  C   UNL     1      47.767   7.994  12.993  0.00  0.00    +0.000 A 
ATOM     21  C   UNL     1      48.441   7.773  14.195  0.00  0.00    +0.000 A 
ATOM     22  C   UNL     1      48.261   6.567  14.890  0.00  0.00    +0.000 A 
BRANCH  22  23
ATOM     23  C   UNL     1      48.958   6.323  16.182  0.00  0.00    +0.000 C 
ATOM     24  N   UNL     1      48.320   6.718  17.325  0.00  0.00    +0.000 N 
ATOM     25  O   UNL     1      50.065   5.805  16.248  0.00  0.00    +0.000 OA
ATOM     26  H   UNL     1      47.508   7.318  17.336  0.00  0.00    +0.000 HD
ATOM     27  H   UNL     1      48.845   6.620  18.186  0.00  0.00    +0.000 HD
ENDBRANCH  22  23
ENDBRANCH  15  19
ENDBRANCH   1  15
TORSDOF 5
ENDMDL
MODEL 7
REMARK VINA RESULT:    -8.085      4.341      7.937
REMARK INTER + INTRA:         -11.170
REMARK INTER:                 -10.383
REMARK INTRA:                  -0.787
REMARK UNBOUND:                -0.722
REMARK  Name = 
REMARK  6 active torsions:
REMARK  status: ('A' for Active; 'I' for Inactive)
REMARK    1  A    between atoms: C_1  and  C_2
REMARK    2  A    between atoms: C_4  and  O_5
REMARK    3  A    between atoms: O_5  and  C_6
REMARK    4  A    between atoms: C_6  and  C_7
REMARK    5  A    between atoms: C_11  and  C_12
REMARK    6  A    between atoms: C_22  and  C_23
REMARK                            x       y       z     vdW  Elec       q    Type
REMARK                         _______ _______ _______ _____ _____    ______ ____
ROOT
ATOM      1  C   UNL     1      46.173   7.057  12.202  0.00  0.00    +0.000 C 
ENDROOT
BRANCH   1   2
ATOM      2  C   UNL     1      45.324   6.104  11.389  0.00  0.00    +0.000 A 
ATOM      3  C   UNL     1      43.945   6.041  11.622  0.00  0.00    +0.000 A 
ATOM      4  C   UNL     1      43.152   5.151  10.905  0.00  0.00    +0.000 A 
ATOM      5  C   UNL     1      43.732   4.312   9.950  0.00  0.00    +0.000 A 
ATOM      6  C   UNL     1      45.113   4.343   9.686  0.00  0.00    +0.000 A 
ATOM      7  C   UNL     1      45.892   5.240  10.439  0.00  0.00    +0.000 A 
BRANCH   6   8
ATOM      8  C   UNL     1      45.722   3.491   8.639  0.00  0.00    +0.000 A 
ATOM      9  C   UNL     1      46.234   4.036   7.444  0.00  0.00    +0.000 A 
ATOM     10  C   UNL     1      46.775   3.226   6.439  0.00  0.00    +0.000 A 
ATOM     11  C   UNL     1      46.829   1.848   6.616  0.00  0.00    +0.000 A 
ATOM     12  C   UNL     1      46.336   1.296   7.787  0.00  0.00    +0.000 A 
ATOM     13  F   UNL     1      46.383  -0.032   7.961  0.00  0.00    +0.000 F 
ATOM     14  C   UNL     1      45.785   2.094   8.785  0.00  0.00    +0.000 A 
ENDBRANCH   6   8
ENDBRANCH   1   2
BRANCH   1  15
ATOM     15  O   UNL     1      47.483   6.520  12.420  0.00  0.00    +0.000 OA
BRANCH  15  19
ATOM     16  C   UNL     1      49.513   6.869  16.700  0.00  0.00    +0.000 C 
ATOM     17  C   UNL     1      48.583   6.099  15.809  0.00  0.00    +0.000 A 
ATOM     18  N   UNL     1      48.439   6.629  14.565  0.00  0.00    +0.000 NA
ATOM     19  C   UNL     1      47.625   6.007  13.691  0.00  0.00    +0.000 A 
ATOM     20  C   UNL     1      46.918   4.860  13.998  0.00  0.00    +0.000 A 
ATOM     21  C   UNL     1      47.060   4.322  15.277  0.00  0.00    +0.000 A 
ATOM     22  C   UNL     1      47.900   4.947  16.212  0.00  0.00    +0.000 A 
BRANCH  22  23
ATOM     23  C   UNL     1      48.079   4.377  17.575  0.00  0.00    +0.000 C 
ATOM     24  N   UNL     1      47.150   4.708  18.522  0.00  0.00    +0.000 N 
ATOM     25  O   UNL     1      49.019   3.652  17.869  0.00  0.00    +0.000 OA
ATOM     26  H   UNL     1      46.469   5.444  18.407  0.00  0.00    +0.000 HD
ATOM     27  H   UNL     1      47.333   4.378  19.462  0.00  0.00    +0.000 HD
ENDBRANCH  22  23
ENDBRANCH  15  19
ENDBRANCH   1  15
TORSDOF 5
ENDMDL
MODEL 8
REMARK VINA RESULT:    -7.928      2.086      3.445
REMARK INTER + INTRA:         -10.967
REMARK INTER:                 -10.315
REMARK INTRA:                  -0.653
REMARK UNBOUND:                -0.722
REMARK  Name = 
REMARK  6 active torsions:
REMARK  status: ('A' for Active; 'I' for Inactive)
REMARK    1  A    between atoms: C_1  and  C_2
REMARK    2  A    between atoms: C_4  and  O_5
REMARK    3  A    between atoms: O_5  and  C_6
REMARK    4  A    between atoms: C_6  and  C_7
REMARK    5  A    between atoms: C_11  and  C_12
REMARK    6  A    between atoms: C_22  and  C_23
REMARK                            x       y       z     vdW  Elec       q    Type
REMARK                         _______ _______ _______ _____ _____    ______ ____
ROOT
ATOM      1  C   UNL     1      43.951   4.979  10.906  0.00  0.00    +0.000 C 
ENDROOT
BRANCH   1   2
ATOM      2  C   UNL     1      44.926   5.806  11.715  0.00  0.00    +0.000 A 
ATOM      3  C   UNL     1      45.147   7.144  11.367  0.00  0.00    +0.000 A 
ATOM      4  C   UNL     1      46.061   7.913  12.081  0.00  0.00    +0.000 A 
ATOM      5  C   UNL     1      46.767   7.349  13.147  0.00  0.00    +0.000 A 
ATOM      6  C   UNL     1      46.576   6.009  13.527  0.00  0.00    +0.000 A 
ATOM      7  C   UNL     1      45.658   5.251  12.776  0.00  0.00    +0.000 A 
BRANCH   6   8
ATOM      8  C   UNL     1      47.284   5.423  14.688  0.00  0.00    +0.000 A 
ATOM      9  C   UNL     1      46.990   4.128  15.161  0.00  0.00    +0.000 A 
ATOM     10  C   UNL     1      47.635   3.591  16.282  0.00  0.00    +0.000 A 
ATOM     11  C   UNL     1      48.601   4.336  16.948  0.00  0.00    +0.000 A 
ATOM     12  C   UNL     1      48.907   5.609  16.493  0.00  0.00    +0.000 A 
ATOM     13  F   UNL     1      49.835   6.333  17.133  0.00  0.00    +0.000 F 
ATOM     14  C   UNL     1      48.261   6.154  15.387  0.00  0.00    +0.000 A 
ENDBRANCH   6   8
ENDBRANCH   1   2
BRANCH   1  15
ATOM     15  O   UNL     1      44.391   3.619  10.804  0.00  0.00    +0.000 OA
BRANCH  15  19
ATOM     16  C   UNL     1      46.434   0.480   7.882  0.00  0.00    +0.000 C 
ATOM     17  C   UNL     1      46.131   1.922   8.164  0.00  0.00    +0.000 A 
ATOM     18  N   UNL     1      45.417   2.128   9.303  0.00  0.00    +0.000 NA
ATOM     19  C   UNL     1      45.098   3.392   9.643  0.00  0.00    +0.000 A 
ATOM     20  C   UNL     1      45.450   4.492   8.886  0.00  0.00    +0.000 A 
ATOM     21  C   UNL     1      46.176   4.279   7.713  0.00  0.00    +0.000 A 
ATOM     22  C   UNL     1      46.523   2.974   7.331  0.00  0.00    +0.000 A 
BRANCH  22  23
ATOM     23  C   UNL     1      47.313   2.729   6.093  0.00  0.00    +0.000 C 
ATOM     24  N   UNL     1      48.663   2.555   6.232  0.00  0.00    +0.000 N 
ATOM     25  O   UNL     1      46.805   2.696   4.981  0.00  0.00    +0.000 OA
ATOM     26  H   UNL     1      49.170   2.761   7.080  0.00  0.00    +0.000 HD
ATOM     27  H   UNL     1      49.193   2.474   5.372  0.00  0.00    +0.000 HD
ENDBRANCH  22  23
ENDBRANCH  15  19
ENDBRANCH   1  15
TORSDOF 5
ENDMDL
MODEL 9
REMARK VINA RESULT:    -7.413      4.946      8.435
REMARK INTER + INTRA:         -10.302
REMARK INTER:                  -9.391
REMARK INTRA:                  -0.912
REMARK UNBOUND:                -0.722
REMARK  Name = 
REMARK  6 active torsions:
REMARK  status: ('A' for Active; 'I' for Inactive)
REMARK    1  A    between atoms: C_1  and  C_2
REMARK    2  A    between atoms: C_4  and  O_5
REMARK    3  A    between atoms: O_5  and  C_6
REMARK    4  A    between atoms: C_6  and  C_7
REMARK    5  A    between atoms: C_11  and  C_12
REMARK    6  A    between atoms: C_22  and  C_23
REMARK                            x       y       z     vdW  Elec       q    Type
REMARK                         _______ _______ _______ _____ _____    ______ ____
ROOT
ATOM      1  C   UNL     1      48.304   7.692  13.773  0.00  0.00    +0.000 C 
ENDROOT
BRANCH   1   2
ATOM      2  C   UNL     1      47.067   7.626  12.905  0.00  0.00    +0.000 A 
ATOM      3  C   UNL     1      46.199   8.724  12.859  0.00  0.00    +0.000 A 
ATOM      4  C   UNL     1      45.041   8.672  12.089  0.00  0.00    +0.000 A 
ATOM      5  C   UNL     1      44.738   7.518  11.361  0.00  0.00    +0.000 A 
ATOM      6  C   UNL     1      45.581   6.394  11.382  0.00  0.00    +0.000 A 
ATOM      7  C   UNL     1      46.735   6.469  12.182  0.00  0.00    +0.000 A 
BRANCH   6   8
ATOM      8  C   UNL     1      45.288   5.189  10.571  0.00  0.00    +0.000 A 
ATOM      9  C   UNL     1      44.627   4.070  11.117  0.00  0.00    +0.000 A 
ATOM     10  C   UNL     1      44.385   2.918  10.359  0.00  0.00    +0.000 A 
ATOM     11  C   UNL     1      44.789   2.866   9.030  0.00  0.00    +0.000 A 
ATOM     12  C   UNL     1      45.435   3.959   8.476  0.00  0.00    +0.000 A 
ATOM     13  F   UNL     1      45.830   3.914   7.196  0.00  0.00    +0.000 F 
ATOM     14  C   UNL     1      45.690   5.104   9.227  0.00  0.00    +0.000 A 
ENDBRANCH   6   8
ENDBRANCH   1   2
BRANCH   1  15
ATOM     15  O   UNL     1      48.799   6.379  14.064  0.00  0.00    +0.000 OA
BRANCH  15  19
ATOM     16  C   UNL     1      47.222   3.284  17.303  0.00  0.00    +0.000 C 
ATOM     17  C   UNL     1      47.897   4.598  17.045  0.00  0.00    +0.000 A 
ATOM     18  N   UNL     1      48.055   4.894  15.727  0.00  0.00    +0.000 NA
ATOM     19  C   UNL     1      48.649   6.056  15.396  0.00  0.00    +0.000 A 
ATOM     20  C   UNL     1      49.120   6.960  16.328  0.00  0.00    +0.000 A 
ATOM     21  C   UNL     1      48.965   6.652  17.679  0.00  0.00    +0.000 A 
ATOM     22  C   UNL     1      48.350   5.448  18.059  0.00  0.00    +0.000 A 
BRANCH  22  23
ATOM     23  C   UNL     1      48.160   5.112  19.496  0.00  0.00    +0.000 C 
ATOM     24  N   UNL     1      47.068   5.640  20.127  0.00  0.00    +0.000 N 
ATOM     25  O   UNL     1      48.943   4.406  20.118  0.00  0.00    +0.000 OA
ATOM     26  H   UNL     1      46.497   6.376  19.738  0.00  0.00    +0.000 HD
ATOM     27  H   UNL     1      47.001   5.468  21.123  0.00  0.00    +0.000 HD
ENDBRANCH  22  23
ENDBRANCH  15  19
ENDBRANCH   1  15
TORSDOF 5
ENDMDL
