MODEL 1
REMARK VINA RESULT:    -7.508      0.000      0.000
REMARK INTER + INTRA:         -11.419
REMARK INTER:                 -10.141
REMARK INTRA:                  -1.277
REMARK UNBOUND:                -1.277
REMARK  Name = 
REMARK  7 active torsions:
REMARK  status: ('A' for Active; 'I' for Inactive)
REMARK    1  A    between atoms: C_1  and  C_2
REMARK    2  A    between atoms: C_2  and  N_3
REMARK    3  A    between atoms: C_2  and  C_16
REMARK    4  A    between atoms: C_4  and  C_6
REMARK    5  A    between atoms: C_19  and  C_20
REMARK    6  A    between atoms: C_20  and  N_21
REMARK    7  A    between atoms: C_22  and  C_24
REMARK                            x       y       z     vdW  Elec       q    Type
REMARK                         _______ _______ _______ _____ _____    ______ ____
ROOT
ATOM      1  C   UNL     1      45.776   9.172  12.898  0.00  0.00    +0.000 C 
ATOM      2  C   UNL     1      46.711   7.970  12.725  0.00  0.00    +0.000 C 
ENDROOT
BRANCH   2   3
ATOM      3  C   UNL     1      45.995   6.871  11.935  0.00  0.00    +0.000 A 
ATOM      4  C   UNL     1      46.353   6.547  10.619  0.00  0.00    +0.000 A 
ATOM      5  C   UNL     1      45.742   5.478   9.940  0.00  0.00    +0.000 A 
ATOM      6  C   UNL     1      44.742   4.706  10.551  0.00  0.00    +0.000 A 
ATOM      7  C   UNL     1      44.363   5.047  11.856  0.00  0.00    +0.000 A 
ATOM      8  C   UNL     1      44.964   6.119  12.529  0.00  0.00    +0.000 A 
BRANCH   6   9
ATOM      9  C   UNL     1      44.078   3.542   9.851  0.00  0.00    +0.000 C 
BRANCH   9  10
ATOM     10  N   UNL     1      44.618   3.300   8.528  0.00  0.00    +0.000 N 
ATOM     11  C   UNL     1      45.442   2.223   8.267  0.00  0.00    +0.000 C 
ATOM     12  O   UNL     1      45.782   1.410   9.128  0.00  0.00    +0.000 OA
ATOM     13  H   UNL     1      44.191   3.767   7.743  0.00  0.00    +0.000 HD
BRANCH  11  14
ATOM     14  C   UNL     1      45.862   2.093   6.778  0.00  0.00    +0.000 C 
ATOM     15  C   UNL     1      46.471   3.357   6.190  0.00  0.00    +0.000 C 
ATOM     16  C   UNL     1      47.887   3.334   6.735  0.00  0.00    +0.000 C 
ATOM     17  C   UNL     1      48.214   1.853   6.874  0.00  0.00    +0.000 C 
ATOM     18  N   UNL     1      46.965   1.120   6.624  0.00  0.00    +0.000 NA
ATOM     19  H   UNL     1      46.854   0.394   7.338  0.00  0.00    +0.000 HD
ENDBRANCH  11  14
ENDBRANCH   9  10
ENDBRANCH   6   9
ENDBRANCH   2   3
BRANCH   2  20
ATOM     20  N   UNL     1      47.171   7.464  14.014  0.00  0.00    +0.000 N 
ATOM     21  C   UNL     1      48.284   6.678  14.174  0.00  0.00    +0.000 C 
ATOM     22  O   UNL     1      49.016   6.339  13.244  0.00  0.00    +0.000 OA
ATOM     23  H   UNL     1      46.449   7.363  14.725  0.00  0.00    +0.000 HD
BRANCH  21  24
ATOM     24  C   UNL     1      48.602   6.287  15.556  0.00  0.00    +0.000 A 
ATOM     25  C   UNL     1      49.476   7.055  16.323  0.00  0.00    +0.000 A 
ATOM     26  S   UNL     1      49.775   6.406  17.876  0.00  0.00    +0.000 S 
ATOM     27  C   UNL     1      48.762   5.073  17.570  0.00  0.00    +0.000 A 
ATOM     28  N   UNL     1      48.613   4.077  18.486  0.00  0.00    +0.000 NA
ATOM     29  C   UNL     1      47.831   3.121  18.110  0.00  0.00    +0.000 A 
ATOM     30  N   UNL     1      47.165   3.081  16.915  0.00  0.00    +0.000 N 
ATOM     31  C   UNL     1      47.240   4.085  15.980  0.00  0.00    +0.000 A 
ATOM     32  O   UNL     1      46.561   4.063  14.969  0.00  0.00    +0.000 OA
ATOM     33  C   UNL     1      48.160   5.154  16.329  0.00  0.00    +0.000 A 
ATOM     34  H   UNL     1      46.533   2.322  16.696  0.00  0.00    +0.000 HD
ENDBRANCH  21  24
ENDBRANCH   2  20
TORSDOF 6
ENDMDL
MODEL 2
REMARK VINA RESULT:    -7.036      2.875      8.395
REMARK INTER + INTRA:         -10.781
REMARK INTER:                  -9.593
REMARK INTRA:                  -1.188
REMARK UNBOUND:                -1.277
REMARK  Name = 
REMARK  7 active torsions:
REMARK  status: ('A' for Active; 'I' for Inactive)
REMARK    1  A    between atoms: C_1  and  C_2
REMARK    2  A    between atoms: C_2  and  N_3
REMARK    3  A    between atoms: C_2  and  C_16
REMARK    4  A    between atoms: C_4  and  C_6
REMARK    5  A    between atoms: C_19  and  C_20
REMARK    6  A    between atoms: C_20  and  N_21
REMARK    7  A    between atoms: C_22  and  C_24
REMARK                            x       y       z     vdW  Elec       q    Type
REMARK                         _______ _______ _______ _____ _____    ______ ____
ROOT
ATOM      1  C   UNL     1      49.027   7.757  11.383  0.00  0.00    +0.000 C 
ATOM      2  C   UNL     1      47.768   7.770  12.258  0.00  0.00    +0.000 C 
ENDROOT
BRANCH   2   3
ATOM      3  C   UNL     1      48.169   7.824  13.735  0.00  0.00    +0.000 A 
ATOM      4  C   UNL     1      47.979   8.973  14.516  0.00  0.00    +0.000 A 
ATOM      5  C   UNL     1      48.274   8.976  15.890  0.00  0.00    +0.000 A 
ATOM      6  C   UNL     1      48.782   7.833  16.527  0.00  0.00    +0.000 A 
ATOM      7  C   UNL     1      48.999   6.693  15.743  0.00  0.00    +0.000 A 
ATOM      8  C   UNL     1      48.716   6.693  14.370  0.00  0.00    +0.000 A 
BRANCH   6   9
ATOM      9  C   UNL     1      49.094   7.802  18.006  0.00  0.00    +0.000 C 
BRANCH   9  10
ATOM     10  N   UNL     1      49.376   6.465  18.493  0.00  0.00    +0.000 N 
ATOM     11  C   UNL     1      48.367   5.608  18.885  0.00  0.00    +0.000 C 
ATOM     12  O   UNL     1      47.174   5.916  18.862  0.00  0.00    +0.000 OA
ATOM     13  H   UNL     1      50.283   6.069  18.305  0.00  0.00    +0.000 HD
BRANCH  11  14
ATOM     14  C   UNL     1      48.861   4.199  19.307  0.00  0.00    +0.000 C 
ATOM     15  C   UNL     1      48.206   3.055  18.548  0.00  0.00    +0.000 C 
ATOM     16  C   UNL     1      48.940   3.067  17.220  0.00  0.00    +0.000 C 
ATOM     17  C   UNL     1      50.335   3.572  17.565  0.00  0.00    +0.000 C 
ATOM     18  N   UNL     1      50.288   4.017  18.966  0.00  0.00    +0.000 NA
ATOM     19  H   UNL     1      50.755   4.925  19.045  0.00  0.00    +0.000 HD
ENDBRANCH  11  14
ENDBRANCH   9  10
ENDBRANCH   6   9
ENDBRANCH   2   3
BRANCH   2  20
ATOM     20  N   UNL     1      46.925   6.609  11.994  0.00  0.00    +0.000 N 
ATOM     21  C   UNL     1      45.560   6.608  12.131  0.00  0.00    +0.000 C 
ATOM     22  O   UNL     1      44.911   7.596  12.474  0.00  0.00    +0.000 OA
ATOM     23  H   UNL     1      47.383   5.705  12.096  0.00  0.00    +0.000 HD
BRANCH  21  24
ATOM     24  C   UNL     1      44.880   5.348  11.793  0.00  0.00    +0.000 A 
ATOM     25  C   UNL     1      44.074   4.707  12.732  0.00  0.00    +0.000 A 
ATOM     26  S   UNL     1      43.426   3.225  12.180  0.00  0.00    +0.000 S 
ATOM     27  C   UNL     1      44.211   3.381  10.678  0.00  0.00    +0.000 A 
ATOM     28  N   UNL     1      44.126   2.406   9.733  0.00  0.00    +0.000 NA
ATOM     29  C   UNL     1      44.789   2.651   8.653  0.00  0.00    +0.000 A 
ATOM     30  N   UNL     1      45.508   3.792   8.420  0.00  0.00    +0.000 N 
ATOM     31  C   UNL     1      45.583   4.828   9.318  0.00  0.00    +0.000 A 
ATOM     32  O   UNL     1      46.152   5.869   9.041  0.00  0.00    +0.000 OA
ATOM     33  C   UNL     1      44.906   4.572  10.578  0.00  0.00    +0.000 A 
ATOM     34  H   UNL     1      45.973   3.943   7.534  0.00  0.00    +0.000 HD
ENDBRANCH  21  24
ENDBRANCH   2  20
TORSDOF 6
ENDMDL
MODEL 3
REMARK VINA RESULT:    -6.977      3.334      7.921
REMARK INTER + INTRA:         -10.702
REMARK INTER:                  -9.490
REMARK INTRA:                  -1.212
REMARK UNBOUND:                -1.277
REMARK  Name = 
REMARK  7 active torsions:
REMARK  status: ('A' for Active; 'I' for Inactive)
REMARK    1  A    between atoms: C_1  and  C_2
REMARK    2  A    between atoms: C_2  and  N_3
REMARK    3  A    between atoms: C_2  and  C_16
REMARK    4  A    between atoms: C_4  and  C_6
REMARK    5  A    between atoms: C_19  and  C_20
REMARK    6  A    between atoms: C_20  and  N_21
REMARK    7  A    between atoms: C_22  and  C_24
REMARK                            x       y       z     vdW  Elec       q    Type
REMARK                         _______ _______ _______ _____ _____    ______ ____
ROOT
ATOM      1  C   UNL     1      49.788   8.218  11.454  0.00  0.00    +0.000 C 
ATOM      2  C   UNL     1      48.407   8.107  12.109  0.00  0.00    +0.000 C 
ENDROOT
BRANCH   2   3
ATOM      3  C   UNL     1      48.566   7.972  13.626  0.00  0.00    +0.000 A 
ATOM      4  C   UNL     1      48.532   9.084  14.480  0.00  0.00    +0.000 A 
ATOM      5  C   UNL     1      48.594   8.932  15.876  0.00  0.00    +0.000 A 
ATOM      6  C   UNL     1      48.707   7.663  16.465  0.00  0.00    +0.000 A 
ATOM      7  C   UNL     1      48.770   6.553  15.612  0.00  0.00    +0.000 A 
ATOM      8  C   UNL     1      48.720   6.705  14.220  0.00  0.00    +0.000 A 
BRANCH   6   9
ATOM      9  C   UNL     1      48.761   7.469  17.963  0.00  0.00    +0.000 C 
BRANCH   9  10
ATOM     10  N   UNL     1      49.005   6.090  18.342  0.00  0.00    +0.000 N 
ATOM     11  C   UNL     1      47.969   5.222  18.623  0.00  0.00    +0.000 C 
ATOM     12  O   UNL     1      46.783   5.552  18.586  0.00  0.00    +0.000 OA
ATOM     13  H   UNL     1      49.912   5.695  18.152  0.00  0.00    +0.000 HD
BRANCH  11  14
ATOM     14  C   UNL     1      48.427   3.772  18.939  0.00  0.00    +0.000 C 
ATOM     15  C   UNL     1      47.761   2.708  18.081  0.00  0.00    +0.000 C 
ATOM     16  C   UNL     1      48.518   2.809  16.770  0.00  0.00    +0.000 C 
ATOM     17  C   UNL     1      49.917   3.254  17.176  0.00  0.00    +0.000 C 
ATOM     18  N   UNL     1      49.855   3.586  18.607  0.00  0.00    +0.000 NA
ATOM     19  H   UNL     1      50.340   4.474  18.765  0.00  0.00    +0.000 HD
ENDBRANCH  11  14
ENDBRANCH   9  10
ENDBRANCH   6   9
ENDBRANCH   2   3
BRANCH   2  20
ATOM     20  N   UNL     1      47.651   6.982  11.567  0.00  0.00    +0.000 N 
ATOM     21  C   UNL     1      46.282   6.953  11.480  0.00  0.00    +0.000 C 
ATOM     22  O   UNL     1      45.558   7.883  11.833  0.00  0.00    +0.000 OA
ATOM     23  H   UNL     1      48.112   6.077  11.629  0.00  0.00    +0.000 HD
BRANCH  21  24
ATOM     24  C   UNL     1      45.702   5.742  10.880  0.00  0.00    +0.000 A 
ATOM     25  C   UNL     1      45.822   5.504   9.512  0.00  0.00    +0.000 A 
ATOM     26  S   UNL     1      45.027   4.084   8.991  0.00  0.00    +0.000 S 
ATOM     27  C   UNL     1      44.483   3.747  10.568  0.00  0.00    +0.000 A 
ATOM     28  N   UNL     1      43.680   2.679  10.824  0.00  0.00    +0.000 NA
ATOM     29  C   UNL     1      43.329   2.560  12.061  0.00  0.00    +0.000 A 
ATOM     30  N   UNL     1      43.728   3.395  13.070  0.00  0.00    +0.000 N 
ATOM     31  C   UNL     1      44.580   4.455  12.873  0.00  0.00    +0.000 A 
ATOM     32  O   UNL     1      44.991   5.120  13.807  0.00  0.00    +0.000 OA
ATOM     33  C   UNL     1      44.951   4.669  11.485  0.00  0.00    +0.000 A 
ATOM     34  H   UNL     1      43.452   3.224  14.027  0.00  0.00    +0.000 HD
ENDBRANCH  21  24
ENDBRANCH   2  20
TORSDOF 6
ENDMDL
MODEL 4
REMARK VINA RESULT:    -6.934      3.596      5.521
REMARK INTER + INTRA:         -10.643
REMARK INTER:                  -9.706
REMARK INTRA:                  -0.936
REMARK UNBOUND:                -1.277
REMARK  Name = 
REMARK  7 active torsions:
REMARK  status: ('A' for Active; 'I' for Inactive)
REMARK    1  A    between atoms: C_1  and  C_2
REMARK    2  A    between atoms: C_2  and  N_3
REMARK    3  A    between atoms: C_2  and  C_16
REMARK    4  A    between atoms: C_4  and  C_6
REMARK    5  A    between atoms: C_19  and  C_20
REMARK    6  A    between atoms: C_20  and  N_21
REMARK    7  A    between atoms: C_22  and  C_24
REMARK                            x       y       z     vdW  Elec       q    Type
REMARK                         _______ _______ _______ _____ _____    ______ ____
ROOT
ATOM      1  C   UNL     1      47.410   2.904  17.435  0.00  0.00    +0.000 C 
ATOM      2  C   UNL     1      48.237   4.170  17.188  0.00  0.00    +0.000 C 
ENDROOT
BRANCH   2   3
ATOM      3  C   UNL     1      47.911   4.736  15.803  0.00  0.00    +0.000 A 
ATOM      4  C   UNL     1      47.130   4.030  14.876  0.00  0.00    +0.000 A 
ATOM      5  C   UNL     1      46.770   4.601  13.643  0.00  0.00    +0.000 A 
ATOM      6  C   UNL     1      47.192   5.892  13.289  0.00  0.00    +0.000 A 
ATOM      7  C   UNL     1      47.996   6.587  14.201  0.00  0.00    +0.000 A 
ATOM      8  C   UNL     1      48.365   6.014  15.425  0.00  0.00    +0.000 A 
BRANCH   6   9
ATOM      9  C   UNL     1      46.808   6.537  11.976  0.00  0.00    +0.000 C 
BRANCH   9  10
ATOM     10  N   UNL     1      45.834   5.761  11.233  0.00  0.00    +0.000 N 
ATOM     11  C   UNL     1      44.485   5.820  11.526  0.00  0.00    +0.000 C 
ATOM     12  O   UNL     1      44.021   6.514  12.431  0.00  0.00    +0.000 OA
ATOM     13  H   UNL     1      46.106   5.377  10.343  0.00  0.00    +0.000 HD
BRANCH  11  14
ATOM     14  C   UNL     1      43.594   4.974  10.577  0.00  0.00    +0.000 C 
ATOM     15  C   UNL     1      44.366   3.993   9.707  0.00  0.00    +0.000 C 
ATOM     16  C   UNL     1      44.666   2.855  10.666  0.00  0.00    +0.000 C 
ATOM     17  C   UNL     1      43.491   2.860  11.635  0.00  0.00    +0.000 C 
ATOM     18  N   UNL     1      42.711   4.072  11.347  0.00  0.00    +0.000 NA
ATOM     19  H   UNL     1      42.472   4.534  12.230  0.00  0.00    +0.000 HD
ENDBRANCH  11  14
ENDBRANCH   9  10
ENDBRANCH   6   9
ENDBRANCH   2   3
BRANCH   2  20
ATOM     20  N   UNL     1      49.667   3.905  17.313  0.00  0.00    +0.000 N 
ATOM     21  C   UNL     1      50.393   4.149  18.451  0.00  0.00    +0.000 C 
ATOM     22  O   UNL     1      49.903   4.600  19.487  0.00  0.00    +0.000 OA
ATOM     23  H   UNL     1      50.190   3.917  16.440  0.00  0.00    +0.000 HD
BRANCH  21  24
ATOM     24  C   UNL     1      51.819   3.791  18.394  0.00  0.00    +0.000 A 
ATOM     25  C   UNL     1      52.794   4.714  18.768  0.00  0.00    +0.000 A 
ATOM     26  S   UNL     1      54.391   4.141  18.569  0.00  0.00    +0.000 S 
ATOM     27  C   UNL     1      53.836   2.651  17.962  0.00  0.00    +0.000 A 
ATOM     28  N   UNL     1      54.706   1.696  17.533  0.00  0.00    +0.000 NA
ATOM     29  C   UNL     1      54.143   0.627  17.079  0.00  0.00    +0.000 A 
ATOM     30  N   UNL     1      52.792   0.413  17.039  0.00  0.00    +0.000 N 
ATOM     31  C   UNL     1      51.874   1.321  17.508  0.00  0.00    +0.000 A 
ATOM     32  O   UNL     1      50.685   1.061  17.544  0.00  0.00    +0.000 OA
ATOM     33  C   UNL     1      52.457   2.570  17.969  0.00  0.00    +0.000 A 
ATOM     34  H   UNL     1      52.413  -0.465  16.709  0.00  0.00    +0.000 HD
ENDBRANCH  21  24
ENDBRANCH   2  20
TORSDOF 6
ENDMDL
MODEL 5
REMARK VINA RESULT:    -6.874      4.960      7.104
REMARK INTER + INTRA:         -10.563
REMARK INTER:                  -9.465
REMARK INTRA:                  -1.097
REMARK UNBOUND:                -1.277
REMARK  Name = 
REMARK  7 active torsions:
REMARK  status: ('A' for Active; 'I' for Inactive)
REMARK    1  A    between atoms: C_1  and  C_2
REMARK    2  A    between atoms: C_2  and  N_3
REMARK    3  A    between atoms: C_2  and  C_16
REMARK    4  A    between atoms: C_4  and  C_6
REMARK    5  A    between atoms: C_19  and  C_20
REMARK    6  A    between atoms: C_20  and  N_21
REMARK    7  A    between atoms: C_22  and  C_24
REMARK                            x       y       z     vdW  Elec       q    Type
REMARK                         _______ _______ _______ _____ _____    ______ ____
ROOT
ATOM      1  C   UNL     1      50.992   9.309  12.492  0.00  0.00    +0.000 C 
ATOM      2  C   UNL     1      50.501   8.312  11.436  0.00  0.00    +0.000 C 
ENDROOT
BRANCH   2   3
ATOM      3  C   UNL     1      49.297   7.538  11.981  0.00  0.00    +0.000 A 
ATOM      4  C   UNL     1      49.246   7.075  13.303  0.00  0.00    +0.000 A 
ATOM      5  C   UNL     1      48.098   6.442  13.809  0.00  0.00    +0.000 A 
ATOM      6  C   UNL     1      46.967   6.236  13.004  0.00  0.00    +0.000 A 
ATOM      7  C   UNL     1      47.027   6.671  11.674  0.00  0.00    +0.000 A 
ATOM      8  C   UNL     1      48.176   7.292  11.166  0.00  0.00    +0.000 A 
BRANCH   6   9
ATOM      9  C   UNL     1      45.713   5.571  13.525  0.00  0.00    +0.000 C 
BRANCH   9  10
ATOM     10  N   UNL     1      44.861   5.070  12.464  0.00  0.00    +0.000 N 
ATOM     11  C   UNL     1      44.837   3.731  12.125  0.00  0.00    +0.000 C 
ATOM     12  O   UNL     1      45.535   2.882  12.682  0.00  0.00    +0.000 OA
ATOM     13  H   UNL     1      44.101   5.649  12.146  0.00  0.00    +0.000 HD
BRANCH  11  14
ATOM     14  C   UNL     1      43.812   3.377  11.014  0.00  0.00    +0.000 C 
ATOM     15  C   UNL     1      43.754   4.385   9.876  0.00  0.00    +0.000 C 
ATOM     16  C   UNL     1      44.979   4.033   9.051  0.00  0.00    +0.000 C 
ATOM     17  C   UNL     1      45.153   2.534   9.257  0.00  0.00    +0.000 C 
ATOM     18  N   UNL     1      44.206   2.139  10.309  0.00  0.00    +0.000 NA
ATOM     19  H   UNL     1      44.683   1.527  10.977  0.00  0.00    +0.000 HD
ENDBRANCH  11  14
ENDBRANCH   9  10
ENDBRANCH   6   9
ENDBRANCH   2   3
BRANCH   2  20
ATOM     20  N   UNL     1      51.564   7.396  11.035  0.00  0.00    +0.000 N 
ATOM     21  C   UNL     1      52.458   7.658  10.028  0.00  0.00    +0.000 C 
ATOM     22  O   UNL     1      52.462   8.701   9.375  0.00  0.00    +0.000 OA
ATOM     23  H   UNL     1      51.389   6.412  11.230  0.00  0.00    +0.000 HD
BRANCH  21  24
ATOM     24  C   UNL     1      53.476   6.623   9.787  0.00  0.00    +0.000 A 
ATOM     25  C   UNL     1      54.394   6.290  10.781  0.00  0.00    +0.000 A 
ATOM     26  S   UNL     1      55.538   5.118  10.293  0.00  0.00    +0.000 S 
ATOM     27  C   UNL     1      54.858   5.028   8.735  0.00  0.00    +0.000 A 
ATOM     28  N   UNL     1      55.405   4.237   7.772  0.00  0.00    +0.000 NA
ATOM     29  C   UNL     1      54.796   4.285   6.635  0.00  0.00    +0.000 A 
ATOM     30  N   UNL     1      53.677   5.029   6.379  0.00  0.00    +0.000 N 
ATOM     31  C   UNL     1      53.056   5.801   7.330  0.00  0.00    +0.000 A 
ATOM     32  O   UNL     1      52.007   6.376   7.095  0.00  0.00    +0.000 OA
ATOM     33  C   UNL     1      53.741   5.832   8.610  0.00  0.00    +0.000 A 
ATOM     34  H   UNL     1      53.222   4.991   5.476  0.00  0.00    +0.000 HD
ENDBRANCH  21  24
ENDBRANCH   2  20
TORSDOF 6
ENDMDL
MODEL 6
REMARK VINA RESULT:    -6.783      1.817      2.192
REMARK INTER + INTRA:         -10.439
REMARK INTER:                  -9.538
REMARK INTRA:                  -0.900
REMARK UNBOUND:                -1.277
REMARK  Name = 
REMARK  7 active torsions:
REMARK  status: ('A' for Active; 'I' for Inactive)
REMARK    1  A    between atoms: C_1  and  C_2
REMARK    2  A    between atoms: C_2  and  N_3
REMARK    3  A    between atoms: C_2  and  C_16
REMARK    4  A    between atoms: C_4  and  C_6
REMARK    5  A    between atoms: C_19  and  C_20
REMARK    6  A    between atoms: C_20  and  N_21
REMARK    7  A    between atoms: C_22  and  C_24
REMARK                            x       y       z     vdW  Elec       q    Type
REMARK                         _______ _______ _______ _____ _____    ______ ____
ROOT
ATOM      1  C   UNL     1      48.887   8.258  12.935  0.00  0.00    +0.000 C 
ATOM      2  C   UNL     1      48.442   6.902  13.495  0.00  0.00    +0.000 C 
ENDROOT
BRANCH   2   3
ATOM      3  C   UNL     1      47.133   6.474  12.824  0.00  0.00    +0.000 A 
ATOM      4  C   UNL     1      46.846   6.784  11.488  0.00  0.00    +0.000 A 
ATOM      5  C   UNL     1      45.679   6.310  10.865  0.00  0.00    +0.000 A 
ATOM      6  C   UNL     1      44.752   5.520  11.562  0.00  0.00    +0.000 A 
ATOM      7  C   UNL     1      45.023   5.234  12.907  0.00  0.00    +0.000 A 
ATOM      8  C   UNL     1      46.181   5.716  13.531  0.00  0.00    +0.000 A 
BRANCH   6   9
ATOM      9  C   UNL     1      43.496   4.984  10.914  0.00  0.00    +0.000 C 
BRANCH   9  10
ATOM     10  N   UNL     1      43.766   4.235   9.702  0.00  0.00    +0.000 N 
ATOM     11  C   UNL     1      44.482   3.054   9.724  0.00  0.00    +0.000 C 
ATOM     12  O   UNL     1      44.946   2.566  10.755  0.00  0.00    +0.000 OA
ATOM     13  H   UNL     1      43.217   4.437   8.882  0.00  0.00    +0.000 HD
BRANCH  11  14
ATOM     14  C   UNL     1      44.606   2.364   8.339  0.00  0.00    +0.000 C 
ATOM     15  C   UNL     1      44.875   3.321   7.188  0.00  0.00    +0.000 C 
ATOM     16  C   UNL     1      46.357   3.612   7.330  0.00  0.00    +0.000 C 
ATOM     17  C   UNL     1      46.936   2.337   7.929  0.00  0.00    +0.000 C 
ATOM     18  N   UNL     1      45.794   1.486   8.292  0.00  0.00    +0.000 NA
ATOM     19  H   UNL     1      45.948   1.103   9.230  0.00  0.00    +0.000 HD
ENDBRANCH  11  14
ENDBRANCH   9  10
ENDBRANCH   6   9
ENDBRANCH   2   3
BRANCH   2  20
ATOM     20  N   UNL     1      48.286   6.951  14.945  0.00  0.00    +0.000 N 
ATOM     21  C   UNL     1      49.325   6.813  15.830  0.00  0.00    +0.000 C 
ATOM     22  O   UNL     1      50.496   6.654  15.486  0.00  0.00    +0.000 OA
ATOM     23  H   UNL     1      47.366   6.687  15.294  0.00  0.00    +0.000 HD
BRANCH  21  24
ATOM     24  C   UNL     1      48.974   6.917  17.255  0.00  0.00    +0.000 A 
ATOM     25  C   UNL     1      48.681   8.156  17.822  0.00  0.00    +0.000 A 
ATOM     26  S   UNL     1      48.364   8.085  19.499  0.00  0.00    +0.000 S 
ATOM     27  C   UNL     1      48.622   6.403  19.529  0.00  0.00    +0.000 A 
ATOM     28  N   UNL     1      48.565   5.701  20.694  0.00  0.00    +0.000 NA
ATOM     29  C   UNL     1      48.801   4.438  20.568  0.00  0.00    +0.000 A 
ATOM     30  N   UNL     1      49.065   3.808  19.382  0.00  0.00    +0.000 N 
ATOM     31  C   UNL     1      49.082   4.461  18.173  0.00  0.00    +0.000 A 
ATOM     32  O   UNL     1      49.225   3.854  17.126  0.00  0.00    +0.000 OA
ATOM     33  C   UNL     1      48.885   5.897  18.271  0.00  0.00    +0.000 A 
ATOM     34  H   UNL     1      49.202   2.807  19.343  0.00  0.00    +0.000 HD
ENDBRANCH  21  24
ENDBRANCH   2  20
TORSDOF 6
ENDMDL
MODEL 7
REMARK VINA RESULT:    -6.583      4.544      7.303
REMARK INTER + INTRA:         -10.169
REMARK INTER:                  -9.154
REMARK INTRA:                  -1.015
REMARK UNBOUND:                -1.277
REMARK  Name = 
REMARK  7 active torsions:
REMARK  status: ('A' for Active; 'I' for Inactive)
REMARK    1  A    between atoms: C_1  and  C_2
REMARK    2  A    between atoms: C_2  and  N_3
REMARK    3  A    between atoms: C_2  and  C_16
REMARK    4  A    between atoms: C_4  and  C_6
REMARK    5  A    between atoms: C_19  and  C_20
REMARK    6  A    between atoms: C_20  and  N_21
REMARK    7  A    between atoms: C_22  and  C_24
REMARK                            x       y       z     vdW  Elec       q    Type
REMARK                         _______ _______ _______ _____ _____    ______ ____
ROOT
ATOM      1  C   UNL     1      45.248   9.404  12.423  0.00  0.00    +0.000 C 
ATOM      2  C   UNL     1      46.050   8.149  12.782  0.00  0.00    +0.000 C 
ENDROOT
BRANCH   2   3
ATOM      3  C   UNL     1      47.503   8.318  12.327  0.00  0.00    +0.000 A 
ATOM      4  C   UNL     1      47.997   9.542  11.854  0.00  0.00    +0.000 A 
ATOM      5  C   UNL     1      49.353   9.700  11.522  0.00  0.00    +0.000 A 
ATOM      6  C   UNL     1      50.259   8.635  11.637  0.00  0.00    +0.000 A 
ATOM      7  C   UNL     1      49.762   7.403  12.082  0.00  0.00    +0.000 A 
ATOM      8  C   UNL     1      48.407   7.242  12.403  0.00  0.00    +0.000 A 
BRANCH   6   9
ATOM      9  C   UNL     1      51.726   8.780  11.301  0.00  0.00    +0.000 C 
BRANCH   9  10
ATOM     10  N   UNL     1      52.377   7.505  11.070  0.00  0.00    +0.000 N 
ATOM     11  C   UNL     1      52.771   7.111   9.807  0.00  0.00    +0.000 C 
ATOM     12  O   UNL     1      52.590   7.796   8.799  0.00  0.00    +0.000 OA
ATOM     13  H   UNL     1      52.773   7.019  11.859  0.00  0.00    +0.000 HD
BRANCH  11  14
ATOM     14  C   UNL     1      53.514   5.748   9.772  0.00  0.00    +0.000 C 
ATOM     15  C   UNL     1      54.557   5.635   8.670  0.00  0.00    +0.000 C 
ATOM     16  C   UNL     1      55.729   6.416   9.234  0.00  0.00    +0.000 C 
ATOM     17  C   UNL     1      55.619   6.227  10.741  0.00  0.00    +0.000 C 
ATOM     18  N   UNL     1      54.332   5.562  10.989  0.00  0.00    +0.000 NA
ATOM     19  H   UNL     1      53.858   6.029  11.768  0.00  0.00    +0.000 HD
ENDBRANCH  11  14
ENDBRANCH   9  10
ENDBRANCH   6   9
ENDBRANCH   2   3
BRANCH   2  20
ATOM     20  N   UNL     1      45.460   6.953  12.190  0.00  0.00    +0.000 N 
ATOM     21  C   UNL     1      45.442   5.725  12.803  0.00  0.00    +0.000 C 
ATOM     22  O   UNL     1      45.908   5.518  13.923  0.00  0.00    +0.000 OA
ATOM     23  H   UNL     1      45.424   6.943  11.173  0.00  0.00    +0.000 HD
BRANCH  21  24
ATOM     24  C   UNL     1      44.778   4.644  12.058  0.00  0.00    +0.000 A 
ATOM     25  C   UNL     1      43.922   3.760  12.712  0.00  0.00    +0.000 A 
ATOM     26  S   UNL     1      43.299   2.534  11.697  0.00  0.00    +0.000 S 
ATOM     27  C   UNL     1      44.163   3.131  10.358  0.00  0.00    +0.000 A 
ATOM     28  N   UNL     1      44.125   2.498   9.154  0.00  0.00    +0.000 NA
ATOM     29  C   UNL     1      44.845   3.052   8.237  0.00  0.00    +0.000 A 
ATOM     30  N   UNL     1      45.578   4.195   8.404  0.00  0.00    +0.000 N 
ATOM     31  C   UNL     1      45.608   4.902   9.582  0.00  0.00    +0.000 A 
ATOM     32  O   UNL     1      46.194   5.966   9.669  0.00  0.00    +0.000 OA
ATOM     33  C   UNL     1      44.865   4.281  10.666  0.00  0.00    +0.000 A 
ATOM     34  H   UNL     1      46.089   4.603   7.633  0.00  0.00    +0.000 HD
ENDBRANCH  21  24
ENDBRANCH   2  20
TORSDOF 6
ENDMDL
MODEL 8
REMARK VINA RESULT:    -6.465      3.635      6.244
REMARK INTER + INTRA:         -10.010
REMARK INTER:                  -9.305
REMARK INTRA:                  -0.705
REMARK UNBOUND:                -1.277
REMARK  Name = 
REMARK  7 active torsions:
REMARK  status: ('A' for Active; 'I' for Inactive)
REMARK    1  A    between atoms: C_1  and  C_2
REMARK    2  A    between atoms: C_2  and  N_3
REMARK    3  A    between atoms: C_2  and  C_16
REMARK    4  A    between atoms: C_4  and  C_6
REMARK    5  A    between atoms: C_19  and  C_20
REMARK    6  A    between atoms: C_20  and  N_21
REMARK    7  A    between atoms: C_22  and  C_24
REMARK                            x       y       z     vdW  Elec       q    Type
REMARK                         _______ _______ _______ _____ _____    ______ ____
ROOT
ATOM      1  C   UNL     1      47.306   2.499  18.106  0.00  0.00    +0.000 C 
ATOM      2  C   UNL     1      48.255   3.696  17.982  0.00  0.00    +0.000 C 
ENDROOT
BRANCH   2   3
ATOM      3  C   UNL     1      48.004   4.416  16.653  0.00  0.00    +0.000 A 
ATOM      4  C   UNL     1      47.136   3.900  15.680  0.00  0.00    +0.000 A 
ATOM      5  C   UNL     1      46.853   4.617  14.504  0.00  0.00    +0.000 A 
ATOM      6  C   UNL     1      47.439   5.867  14.256  0.00  0.00    +0.000 A 
ATOM      7  C   UNL     1      48.328   6.371  15.214  0.00  0.00    +0.000 A 
ATOM      8  C   UNL     1      48.620   5.652  16.381  0.00  0.00    +0.000 A 
BRANCH   6   9
ATOM      9  C   UNL     1      47.141   6.667  13.008  0.00  0.00    +0.000 C 
BRANCH   9  10
ATOM     10  N   UNL     1      45.749   6.586  12.608  0.00  0.00    +0.000 N 
ATOM     11  C   UNL     1      45.378   6.092  11.373  0.00  0.00    +0.000 C 
ATOM     12  O   UNL     1      46.189   5.703  10.531  0.00  0.00    +0.000 OA
ATOM     13  H   UNL     1      45.041   6.649  13.322  0.00  0.00    +0.000 HD
BRANCH  11  14
ATOM     14  C   UNL     1      43.843   6.019  11.156  0.00  0.00    +0.000 C 
ATOM     15  C   UNL     1      43.347   4.667  10.664  0.00  0.00    +0.000 C 
ATOM     16  C   UNL     1      43.348   3.827  11.928  0.00  0.00    +0.000 C 
ATOM     17  C   UNL     1      43.063   4.823  13.044  0.00  0.00    +0.000 C 
ATOM     18  N   UNL     1      43.122   6.162  12.439  0.00  0.00    +0.000 NA
ATOM     19  H   UNL     1      43.668   6.779  13.047  0.00  0.00    +0.000 HD
ENDBRANCH  11  14
ENDBRANCH   9  10
ENDBRANCH   6   9
ENDBRANCH   2   3
BRANCH   2  20
ATOM     20  N   UNL     1      49.650   3.282  18.088  0.00  0.00    +0.000 N 
ATOM     21  C   UNL     1      50.241   2.365  17.256  0.00  0.00    +0.000 C 
ATOM     22  O   UNL     1      49.654   1.815  16.324  0.00  0.00    +0.000 OA
ATOM     23  H   UNL     1      50.062   3.372  19.015  0.00  0.00    +0.000 HD
BRANCH  21  24
ATOM     24  C   UNL     1      51.666   2.096  17.504  0.00  0.00    +0.000 A 
ATOM     25  C   UNL     1      52.136   0.786  17.568  0.00  0.00    +0.000 A 
ATOM     26  S   UNL     1      53.802   0.673  17.931  0.00  0.00    +0.000 S 
ATOM     27  C   UNL     1      53.948   2.366  18.031  0.00  0.00    +0.000 A 
ATOM     28  N   UNL     1      55.127   2.953  18.375  0.00  0.00    +0.000 NA
ATOM     29  C   UNL     1      55.084   4.242  18.431  0.00  0.00    +0.000 A 
ATOM     30  N   UNL     1      53.979   4.999  18.150  0.00  0.00    +0.000 N 
ATOM     31  C   UNL     1      52.781   4.459  17.748  0.00  0.00    +0.000 A 
ATOM     32  O   UNL     1      51.847   5.165  17.414  0.00  0.00    +0.000 OA
ATOM     33  C   UNL     1      52.761   3.006  17.733  0.00  0.00    +0.000 A 
ATOM     34  H   UNL     1      54.021   6.010  18.172  0.00  0.00    +0.000 HD
ENDBRANCH  21  24
ENDBRANCH   2  20
TORSDOF 6
ENDMDL
MODEL 9
REMARK VINA RESULT:    -6.313      2.902      3.918
REMARK INTER + INTRA:          -9.804
REMARK INTER:                  -8.495
REMARK INTRA:                  -1.309
REMARK UNBOUND:                -1.277
REMARK  Name = 
REMARK  7 active torsions:
REMARK  status: ('A' for Active; 'I' for Inactive)
REMARK    1  A    between atoms: C_1  and  C_2
REMARK    2  A    between atoms: C_2  and  N_3
REMARK    3  A    between atoms: C_2  and  C_16
REMARK    4  A    between atoms: C_4  and  C_6
REMARK    5  A    between atoms: C_19  and  C_20
REMARK    6  A    between atoms: C_20  and  N_21
REMARK    7  A    between atoms: C_22  and  C_24
REMARK                            x       y       z     vdW  Elec       q    Type
REMARK                         _______ _______ _______ _____ _____    ______ ____
ROOT
ATOM      1  C   UNL     1      50.127  10.142  14.180  0.00  0.00    +0.000 C 
ATOM      2  C   UNL     1      49.914   8.632  14.022  0.00  0.00    +0.000 C 
ENDROOT
BRANCH   2   3
ATOM      3  C   UNL     1      48.610   8.374  13.261  0.00  0.00    +0.000 A 
ATOM      4  C   UNL     1      48.457   7.280  12.396  0.00  0.00    +0.000 A 
ATOM      5  C   UNL     1      47.227   7.011  11.773  0.00  0.00    +0.000 A 
ATOM      6  C   UNL     1      46.111   7.836  11.982  0.00  0.00    +0.000 A 
ATOM      7  C   UNL     1      46.269   8.946  12.822  0.00  0.00    +0.000 A 
ATOM      8  C   UNL     1      47.499   9.220  13.435  0.00  0.00    +0.000 A 
BRANCH   6   9
ATOM      9  C   UNL     1      44.771   7.563  11.336  0.00  0.00    +0.000 C 
BRANCH   9  10
ATOM     10  N   UNL     1      44.628   6.187  10.901  0.00  0.00    +0.000 N 
ATOM     11  C   UNL     1      43.463   5.476  11.116  0.00  0.00    +0.000 C 
ATOM     12  O   UNL     1      42.483   5.948  11.695  0.00  0.00    +0.000 OA
ATOM     13  H   UNL     1      45.277   5.831  10.218  0.00  0.00    +0.000 HD
BRANCH  11  14
ATOM     14  C   UNL     1      43.476   4.045  10.516  0.00  0.00    +0.000 C 
ATOM     15  C   UNL     1      44.858   3.414  10.438  0.00  0.00    +0.000 C 
ATOM     16  C   UNL     1      45.106   2.967  11.867  0.00  0.00    +0.000 C 
ATOM     17  C   UNL     1      43.719   2.643  12.407  0.00  0.00    +0.000 C 
ATOM     18  N   UNL     1      42.755   3.099  11.395  0.00  0.00    +0.000 NA
ATOM     19  H   UNL     1      41.997   3.607  11.860  0.00  0.00    +0.000 HD
ENDBRANCH  11  14
ENDBRANCH   9  10
ENDBRANCH   6   9
ENDBRANCH   2   3
BRANCH   2  20
ATOM     20  N   UNL     1      49.898   7.958  15.316  0.00  0.00    +0.000 N 
ATOM     21  C   UNL     1      51.000   7.374  15.887  0.00  0.00    +0.000 C 
ATOM     22  O   UNL     1      52.117   7.378  15.370  0.00  0.00    +0.000 OA
ATOM     23  H   UNL     1      48.996   7.579  15.599  0.00  0.00    +0.000 HD
BRANCH  21  24
ATOM     24  C   UNL     1      50.792   6.765  17.210  0.00  0.00    +0.000 A 
ATOM     25  C   UNL     1      51.588   7.137  18.292  0.00  0.00    +0.000 A 
ATOM     26  S   UNL     1      51.243   6.274  19.726  0.00  0.00    +0.000 S 
ATOM     27  C   UNL     1      50.032   5.365  18.949  0.00  0.00    +0.000 A 
ATOM     28  N   UNL     1      49.360   4.380  19.604  0.00  0.00    +0.000 NA
ATOM     29  C   UNL     1      48.485   3.762  18.884  0.00  0.00    +0.000 A 
ATOM     30  N   UNL     1      48.201   4.054  17.577  0.00  0.00    +0.000 N 
ATOM     31  C   UNL     1      48.812   5.072  16.887  0.00  0.00    +0.000 A 
ATOM     32  O   UNL     1      48.469   5.367  15.756  0.00  0.00    +0.000 OA
ATOM     33  C   UNL     1      49.853   5.756  17.635  0.00  0.00    +0.000 A 
ATOM     34  H   UNL     1      47.473   3.559  17.079  0.00  0.00    +0.000 HD
ENDBRANCH  21  24
ENDBRANCH   2  20
TORSDOF 6
ENDMDL
