MODEL 1
REMARK VINA RESULT:    -8.125      0.000      0.000
REMARK INTER + INTRA:         -12.509
REMARK INTER:                 -11.450
REMARK INTRA:                  -1.059
REMARK UNBOUND:                -1.059
REMARK  Name = 
REMARK  7 active torsions:
REMARK  status: ('A' for Active; 'I' for Inactive)
REMARK    1  A    between atoms: C_2  and  C_19
REMARK    2  A    between atoms: N_3  and  C_4
REMARK    3  A    between atoms: C_4  and  C_5
REMARK    4  A    between atoms: C_8  and  C_9
REMARK    5  A    between atoms: C_9  and  C_10
REMARK    6  A    between atoms: C_10  and  N_11
REMARK    7  A    between atoms: N_11  and  C_12
REMARK                            x       y       z     vdW  Elec       q    Type
REMARK                         _______ _______ _______ _____ _____    ______ ____
ROOT
ATOM      1  C   UNL     1      46.798   7.126  12.912  0.00  0.00    +0.000 C 
ENDROOT
BRANCH   1   2
ATOM      2  C   UNL     1      46.169   5.995  12.144  0.00  0.00    +0.000 A 
ATOM      3  C   UNL     1      45.804   4.816  12.804  0.00  0.00    +0.000 A 
ATOM      4  C   UNL     1      45.172   3.775  12.117  0.00  0.00    +0.000 A 
ATOM      5  C   UNL     1      44.896   3.879  10.751  0.00  0.00    +0.000 A 
ATOM      6  C   UNL     1      45.316   5.043  10.081  0.00  0.00    +0.000 A 
ATOM      7  C   UNL     1      45.947   6.086  10.767  0.00  0.00    +0.000 A 
BRANCH   5   8
ATOM      8  C   UNL     1      44.232   2.779   9.954  0.00  0.00    +0.000 C 
BRANCH   8   9
ATOM      9  C   UNL     1      44.615   2.577   8.473  0.00  0.00    +0.000 C 
BRANCH   9  10
ATOM     10  N   UNL     1      45.752   1.676   8.216  0.00  0.00    +0.000 NA
ATOM     11  H   UNL     1      45.477   0.954   7.548  0.00  0.00    +0.000 HD
BRANCH  10  12
ATOM     12  C   UNL     1      46.916   2.426   7.700  0.00  0.00    +0.000 C 
ATOM     13  C   UNL     1      46.562   3.418   6.588  0.00  0.00    +0.000 C 
ATOM     14  C   UNL     1      46.944   2.693   5.314  0.00  0.00    +0.000 C 
ATOM     15  N   UNL     1      48.209   2.037   5.665  0.00  0.00    +0.000 NA
ATOM     16  C   UNL     1      47.975   1.519   7.023  0.00  0.00    +0.000 C 
ATOM     17  H   UNL     1      48.945   2.742   5.705  0.00  0.00    +0.000 HD
ENDBRANCH  10  12
ENDBRANCH   9  10
ENDBRANCH   8   9
ENDBRANCH   5   8
ENDBRANCH   1   2
BRANCH   1  20
ATOM     18  O   UNL     1      49.425   6.822  13.857  0.00  0.00    +0.000 OA
ATOM     19  C   UNL     1      48.492   6.627  14.631  0.00  0.00    +0.000 C 
ATOM     20  N   UNL     1      47.182   6.724  14.241  0.00  0.00    +0.000 N 
ATOM     21  H   UNL     1      46.447   6.713  14.940  0.00  0.00    +0.000 HD
BRANCH  19  22
ATOM     22  C   UNL     1      48.733   6.216  16.020  0.00  0.00    +0.000 A 
ATOM     23  C   UNL     1      49.375   7.088  16.889  0.00  0.00    +0.000 A 
ATOM     24  S   UNL     1      49.578   6.464  18.462  0.00  0.00    +0.000 S 
ATOM     25  C   UNL     1      48.774   5.021  18.052  0.00  0.00    +0.000 A 
ATOM     26  N   UNL     1      48.562   4.051  18.980  0.00  0.00    +0.000 NA
ATOM     27  C   UNL     1      47.907   3.028  18.541  0.00  0.00    +0.000 A 
ATOM     28  N   UNL     1      47.458   2.879  17.256  0.00  0.00    +0.000 N 
ATOM     29  C   UNL     1      47.724   3.795  16.267  0.00  0.00    +0.000 A 
ATOM     30  O   UNL     1      47.437   3.560  15.096  0.00  0.00    +0.000 OA
ATOM     31  C   UNL     1      48.398   4.996  16.720  0.00  0.00    +0.000 A 
ATOM     32  H   UNL     1      46.990   2.035  16.970  0.00  0.00    +0.000 HD
ENDBRANCH  19  22
ENDBRANCH   1  20
TORSDOF 7
ENDMDL
MODEL 2
REMARK VINA RESULT:    -7.141      2.083      2.854
REMARK INTER + INTRA:         -11.123
REMARK INTER:                 -10.204
REMARK INTRA:                  -0.919
REMARK UNBOUND:                -1.059
REMARK  Name = 
REMARK  7 active torsions:
REMARK  status: ('A' for Active; 'I' for Inactive)
REMARK    1  A    between atoms: C_2  and  C_19
REMARK    2  A    between atoms: N_3  and  C_4
REMARK    3  A    between atoms: C_4  and  C_5
REMARK    4  A    between atoms: C_8  and  C_9
REMARK    5  A    between atoms: C_9  and  C_10
REMARK    6  A    between atoms: C_10  and  N_11
REMARK    7  A    between atoms: N_11  and  C_12
REMARK                            x       y       z     vdW  Elec       q    Type
REMARK                         _______ _______ _______ _____ _____    ______ ____
ROOT
ATOM      1  C   UNL     1      48.167   6.781  13.861  0.00  0.00    +0.000 C 
ENDROOT
BRANCH   1   2
ATOM      2  C   UNL     1      47.081   6.156  13.028  0.00  0.00    +0.000 A 
ATOM      3  C   UNL     1      46.814   6.645  11.744  0.00  0.00    +0.000 A 
ATOM      4  C   UNL     1      45.843   6.045  10.935  0.00  0.00    +0.000 A 
ATOM      5  C   UNL     1      45.109   4.946  11.390  0.00  0.00    +0.000 A 
ATOM      6  C   UNL     1      45.344   4.494  12.702  0.00  0.00    +0.000 A 
ATOM      7  C   UNL     1      46.314   5.093  13.512  0.00  0.00    +0.000 A 
BRANCH   5   8
ATOM      8  C   UNL     1      44.036   4.269  10.567  0.00  0.00    +0.000 C 
BRANCH   8   9
ATOM      9  C   UNL     1      44.224   4.127   9.042  0.00  0.00    +0.000 C 
BRANCH   9  10
ATOM     10  N   UNL     1      44.533   2.774   8.551  0.00  0.00    +0.000 NA
ATOM     11  H   UNL     1      44.046   2.606   7.669  0.00  0.00    +0.000 HD
BRANCH  10  12
ATOM     12  C   UNL     1      45.988   2.595   8.367  0.00  0.00    +0.000 C 
ATOM     13  C   UNL     1      46.579   3.481   7.266  0.00  0.00    +0.000 C 
ATOM     14  C   UNL     1      46.700   2.552   6.074  0.00  0.00    +0.000 C 
ATOM     15  N   UNL     1      47.171   1.297   6.670  0.00  0.00    +0.000 NA
ATOM     16  C   UNL     1      46.375   1.169   7.902  0.00  0.00    +0.000 C 
ATOM     17  H   UNL     1      48.153   1.402   6.923  0.00  0.00    +0.000 HD
ENDBRANCH  10  12
ENDBRANCH   9  10
ENDBRANCH   8   9
ENDBRANCH   5   8
ENDBRANCH   1   2
BRANCH   1  20
ATOM     18  O   UNL     1      50.255   6.374  15.695  0.00  0.00    +0.000 OA
ATOM     19  C   UNL     1      49.095   6.310  16.095  0.00  0.00    +0.000 C 
ATOM     20  N   UNL     1      48.021   6.466  15.259  0.00  0.00    +0.000 N 
ATOM     21  H   UNL     1      47.090   6.565  15.649  0.00  0.00    +0.000 HD
BRANCH  19  22
ATOM     22  C   UNL     1      48.793   6.001  17.499  0.00  0.00    +0.000 A 
ATOM     23  C   UNL     1      49.037   4.724  17.985  0.00  0.00    +0.000 A 
ATOM     24  S   UNL     1      48.636   4.527  19.630  0.00  0.00    +0.000 S 
ATOM     25  C   UNL     1      48.163   6.156  19.765  0.00  0.00    +0.000 A 
ATOM     26  N   UNL     1      47.745   6.666  20.954  0.00  0.00    +0.000 NA
ATOM     27  C   UNL     1      47.453   7.924  20.920  0.00  0.00    +0.000 A 
ATOM     28  N   UNL     1      47.527   8.715  19.804  0.00  0.00    +0.000 N 
ATOM     29  C   UNL     1      47.861   8.222  18.566  0.00  0.00    +0.000 A 
ATOM     30  O   UNL     1      47.772   8.923  17.563  0.00  0.00    +0.000 OA
ATOM     31  C   UNL     1      48.265   6.829  18.559  0.00  0.00    +0.000 A 
ATOM     32  H   UNL     1      47.242   9.680  19.840  0.00  0.00    +0.000 HD
ENDBRANCH  19  22
ENDBRANCH   1  20
TORSDOF 7
ENDMDL
MODEL 3
REMARK VINA RESULT:    -6.979      1.661      2.119
REMARK INTER + INTRA:         -10.894
REMARK INTER:                  -9.955
REMARK INTRA:                  -0.938
REMARK UNBOUND:                -1.059
REMARK  Name = 
REMARK  7 active torsions:
REMARK  status: ('A' for Active; 'I' for Inactive)
REMARK    1  A    between atoms: C_2  and  C_19
REMARK    2  A    between atoms: N_3  and  C_4
REMARK    3  A    between atoms: C_4  and  C_5
REMARK    4  A    between atoms: C_8  and  C_9
REMARK    5  A    between atoms: C_9  and  C_10
REMARK    6  A    between atoms: C_10  and  N_11
REMARK    7  A    between atoms: N_11  and  C_12
REMARK                            x       y       z     vdW  Elec       q    Type
REMARK                         _______ _______ _______ _____ _____    ______ ____
ROOT
ATOM      1  C   UNL     1      48.430   6.802  13.775  0.00  0.00    +0.000 C 
ENDROOT
BRANCH   1   2
ATOM      2  C   UNL     1      47.301   6.134  13.037  0.00  0.00    +0.000 A 
ATOM      3  C   UNL     1      46.667   5.016  13.590  0.00  0.00    +0.000 A 
ATOM      4  C   UNL     1      45.583   4.413  12.944  0.00  0.00    +0.000 A 
ATOM      5  C   UNL     1      45.109   4.905  11.725  0.00  0.00    +0.000 A 
ATOM      6  C   UNL     1      45.786   5.995  11.147  0.00  0.00    +0.000 A 
ATOM      7  C   UNL     1      46.870   6.600  11.791  0.00  0.00    +0.000 A 
BRANCH   5   8
ATOM      8  C   UNL     1      43.954   4.283  10.974  0.00  0.00    +0.000 C 
BRANCH   8   9
ATOM      9  C   UNL     1      44.073   2.833  10.462  0.00  0.00    +0.000 C 
BRANCH   9  10
ATOM     10  N   UNL     1      45.355   2.471   9.834  0.00  0.00    +0.000 NA
ATOM     11  H   UNL     1      45.614   1.520  10.098  0.00  0.00    +0.000 HD
BRANCH  10  12
ATOM     12  C   UNL     1      45.275   2.584   8.362  0.00  0.00    +0.000 C 
ATOM     13  C   UNL     1      46.332   1.754   7.627  0.00  0.00    +0.000 C 
ATOM     14  C   UNL     1      47.403   2.764   7.265  0.00  0.00    +0.000 C 
ATOM     15  N   UNL     1      46.631   3.942   6.852  0.00  0.00    +0.000 NA
ATOM     16  C   UNL     1      45.544   4.018   7.843  0.00  0.00    +0.000 C 
ATOM     17  H   UNL     1      46.225   3.764   5.934  0.00  0.00    +0.000 HD
ENDBRANCH  10  12
ENDBRANCH   9  10
ENDBRANCH   8   9
ENDBRANCH   5   8
ENDBRANCH   1   2
BRANCH   1  20
ATOM     18  O   UNL     1      49.681   8.420  15.699  0.00  0.00    +0.000 OA
ATOM     19  C   UNL     1      48.903   7.547  16.075  0.00  0.00    +0.000 C 
ATOM     20  N   UNL     1      48.276   6.697  15.202  0.00  0.00    +0.000 N 
ATOM     21  H   UNL     1      47.525   6.101  15.533  0.00  0.00    +0.000 HD
BRANCH  19  22
ATOM     22  C   UNL     1      48.643   7.328  17.504  0.00  0.00    +0.000 A 
ATOM     23  C   UNL     1      48.150   8.370  18.277  0.00  0.00    +0.000 A 
ATOM     24  S   UNL     1      47.902   7.954  19.911  0.00  0.00    +0.000 S 
ATOM     25  C   UNL     1      48.403   6.352  19.637  0.00  0.00    +0.000 A 
ATOM     26  N   UNL     1      48.388   5.433  20.638  0.00  0.00    +0.000 NA
ATOM     27  C   UNL     1      48.759   4.248  20.280  0.00  0.00    +0.000 A 
ATOM     28  N   UNL     1      49.156   3.902  19.016  0.00  0.00    +0.000 N 
ATOM     29  C   UNL     1      49.268   4.816  17.997  0.00  0.00    +0.000 A 
ATOM     30  O   UNL     1      49.769   4.503  16.921  0.00  0.00    +0.000 OA
ATOM     31  C   UNL     1      48.800   6.149  18.325  0.00  0.00    +0.000 A 
ATOM     32  H   UNL     1      49.473   2.967  18.816  0.00  0.00    +0.000 HD
ENDBRANCH  19  22
ENDBRANCH   1  20
TORSDOF 7
ENDMDL
MODEL 4
REMARK VINA RESULT:    -6.924      4.437      9.045
REMARK INTER + INTRA:         -10.816
REMARK INTER:                 -10.121
REMARK INTRA:                  -0.695
REMARK UNBOUND:                -1.059
REMARK  Name = 
REMARK  7 active torsions:
REMARK  status: ('A' for Active; 'I' for Inactive)
REMARK    1  A    between atoms: C_2  and  C_19
REMARK    2  A    between atoms: N_3  and  C_4
REMARK    3  A    between atoms: C_4  and  C_5
REMARK    4  A    between atoms: C_8  and  C_9
REMARK    5  A    between atoms: C_9  and  C_10
REMARK    6  A    between atoms: C_10  and  N_11
REMARK    7  A    between atoms: N_11  and  C_12
REMARK                            x       y       z     vdW  Elec       q    Type
REMARK                         _______ _______ _______ _____ _____    ______ ____
ROOT
ATOM      1  C   UNL     1      47.197   3.372  16.835  0.00  0.00    +0.000 C 
ENDROOT
BRANCH   1   2
ATOM      2  C   UNL     1      48.667   3.486  17.136  0.00  0.00    +0.000 A 
ATOM      3  C   UNL     1      49.216   4.723  17.495  0.00  0.00    +0.000 A 
ATOM      4  C   UNL     1      50.569   4.840  17.827  0.00  0.00    +0.000 A 
ATOM      5  C   UNL     1      51.412   3.726  17.803  0.00  0.00    +0.000 A 
ATOM      6  C   UNL     1      50.868   2.496  17.388  0.00  0.00    +0.000 A 
ATOM      7  C   UNL     1      49.515   2.378  17.055  0.00  0.00    +0.000 A 
BRANCH   5   8
ATOM      8  C   UNL     1      52.886   3.795  18.135  0.00  0.00    +0.000 C 
BRANCH   8   9
ATOM      9  C   UNL     1      53.793   2.588  17.822  0.00  0.00    +0.000 C 
BRANCH   9  10
ATOM     10  N   UNL     1      53.771   1.489  18.802  0.00  0.00    +0.000 NA
ATOM     11  H   UNL     1      52.843   1.065  18.826  0.00  0.00    +0.000 HD
BRANCH  10  12
ATOM     12  C   UNL     1      54.786   0.466  18.475  0.00  0.00    +0.000 C 
ATOM     13  C   UNL     1      55.290   0.544  17.031  0.00  0.00    +0.000 C 
ATOM     14  C   UNL     1      54.515  -0.543  16.313  0.00  0.00    +0.000 C 
ATOM     15  N   UNL     1      54.504  -1.646  17.281  0.00  0.00    +0.000 NA
ATOM     16  C   UNL     1      54.246  -0.983  18.571  0.00  0.00    +0.000 C 
ATOM     17  H   UNL     1      55.432  -2.068  17.310  0.00  0.00    +0.000 HD
ENDBRANCH  10  12
ENDBRANCH   9  10
ENDBRANCH   8   9
ENDBRANCH   5   8
ENDBRANCH   1   2
BRANCH   1  20
ATOM     18  O   UNL     1      47.284   3.105  14.041  0.00  0.00    +0.000 OA
ATOM     19  C   UNL     1      46.817   4.134  14.524  0.00  0.00    +0.000 C 
ATOM     20  N   UNL     1      46.767   4.354  15.875  0.00  0.00    +0.000 N 
ATOM     21  H   UNL     1      46.235   5.138  16.237  0.00  0.00    +0.000 HD
BRANCH  19  22
ATOM     22  C   UNL     1      46.335   5.223  13.664  0.00  0.00    +0.000 A 
ATOM     23  C   UNL     1      47.151   6.321  13.429  0.00  0.00    +0.000 A 
ATOM     24  S   UNL     1      46.447   7.494  12.412  0.00  0.00    +0.000 S 
ATOM     25  C   UNL     1      45.042   6.555  12.211  0.00  0.00    +0.000 A 
ATOM     26  N   UNL     1      44.032   6.973  11.403  0.00  0.00    +0.000 NA
ATOM     27  C   UNL     1      43.044   6.145  11.314  0.00  0.00    +0.000 A 
ATOM     28  N   UNL     1      42.967   4.946  11.970  0.00  0.00    +0.000 N 
ATOM     29  C   UNL     1      43.924   4.525  12.861  0.00  0.00    +0.000 A 
ATOM     30  O   UNL     1      43.752   3.519  13.543  0.00  0.00    +0.000 OA
ATOM     31  C   UNL     1      45.089   5.384  12.948  0.00  0.00    +0.000 A 
ATOM     32  H   UNL     1      42.147   4.368  11.888  0.00  0.00    +0.000 HD
ENDBRANCH  19  22
ENDBRANCH   1  20
TORSDOF 7
ENDMDL
MODEL 5
REMARK VINA RESULT:    -6.815      3.383      8.019
REMARK INTER + INTRA:         -10.663
REMARK INTER:                  -9.561
REMARK INTRA:                  -1.102
REMARK UNBOUND:                -1.059
REMARK  Name = 
REMARK  7 active torsions:
REMARK  status: ('A' for Active; 'I' for Inactive)
REMARK    1  A    between atoms: C_2  and  C_19
REMARK    2  A    between atoms: N_3  and  C_4
REMARK    3  A    between atoms: C_4  and  C_5
REMARK    4  A    between atoms: C_8  and  C_9
REMARK    5  A    between atoms: C_9  and  C_10
REMARK    6  A    between atoms: C_10  and  N_11
REMARK    7  A    between atoms: N_11  and  C_12
REMARK                            x       y       z     vdW  Elec       q    Type
REMARK                         _______ _______ _______ _____ _____    ______ ____
ROOT
ATOM      1  C   UNL     1      48.727   7.746  12.276  0.00  0.00    +0.000 C 
ENDROOT
BRANCH   1   2
ATOM      2  C   UNL     1      49.113   7.410  13.691  0.00  0.00    +0.000 A 
ATOM      3  C   UNL     1      48.204   6.752  14.528  0.00  0.00    +0.000 A 
ATOM      4  C   UNL     1      48.562   6.386  15.830  0.00  0.00    +0.000 A 
ATOM      5  C   UNL     1      49.834   6.674  16.333  0.00  0.00    +0.000 A 
ATOM      6  C   UNL     1      50.724   7.385  15.506  0.00  0.00    +0.000 A 
ATOM      7  C   UNL     1      50.368   7.752  14.204  0.00  0.00    +0.000 A 
BRANCH   5   8
ATOM      8  C   UNL     1      50.269   6.319  17.736  0.00  0.00    +0.000 C 
BRANCH   8   9
ATOM      9  C   UNL     1      50.726   4.879  18.049  0.00  0.00    +0.000 C 
BRANCH   9  10
ATOM     10  N   UNL     1      50.447   3.872  17.011  0.00  0.00    +0.000 NA
ATOM     11  H   UNL     1      51.305   3.372  16.775  0.00  0.00    +0.000 HD
BRANCH  10  12
ATOM     12  C   UNL     1      49.413   2.917  17.463  0.00  0.00    +0.000 C 
ATOM     13  C   UNL     1      48.395   2.559  16.377  0.00  0.00    +0.000 C 
ATOM     14  C   UNL     1      47.194   3.426  16.701  0.00  0.00    +0.000 C 
ATOM     15  N   UNL     1      47.117   3.363  18.164  0.00  0.00    +0.000 NA
ATOM     16  C   UNL     1      48.520   3.476  18.598  0.00  0.00    +0.000 C 
ATOM     17  H   UNL     1      46.763   2.446  18.436  0.00  0.00    +0.000 HD
ENDBRANCH  10  12
ENDBRANCH   9  10
ENDBRANCH   8   9
ENDBRANCH   5   8
ENDBRANCH   1   2
BRANCH   1  20
ATOM     18  O   UNL     1      45.966   7.943  11.809  0.00  0.00    +0.000 OA
ATOM     19  C   UNL     1      46.551   6.917  11.471  0.00  0.00    +0.000 C 
ATOM     20  N   UNL     1      47.890   6.730  11.691  0.00  0.00    +0.000 N 
ATOM     21  H   UNL     1      48.366   5.945  11.260  0.00  0.00    +0.000 HD
BRANCH  19  22
ATOM     22  C   UNL     1      45.825   5.797  10.858  0.00  0.00    +0.000 A 
ATOM     23  C   UNL     1      45.952   5.565   9.495  0.00  0.00    +0.000 A 
ATOM     24  S   UNL     1      45.048   4.231   8.940  0.00  0.00    +0.000 S 
ATOM     25  C   UNL     1      44.490   3.886  10.509  0.00  0.00    +0.000 A 
ATOM     26  N   UNL     1      43.689   2.813  10.747  0.00  0.00    +0.000 NA
ATOM     27  C   UNL     1      43.372   2.650  11.988  0.00  0.00    +0.000 A 
ATOM     28  N   UNL     1      43.770   3.468  13.011  0.00  0.00    +0.000 N 
ATOM     29  C   UNL     1      44.507   4.609  12.805  0.00  0.00    +0.000 A 
ATOM     30  O   UNL     1      44.718   5.398  13.722  0.00  0.00    +0.000 OA
ATOM     31  C   UNL     1      44.948   4.805  11.438  0.00  0.00    +0.000 A 
ATOM     32  H   UNL     1      43.449   3.306  13.952  0.00  0.00    +0.000 HD
ENDBRANCH  19  22
ENDBRANCH   1  20
TORSDOF 7
ENDMDL
MODEL 6
REMARK VINA RESULT:    -6.806      3.433      5.244
REMARK INTER + INTRA:         -10.651
REMARK INTER:                  -9.587
REMARK INTRA:                  -1.064
REMARK UNBOUND:                -1.059
REMARK  Name = 
REMARK  7 active torsions:
REMARK  status: ('A' for Active; 'I' for Inactive)
REMARK    1  A    between atoms: C_2  and  C_19
REMARK    2  A    between atoms: N_3  and  C_4
REMARK    3  A    between atoms: C_4  and  C_5
REMARK    4  A    between atoms: C_8  and  C_9
REMARK    5  A    between atoms: C_9  and  C_10
REMARK    6  A    between atoms: C_10  and  N_11
REMARK    7  A    between atoms: N_11  and  C_12
REMARK                            x       y       z     vdW  Elec       q    Type
REMARK                         _______ _______ _______ _____ _____    ______ ____
ROOT
ATOM      1  C   UNL     1      47.959   4.575  16.940  0.00  0.00    +0.000 C 
ENDROOT
BRANCH   1   2
ATOM      2  C   UNL     1      47.660   5.109  15.565  0.00  0.00    +0.000 A 
ATOM      3  C   UNL     1      48.281   6.281  15.118  0.00  0.00    +0.000 A 
ATOM      4  C   UNL     1      48.055   6.765  13.826  0.00  0.00    +0.000 A 
ATOM      5  C   UNL     1      47.198   6.096  12.948  0.00  0.00    +0.000 A 
ATOM      6  C   UNL     1      46.534   4.949  13.421  0.00  0.00    +0.000 A 
ATOM      7  C   UNL     1      46.758   4.464  14.714  0.00  0.00    +0.000 A 
BRANCH   5   8
ATOM      8  C   UNL     1      46.903   6.582  11.547  0.00  0.00    +0.000 C 
BRANCH   8   9
ATOM      9  C   UNL     1      45.660   6.050  10.804  0.00  0.00    +0.000 C 
BRANCH   9  10
ATOM     10  N   UNL     1      44.371   6.652  11.184  0.00  0.00    +0.000 NA
ATOM     11  H   UNL     1      44.199   7.485  10.620  0.00  0.00    +0.000 HD
BRANCH  10  12
ATOM     12  C   UNL     1      43.264   5.688  11.012  0.00  0.00    +0.000 C 
ATOM     13  C   UNL     1      42.669   5.198  12.335  0.00  0.00    +0.000 C 
ATOM     14  C   UNL     1      43.311   3.841  12.546  0.00  0.00    +0.000 C 
ATOM     15  N   UNL     1      43.309   3.254  11.202  0.00  0.00    +0.000 NA
ATOM     16  C   UNL     1      43.703   4.369  10.326  0.00  0.00    +0.000 C 
ATOM     17  H   UNL     1      42.357   2.973  10.967  0.00  0.00    +0.000 HD
ENDBRANCH  10  12
ENDBRANCH   9  10
ENDBRANCH   8   9
ENDBRANCH   5   8
ENDBRANCH   1   2
BRANCH   1  20
ATOM     18  O   UNL     1      49.521   4.916  19.248  0.00  0.00    +0.000 OA
ATOM     19  C   UNL     1      50.030   4.391  18.261  0.00  0.00    +0.000 C 
ATOM     20  N   UNL     1      49.345   4.216  17.088  0.00  0.00    +0.000 N 
ATOM     21  H   UNL     1      49.744   3.640  16.354  0.00  0.00    +0.000 HD
BRANCH  19  22
ATOM     22  C   UNL     1      51.437   3.969  18.269  0.00  0.00    +0.000 A 
ATOM     23  C   UNL     1      52.410   4.845  18.728  0.00  0.00    +0.000 A 
ATOM     24  S   UNL     1      53.989   4.206  18.673  0.00  0.00    +0.000 S 
ATOM     25  C   UNL     1      53.425   2.716  18.075  0.00  0.00    +0.000 A 
ATOM     26  N   UNL     1      54.280   1.685  17.846  0.00  0.00    +0.000 NA
ATOM     27  C   UNL     1      53.710   0.604  17.428  0.00  0.00    +0.000 A 
ATOM     28  N   UNL     1      52.367   0.463  17.206  0.00  0.00    +0.000 N 
ATOM     29  C   UNL     1      51.479   1.503  17.343  0.00  0.00    +0.000 A 
ATOM     30  O   UNL     1      50.309   1.383  16.992  0.00  0.00    +0.000 OA
ATOM     31  C   UNL     1      52.054   2.723  17.875  0.00  0.00    +0.000 A 
ATOM     32  H   UNL     1      51.995  -0.398  16.839  0.00  0.00    +0.000 HD
ENDBRANCH  19  22
ENDBRANCH   1  20
TORSDOF 7
ENDMDL
MODEL 7
REMARK VINA RESULT:    -6.745      2.940      8.523
REMARK INTER + INTRA:         -10.564
REMARK INTER:                  -9.184
REMARK INTRA:                  -1.380
REMARK UNBOUND:                -1.059
REMARK  Name = 
REMARK  7 active torsions:
REMARK  status: ('A' for Active; 'I' for Inactive)
REMARK    1  A    between atoms: C_2  and  C_19
REMARK    2  A    between atoms: N_3  and  C_4
REMARK    3  A    between atoms: C_4  and  C_5
REMARK    4  A    between atoms: C_8  and  C_9
REMARK    5  A    between atoms: C_9  and  C_10
REMARK    6  A    between atoms: C_10  and  N_11
REMARK    7  A    between atoms: N_11  and  C_12
REMARK                            x       y       z     vdW  Elec       q    Type
REMARK                         _______ _______ _______ _____ _____    ______ ____
ROOT
ATOM      1  C   UNL     1      47.713   7.931  11.816  0.00  0.00    +0.000 C 
ENDROOT
BRANCH   1   2
ATOM      2  C   UNL     1      48.279   8.079  13.202  0.00  0.00    +0.000 A 
ATOM      3  C   UNL     1      47.679   8.954  14.115  0.00  0.00    +0.000 A 
ATOM      4  C   UNL     1      48.159   9.067  15.423  0.00  0.00    +0.000 A 
ATOM      5  C   UNL     1      49.256   8.316  15.853  0.00  0.00    +0.000 A 
ATOM      6  C   UNL     1      49.890   7.479  14.915  0.00  0.00    +0.000 A 
ATOM      7  C   UNL     1      49.411   7.365  13.606  0.00  0.00    +0.000 A 
BRANCH   5   8
ATOM      8  C   UNL     1      49.830   8.410  17.249  0.00  0.00    +0.000 C 
BRANCH   8   9
ATOM      9  C   UNL     1      49.205   7.574  18.385  0.00  0.00    +0.000 C 
BRANCH   9  10
ATOM     10  N   UNL     1      48.152   6.625  17.987  0.00  0.00    +0.000 NA
ATOM     11  H   UNL     1      47.684   6.959  17.143  0.00  0.00    +0.000 HD
BRANCH  10  12
ATOM     12  C   UNL     1      48.713   5.278  17.753  0.00  0.00    +0.000 C 
ATOM     13  C   UNL     1      48.076   4.547  16.567  0.00  0.00    +0.000 C 
ATOM     14  C   UNL     1      47.079   3.604  17.211  0.00  0.00    +0.000 C 
ATOM     15  N   UNL     1      47.797   3.105  18.388  0.00  0.00    +0.000 NA
ATOM     16  C   UNL     1      48.466   4.300  18.929  0.00  0.00    +0.000 C 
ATOM     17  H   UNL     1      48.509   2.442  18.083  0.00  0.00    +0.000 HD
ENDBRANCH  10  12
ENDBRANCH   9  10
ENDBRANCH   8   9
ENDBRANCH   5   8
ENDBRANCH   1   2
BRANCH   1  20
ATOM     18  O   UNL     1      44.932   7.608  12.024  0.00  0.00    +0.000 OA
ATOM     19  C   UNL     1      45.622   6.630  11.750  0.00  0.00    +0.000 C 
ATOM     20  N   UNL     1      46.987   6.697  11.660  0.00  0.00    +0.000 N 
ATOM     21  H   UNL     1      47.506   5.913  11.278  0.00  0.00    +0.000 HD
BRANCH  19  22
ATOM     22  C   UNL     1      45.017   5.305  11.558  0.00  0.00    +0.000 A 
ATOM     23  C   UNL     1      44.326   4.712  12.606  0.00  0.00    +0.000 A 
ATOM     24  S   UNL     1      43.684   3.180  12.224  0.00  0.00    +0.000 S 
ATOM     25  C   UNL     1      44.268   3.272  10.629  0.00  0.00    +0.000 A 
ATOM     26  N   UNL     1      44.020   2.279   9.734  0.00  0.00    +0.000 NA
ATOM     27  C   UNL     1      44.490   2.498   8.551  0.00  0.00    +0.000 A 
ATOM     28  N   UNL     1      45.198   3.611   8.184  0.00  0.00    +0.000 N 
ATOM     29  C   UNL     1      45.545   4.597   9.076  0.00  0.00    +0.000 A 
ATOM     30  O   UNL     1      46.306   5.504   8.750  0.00  0.00    +0.000 OA
ATOM     31  C   UNL     1      44.985   4.436  10.404  0.00  0.00    +0.000 A 
ATOM     32  H   UNL     1      45.573   3.698   7.254  0.00  0.00    +0.000 HD
ENDBRANCH  19  22
ENDBRANCH   1  20
TORSDOF 7
ENDMDL
MODEL 8
REMARK VINA RESULT:    -6.233      3.855      8.978
REMARK INTER + INTRA:          -9.843
REMARK INTER:                  -8.231
REMARK INTRA:                  -1.612
REMARK UNBOUND:                -1.059
REMARK  Name = 
REMARK  7 active torsions:
REMARK  status: ('A' for Active; 'I' for Inactive)
REMARK    1  A    between atoms: C_2  and  C_19
REMARK    2  A    between atoms: N_3  and  C_4
REMARK    3  A    between atoms: C_4  and  C_5
REMARK    4  A    between atoms: C_8  and  C_9
REMARK    5  A    between atoms: C_9  and  C_10
REMARK    6  A    between atoms: C_10  and  N_11
REMARK    7  A    between atoms: N_11  and  C_12
REMARK                            x       y       z     vdW  Elec       q    Type
REMARK                         _______ _______ _______ _____ _____    ______ ____
ROOT
ATOM      1  C   UNL     1      48.213   8.899  14.418  0.00  0.00    +0.000 C 
ENDROOT
BRANCH   1   2
ATOM      2  C   UNL     1      48.694   8.654  15.823  0.00  0.00    +0.000 A 
ATOM      3  C   UNL     1      49.882   7.948  16.043  0.00  0.00    +0.000 A 
ATOM      4  C   UNL     1      50.372   7.754  17.338  0.00  0.00    +0.000 A 
ATOM      5  C   UNL     1      49.685   8.253  18.448  0.00  0.00    +0.000 A 
ATOM      6  C   UNL     1      48.463   8.914  18.224  0.00  0.00    +0.000 A 
ATOM      7  C   UNL     1      47.971   9.109  16.929  0.00  0.00    +0.000 A 
BRANCH   5   8
ATOM      8  C   UNL     1      50.158   8.058  19.871  0.00  0.00    +0.000 C 
BRANCH   8   9
ATOM      9  C   UNL     1      49.576   6.904  20.714  0.00  0.00    +0.000 C 
BRANCH   9  10
ATOM     10  N   UNL     1      49.821   5.544  20.205  0.00  0.00    +0.000 NA
ATOM     11  H   UNL     1      50.401   5.026  20.866  0.00  0.00    +0.000 HD
BRANCH  10  12
ATOM     12  C   UNL     1      48.549   4.826  19.978  0.00  0.00    +0.000 C 
ATOM     13  C   UNL     1      48.513   4.046  18.660  0.00  0.00    +0.000 C 
ATOM     14  C   UNL     1      47.732   4.946  17.724  0.00  0.00    +0.000 C 
ATOM     15  N   UNL     1      46.657   5.467  18.575  0.00  0.00    +0.000 NA
ATOM     16  C   UNL     1      47.328   5.770  19.849  0.00  0.00    +0.000 C 
ATOM     17  H   UNL     1      45.974   4.726  18.733  0.00  0.00    +0.000 HD
ENDBRANCH  10  12
ENDBRANCH   9  10
ENDBRANCH   8   9
ENDBRANCH   5   8
ENDBRANCH   1   2
BRANCH   1  20
ATOM     18  O   UNL     1      48.819   6.619  12.896  0.00  0.00    +0.000 OA
ATOM     19  C   UNL     1      47.661   6.791  13.268  0.00  0.00    +0.000 C 
ATOM     20  N   UNL     1      47.278   7.892  13.987  0.00  0.00    +0.000 N 
ATOM     21  H   UNL     1      46.356   7.921  14.409  0.00  0.00    +0.000 HD
BRANCH  19  22
ATOM     22  C   UNL     1      46.600   5.842  12.906  0.00  0.00    +0.000 A 
ATOM     23  C   UNL     1      46.746   4.500  13.227  0.00  0.00    +0.000 A 
ATOM     24  S   UNL     1      45.430   3.532  12.741  0.00  0.00    +0.000 S 
ATOM     25  C   UNL     1      44.595   4.880  12.124  0.00  0.00    +0.000 A 
ATOM     26  N   UNL     1      43.352   4.748  11.590  0.00  0.00    +0.000 NA
ATOM     27  C   UNL     1      42.822   5.858  11.195  0.00  0.00    +0.000 A 
ATOM     28  N   UNL     1      43.426   7.084  11.271  0.00  0.00    +0.000 N 
ATOM     29  C   UNL     1      44.713   7.250  11.724  0.00  0.00    +0.000 A 
ATOM     30  O   UNL     1      45.277   8.338  11.638  0.00  0.00    +0.000 OA
ATOM     31  C   UNL     1      45.332   6.046  12.244  0.00  0.00    +0.000 A 
ATOM     32  H   UNL     1      42.972   7.904  10.904  0.00  0.00    +0.000 HD
ENDBRANCH  19  22
ENDBRANCH   1  20
TORSDOF 7
ENDMDL
MODEL 9
REMARK VINA RESULT:    -5.836      3.541      5.425
REMARK INTER + INTRA:          -9.284
REMARK INTER:                  -8.221
REMARK INTRA:                  -1.063
REMARK UNBOUND:                -1.059
REMARK  Name = 
REMARK  7 active torsions:
REMARK  status: ('A' for Active; 'I' for Inactive)
REMARK    1  A    between atoms: C_2  and  C_19
REMARK    2  A    between atoms: N_3  and  C_4
REMARK    3  A    between atoms: C_4  and  C_5
REMARK    4  A    between atoms: C_8  and  C_9
REMARK    5  A    between atoms: C_9  and  C_10
REMARK    6  A    between atoms: C_10  and  N_11
REMARK    7  A    between atoms: N_11  and  C_12
REMARK                            x       y       z     vdW  Elec       q    Type
REMARK                         _______ _______ _______ _____ _____    ______ ____
ROOT
ATOM      1  C   UNL     1      49.596   7.725  17.461  0.00  0.00    +0.000 C 
ENDROOT
BRANCH   1   2
ATOM      2  C   UNL     1      48.950   7.756  16.102  0.00  0.00    +0.000 A 
ATOM      3  C   UNL     1      48.889   6.591  15.328  0.00  0.00    +0.000 A 
ATOM      4  C   UNL     1      48.248   6.587  14.086  0.00  0.00    +0.000 A 
ATOM      5  C   UNL     1      47.657   7.748  13.579  0.00  0.00    +0.000 A 
ATOM      6  C   UNL     1      47.771   8.929  14.336  0.00  0.00    +0.000 A 
ATOM      7  C   UNL     1      48.412   8.935  15.579  0.00  0.00    +0.000 A 
BRANCH   5   8
ATOM      8  C   UNL     1      46.967   7.808  12.235  0.00  0.00    +0.000 C 
BRANCH   8   9
ATOM      9  C   UNL     1      46.057   6.642  11.796  0.00  0.00    +0.000 C 
BRANCH   9  10
ATOM     10  N   UNL     1      44.671   6.679  12.294  0.00  0.00    +0.000 NA
ATOM     11  H   UNL     1      44.054   7.055  11.573  0.00  0.00    +0.000 HD
BRANCH  10  12
ATOM     12  C   UNL     1      44.216   5.332  12.697  0.00  0.00    +0.000 C 
ATOM     13  C   UNL     1      44.977   4.197  12.005  0.00  0.00    +0.000 C 
ATOM     14  C   UNL     1      44.049   3.760  10.889  0.00  0.00    +0.000 C 
ATOM     15  N   UNL     1      42.724   3.802  11.516  0.00  0.00    +0.000 NA
ATOM     16  C   UNL     1      42.745   5.042  12.309  0.00  0.00    +0.000 C 
ATOM     17  H   UNL     1      42.635   3.009  12.151  0.00  0.00    +0.000 HD
ENDBRANCH  10  12
ENDBRANCH   9  10
ENDBRANCH   8   9
ENDBRANCH   5   8
ENDBRANCH   1   2
BRANCH   1  20
ATOM     18  O   UNL     1      50.316   6.488  19.877  0.00  0.00    +0.000 OA
ATOM     19  C   UNL     1      50.763   6.037  18.825  0.00  0.00    +0.000 C 
ATOM     20  N   UNL     1      50.485   6.601  17.608  0.00  0.00    +0.000 N 
ATOM     21  H   UNL     1      50.739   6.112  16.757  0.00  0.00    +0.000 HD
BRANCH  19  22
ATOM     22  C   UNL     1      51.679   4.889  18.821  0.00  0.00    +0.000 A 
ATOM     23  C   UNL     1      52.886   4.975  19.502  0.00  0.00    +0.000 A 
ATOM     24  S   UNL     1      53.833   3.562  19.402  0.00  0.00    +0.000 S 
ATOM     25  C   UNL     1      52.643   2.765  18.483  0.00  0.00    +0.000 A 
ATOM     26  N   UNL     1      52.810   1.473  18.093  0.00  0.00    +0.000 NA
ATOM     27  C   UNL     1      51.813   0.983  17.433  0.00  0.00    +0.000 A 
ATOM     28  N   UNL     1      50.672   1.670  17.115  0.00  0.00    +0.000 N 
ATOM     29  C   UNL     1      50.499   3.000  17.415  0.00  0.00    +0.000 A 
ATOM     30  O   UNL     1      49.532   3.622  16.984  0.00  0.00    +0.000 OA
ATOM     31  C   UNL     1      51.559   3.583  18.214  0.00  0.00    +0.000 A 
ATOM     32  H   UNL     1      49.951   1.238  16.561  0.00  0.00    +0.000 HD
ENDBRANCH  19  22
ENDBRANCH   1  20
TORSDOF 7
ENDMDL
