MODEL 1
REMARK VINA RESULT:    -7.449      0.000      0.000
REMARK INTER + INTRA:         -11.859
REMARK INTER:                 -10.497
REMARK INTRA:                  -1.362
REMARK UNBOUND:                -1.362
REMARK  Name = 
REMARK  9 active torsions:
REMARK  status: ('A' for Active; 'I' for Inactive)
REMARK    1  A    between atoms: C_1  and  O_2
REMARK    2  A    between atoms: O_2  and  C_3
REMARK    3  A    between atoms: C_10  and  C_11
REMARK    4  A    between atoms: N_13  and  C_14
REMARK    5  A    between atoms: C_14  and  C_15
REMARK    6  A    between atoms: C_18  and  N_19
REMARK    7  A    between atoms: N_19  and  C_20
REMARK    8  A    between atoms: C_20  and  C_21
REMARK    9  A    between atoms: N_25  and  C_26
REMARK                            x       y       z     vdW  Elec       q    Type
REMARK                         _______ _______ _______ _____ _____    ______ ____
ROOT
ATOM      1  C   UNL     1      47.974   8.637  14.354  0.00  0.00    +0.000 C 
ENDROOT
BRANCH   1   2
ATOM      2  C   UNL     1      47.101   8.078  13.261  0.00  0.00    +0.000 A 
ATOM      3  C   UNL     1      47.590   7.093  12.399  0.00  0.00    +0.000 A 
ATOM      4  C   UNL     1      46.770   6.539  11.407  0.00  0.00    +0.000 A 
ATOM      5  C   UNL     1      45.457   6.978  11.214  0.00  0.00    +0.000 A 
ATOM      6  C   UNL     1      44.986   7.992  12.061  0.00  0.00    +0.000 A 
ATOM      7  C   UNL     1      45.795   8.541  13.066  0.00  0.00    +0.000 A 
BRANCH   5   8
ATOM      8  N   UNL     1      44.564   6.378  10.325  0.00  0.00    +0.000 N 
ATOM      9  H   UNL     1      44.835   6.479   9.349  0.00  0.00    +0.000 HD
BRANCH   8  10
ATOM     10  C   UNL     1      43.901   5.125  10.668  0.00  0.00    +0.000 C 
BRANCH  10  11
ATOM     11  C   UNL     1      44.126   4.046   9.595  0.00  0.00    +0.000 C 
ATOM     12  C   UNL     1      44.275   2.645  10.206  0.00  0.00    +0.000 C 
ATOM     13  C   UNL     1      44.623   1.626   9.125  0.00  0.00    +0.000 C 
ATOM     14  C   UNL     1      45.854   2.057   8.329  0.00  0.00    +0.000 C 
ATOM     15  N   UNL     1      45.664   3.391   7.741  0.00  0.00    +0.000 NA
ATOM     16  C   UNL     1      46.843   3.769   6.960  0.00  0.00    +0.000 C 
ATOM     17  C   UNL     1      45.387   4.396   8.777  0.00  0.00    +0.000 C 
ENDBRANCH  10  11
ENDBRANCH   8  10
ENDBRANCH   5   8
ENDBRANCH   1   2
BRANCH   1  20
ATOM     18  C   UNL     1      49.345   6.943  15.495  0.00  0.00    +0.000 C 
ATOM     19  O   UNL     1      50.269   7.095  14.697  0.00  0.00    +0.000 OA
ATOM     20  N   UNL     1      48.189   7.661  15.393  0.00  0.00    +0.000 N 
ATOM     21  H   UNL     1      47.421   7.483  16.023  0.00  0.00    +0.000 HD
BRANCH  18  29
ATOM     22  C   UNL     1      47.397   4.282  16.485  0.00  0.00    +0.000 A 
ATOM     23  N   UNL     1      46.825   3.219  17.087  0.00  0.00    +0.000 NA
ATOM     24  C   UNL     1      47.407   2.732  18.185  0.00  0.00    +0.000 A 
ATOM     25  N   UNL     1      48.515   3.179  18.771  0.00  0.00    +0.000 NA
ATOM     26  C   UNL     1      49.055   4.234  18.136  0.00  0.00    +0.000 A 
ATOM     27  S   UNL     1      50.475   4.937  18.745  0.00  0.00    +0.000 S 
ATOM     28  C   UNL     1      50.495   6.094  17.501  0.00  0.00    +0.000 A 
ATOM     29  C   UNL     1      49.438   5.977  16.605  0.00  0.00    +0.000 A 
ATOM     30  C   UNL     1      48.578   4.856  16.987  0.00  0.00    +0.000 A 
BRANCH  22  32
ATOM     31  C   UNL     1      47.080   3.939  14.191  0.00  0.00    +0.000 C 
ATOM     32  O   UNL     1      46.818   4.757  15.328  0.00  0.00    +0.000 OA
ENDBRANCH  22  32
ENDBRANCH  18  29
ENDBRANCH   1  20
TORSDOF 7
ENDMDL
MODEL 2
REMARK VINA RESULT:    -7.425      1.788      2.555
REMARK INTER + INTRA:         -11.824
REMARK INTER:                 -10.656
REMARK INTRA:                  -1.169
REMARK UNBOUND:                -1.362
REMARK  Name = 
REMARK  9 active torsions:
REMARK  status: ('A' for Active; 'I' for Inactive)
REMARK    1  A    between atoms: C_1  and  O_2
REMARK    2  A    between atoms: O_2  and  C_3
REMARK    3  A    between atoms: C_10  and  C_11
REMARK    4  A    between atoms: N_13  and  C_14
REMARK    5  A    between atoms: C_14  and  C_15
REMARK    6  A    between atoms: C_18  and  N_19
REMARK    7  A    between atoms: N_19  and  C_20
REMARK    8  A    between atoms: C_20  and  C_21
REMARK    9  A    between atoms: N_25  and  C_26
REMARK                            x       y       z     vdW  Elec       q    Type
REMARK                         _______ _______ _______ _____ _____    ______ ____
ROOT
ATOM      1  C   UNL     1      47.646   7.700  13.264  0.00  0.00    +0.000 C 
ENDROOT
BRANCH   1   2
ATOM      2  C   UNL     1      46.700   6.618  12.814  0.00  0.00    +0.000 A 
ATOM      3  C   UNL     1      45.640   6.917  11.954  0.00  0.00    +0.000 A 
ATOM      4  C   UNL     1      44.781   5.908  11.499  0.00  0.00    +0.000 A 
ATOM      5  C   UNL     1      44.922   4.582  11.921  0.00  0.00    +0.000 A 
ATOM      6  C   UNL     1      45.967   4.298  12.813  0.00  0.00    +0.000 A 
ATOM      7  C   UNL     1      46.840   5.299  13.261  0.00  0.00    +0.000 A 
BRANCH   5   8
ATOM      8  N   UNL     1      44.172   3.524  11.406  0.00  0.00    +0.000 N 
ATOM      9  H   UNL     1      43.375   3.273  11.986  0.00  0.00    +0.000 HD
BRANCH   8  10
ATOM     10  C   UNL     1      43.976   3.381   9.968  0.00  0.00    +0.000 C 
BRANCH  10  11
ATOM     11  C   UNL     1      45.306   3.157   9.228  0.00  0.00    +0.000 C 
ATOM     12  C   UNL     1      45.468   4.106   8.031  0.00  0.00    +0.000 C 
ATOM     13  C   UNL     1      46.735   3.766   7.251  0.00  0.00    +0.000 C 
ATOM     14  C   UNL     1      46.763   2.294   6.847  0.00  0.00    +0.000 C 
ATOM     15  N   UNL     1      46.630   1.419   8.021  0.00  0.00    +0.000 NA
ATOM     16  C   UNL     1      46.690   0.015   7.613  0.00  0.00    +0.000 C 
ATOM     17  C   UNL     1      45.383   1.693   8.750  0.00  0.00    +0.000 C 
ENDBRANCH  10  11
ENDBRANCH   8  10
ENDBRANCH   5   8
ENDBRANCH   1   2
BRANCH   1  20
ATOM     18  C   UNL     1      48.849   7.192  15.349  0.00  0.00    +0.000 C 
ATOM     19  O   UNL     1      49.782   6.677  14.732  0.00  0.00    +0.000 OA
ATOM     20  N   UNL     1      47.769   7.714  14.700  0.00  0.00    +0.000 N 
ATOM     21  H   UNL     1      46.988   8.083  15.225  0.00  0.00    +0.000 HD
BRANCH  18  29
ATOM     22  C   UNL     1      48.857   4.821  17.846  0.00  0.00    +0.000 A 
ATOM     23  N   UNL     1      48.853   4.122  18.998  0.00  0.00    +0.000 NA
ATOM     24  C   UNL     1      48.833   4.804  20.146  0.00  0.00    +0.000 A 
ATOM     25  N   UNL     1      48.820   6.126  20.293  0.00  0.00    +0.000 NA
ATOM     26  C   UNL     1      48.831   6.785  19.121  0.00  0.00    +0.000 A 
ATOM     27  S   UNL     1      48.817   8.482  19.116  0.00  0.00    +0.000 S 
ATOM     28  C   UNL     1      48.835   8.527  17.418  0.00  0.00    +0.000 A 
ATOM     29  C   UNL     1      48.852   7.272  16.821  0.00  0.00    +0.000 A 
ATOM     30  C   UNL     1      48.855   6.228  17.846  0.00  0.00    +0.000 A 
BRANCH  22  32
ATOM     31  C   UNL     1      47.679   3.519  16.297  0.00  0.00    +0.000 C 
ATOM     32  O   UNL     1      48.920   4.117  16.663  0.00  0.00    +0.000 OA
ENDBRANCH  22  32
ENDBRANCH  18  29
ENDBRANCH   1  20
TORSDOF 7
ENDMDL
MODEL 3
REMARK VINA RESULT:    -7.247      2.563      3.641
REMARK INTER + INTRA:         -11.574
REMARK INTER:                 -10.270
REMARK INTRA:                  -1.304
REMARK UNBOUND:                -1.362
REMARK  Name = 
REMARK  9 active torsions:
REMARK  status: ('A' for Active; 'I' for Inactive)
REMARK    1  A    between atoms: C_1  and  O_2
REMARK    2  A    between atoms: O_2  and  C_3
REMARK    3  A    between atoms: C_10  and  C_11
REMARK    4  A    between atoms: N_13  and  C_14
REMARK    5  A    between atoms: C_14  and  C_15
REMARK    6  A    between atoms: C_18  and  N_19
REMARK    7  A    between atoms: N_19  and  C_20
REMARK    8  A    between atoms: C_20  and  C_21
REMARK    9  A    between atoms: N_25  and  C_26
REMARK                            x       y       z     vdW  Elec       q    Type
REMARK                         _______ _______ _______ _____ _____    ______ ____
ROOT
ATOM      1  C   UNL     1      48.366   6.339  14.062  0.00  0.00    +0.000 C 
ENDROOT
BRANCH   1   2
ATOM      2  C   UNL     1      47.150   5.911  13.283  0.00  0.00    +0.000 A 
ATOM      3  C   UNL     1      46.738   6.634  12.160  0.00  0.00    +0.000 A 
ATOM      4  C   UNL     1      45.632   6.217  11.407  0.00  0.00    +0.000 A 
ATOM      5  C   UNL     1      44.877   5.098  11.773  0.00  0.00    +0.000 A 
ATOM      6  C   UNL     1      45.277   4.400  12.922  0.00  0.00    +0.000 A 
ATOM      7  C   UNL     1      46.391   4.802  13.672  0.00  0.00    +0.000 A 
BRANCH   5   8
ATOM      8  N   UNL     1      43.846   4.573  10.993  0.00  0.00    +0.000 N 
ATOM      9  H   UNL     1      43.354   5.276  10.446  0.00  0.00    +0.000 HD
BRANCH   8  10
ATOM     10  C   UNL     1      43.981   3.265  10.363  0.00  0.00    +0.000 C 
BRANCH  10  11
ATOM     11  C   UNL     1      45.244   3.178   9.490  0.00  0.00    +0.000 C 
ATOM     12  C   UNL     1      45.220   4.192   8.336  0.00  0.00    +0.000 C 
ATOM     13  C   UNL     1      46.426   3.987   7.423  0.00  0.00    +0.000 C 
ATOM     14  C   UNL     1      46.518   2.542   6.938  0.00  0.00    +0.000 C 
ATOM     15  N   UNL     1      46.563   1.605   8.070  0.00  0.00    +0.000 NA
ATOM     16  C   UNL     1      46.681   0.230   7.581  0.00  0.00    +0.000 C 
ATOM     17  C   UNL     1      45.378   1.748   8.928  0.00  0.00    +0.000 C 
ENDBRANCH  10  11
ENDBRANCH   8  10
ENDBRANCH   5   8
ENDBRANCH   1   2
BRANCH   1  20
ATOM     18  C   UNL     1      48.795   6.203  16.480  0.00  0.00    +0.000 C 
ATOM     19  O   UNL     1      49.827   5.557  16.302  0.00  0.00    +0.000 OA
ATOM     20  N   UNL     1      48.026   6.622  15.434  0.00  0.00    +0.000 N 
ATOM     21  H   UNL     1      47.155   7.103  15.602  0.00  0.00    +0.000 HD
BRANCH  18  29
ATOM     22  C   UNL     1      47.902   9.179  17.965  0.00  0.00    +0.000 A 
ATOM     23  N   UNL     1      47.515  10.181  18.780  0.00  0.00    +0.000 NA
ATOM     24  C   UNL     1      47.207   9.878  20.043  0.00  0.00    +0.000 A 
ATOM     25  N   UNL     1      47.233   8.673  20.608  0.00  0.00    +0.000 NA
ATOM     26  C   UNL     1      47.617   7.704  19.760  0.00  0.00    +0.000 A 
ATOM     27  S   UNL     1      47.709   6.101  20.311  0.00  0.00    +0.000 S 
ATOM     28  C   UNL     1      48.223   5.554  18.786  0.00  0.00    +0.000 A 
ATOM     29  C   UNL     1      48.337   6.561  17.835  0.00  0.00    +0.000 A 
ATOM     30  C   UNL     1      47.967   7.850  18.422  0.00  0.00    +0.000 A 
BRANCH  22  32
ATOM     31  C   UNL     1      49.546   9.825  16.428  0.00  0.00    +0.000 C 
ATOM     32  O   UNL     1      48.179   9.486  16.651  0.00  0.00    +0.000 OA
ENDBRANCH  22  32
ENDBRANCH  18  29
ENDBRANCH   1  20
TORSDOF 7
ENDMDL
MODEL 4
REMARK VINA RESULT:    -6.964      2.070      4.077
REMARK INTER + INTRA:         -11.175
REMARK INTER:                  -9.950
REMARK INTRA:                  -1.224
REMARK UNBOUND:                -1.362
REMARK  Name = 
REMARK  9 active torsions:
REMARK  status: ('A' for Active; 'I' for Inactive)
REMARK    1  A    between atoms: C_1  and  O_2
REMARK    2  A    between atoms: O_2  and  C_3
REMARK    3  A    between atoms: C_10  and  C_11
REMARK    4  A    between atoms: N_13  and  C_14
REMARK    5  A    between atoms: C_14  and  C_15
REMARK    6  A    between atoms: C_18  and  N_19
REMARK    7  A    between atoms: N_19  and  C_20
REMARK    8  A    between atoms: C_20  and  C_21
REMARK    9  A    between atoms: N_25  and  C_26
REMARK                            x       y       z     vdW  Elec       q    Type
REMARK                         _______ _______ _______ _____ _____    ______ ____
ROOT
ATOM      1  C   UNL     1      46.885   4.327  14.890  0.00  0.00    +0.000 C 
ENDROOT
BRANCH   1   2
ATOM      2  C   UNL     1      46.293   4.574  13.528  0.00  0.00    +0.000 A 
ATOM      3  C   UNL     1      46.580   5.754  12.835  0.00  0.00    +0.000 A 
ATOM      4  C   UNL     1      46.066   5.972  11.550  0.00  0.00    +0.000 A 
ATOM      5  C   UNL     1      45.218   5.046  10.935  0.00  0.00    +0.000 A 
ATOM      6  C   UNL     1      44.907   3.882  11.652  0.00  0.00    +0.000 A 
ATOM      7  C   UNL     1      45.429   3.649  12.932  0.00  0.00    +0.000 A 
BRANCH   5   8
ATOM      8  N   UNL     1      44.779   5.159   9.614  0.00  0.00    +0.000 N 
ATOM      9  H   UNL     1      45.177   5.956   9.122  0.00  0.00    +0.000 HD
BRANCH   8  10
ATOM     10  C   UNL     1      44.546   3.970   8.803  0.00  0.00    +0.000 C 
BRANCH  10  11
ATOM     11  C   UNL     1      45.864   3.298   8.380  0.00  0.00    +0.000 C 
ATOM     12  C   UNL     1      46.419   3.887   7.074  0.00  0.00    +0.000 C 
ATOM     13  C   UNL     1      47.653   3.110   6.623  0.00  0.00    +0.000 C 
ATOM     14  C   UNL     1      47.364   1.614   6.522  0.00  0.00    +0.000 C 
ATOM     15  N   UNL     1      46.858   1.084   7.797  0.00  0.00    +0.000 NA
ATOM     16  C   UNL     1      46.617  -0.355   7.684  0.00  0.00    +0.000 C 
ATOM     17  C   UNL     1      45.634   1.782   8.216  0.00  0.00    +0.000 C 
ENDBRANCH  10  11
ENDBRANCH   8  10
ENDBRANCH   5   8
ENDBRANCH   1   2
BRANCH   1  20
ATOM     18  C   UNL     1      48.579   5.456  16.271  0.00  0.00    +0.000 C 
ATOM     19  O   UNL     1      49.017   4.382  16.683  0.00  0.00    +0.000 OA
ATOM     20  N   UNL     1      47.537   5.510  15.393  0.00  0.00    +0.000 N 
ATOM     21  H   UNL     1      47.155   6.401  15.109  0.00  0.00    +0.000 HD
BRANCH  18  29
ATOM     22  C   UNL     1      50.147   8.027  14.602  0.00  0.00    +0.000 A 
ATOM     23  N   UNL     1      50.785   9.148  14.211  0.00  0.00    +0.000 NA
ATOM     24  C   UNL     1      51.111  10.043  15.147  0.00  0.00    +0.000 A 
ATOM     25  N   UNL     1      50.873   9.960  16.453  0.00  0.00    +0.000 NA
ATOM     26  C   UNL     1      50.230   8.831  16.799  0.00  0.00    +0.000 A 
ATOM     27  S   UNL     1      49.843   8.555  18.429  0.00  0.00    +0.000 S 
ATOM     28  C   UNL     1      49.123   7.062  18.058  0.00  0.00    +0.000 A 
ATOM     29  C   UNL     1      49.159   6.740  16.706  0.00  0.00    +0.000 A 
ATOM     30  C   UNL     1      49.819   7.807  15.952  0.00  0.00    +0.000 A 
BRANCH  22  32
ATOM     31  C   UNL     1      49.717   7.694  12.325  0.00  0.00    +0.000 C 
ATOM     32  O   UNL     1      49.774   7.124  13.630  0.00  0.00    +0.000 OA
ENDBRANCH  22  32
ENDBRANCH  18  29
ENDBRANCH   1  20
TORSDOF 7
ENDMDL
MODEL 5
REMARK VINA RESULT:    -6.876      2.559      3.840
REMARK INTER + INTRA:         -11.051
REMARK INTER:                 -10.085
REMARK INTRA:                  -0.966
REMARK UNBOUND:                -1.362
REMARK  Name = 
REMARK  9 active torsions:
REMARK  status: ('A' for Active; 'I' for Inactive)
REMARK    1  A    between atoms: C_1  and  O_2
REMARK    2  A    between atoms: O_2  and  C_3
REMARK    3  A    between atoms: C_10  and  C_11
REMARK    4  A    between atoms: N_13  and  C_14
REMARK    5  A    between atoms: C_14  and  C_15
REMARK    6  A    between atoms: C_18  and  N_19
REMARK    7  A    between atoms: N_19  and  C_20
REMARK    8  A    between atoms: C_20  and  C_21
REMARK    9  A    between atoms: N_25  and  C_26
REMARK                            x       y       z     vdW  Elec       q    Type
REMARK                         _______ _______ _______ _____ _____    ______ ____
ROOT
ATOM      1  C   UNL     1      47.109   4.263  14.844  0.00  0.00    +0.000 C 
ENDROOT
BRANCH   1   2
ATOM      2  C   UNL     1      46.442   4.515  13.518  0.00  0.00    +0.000 A 
ATOM      3  C   UNL     1      46.744   5.663  12.780  0.00  0.00    +0.000 A 
ATOM      4  C   UNL     1      46.158   5.882  11.527  0.00  0.00    +0.000 A 
ATOM      5  C   UNL     1      45.223   4.992  10.990  0.00  0.00    +0.000 A 
ATOM      6  C   UNL     1      44.900   3.860  11.753  0.00  0.00    +0.000 A 
ATOM      7  C   UNL     1      45.493   3.626  13.001  0.00  0.00    +0.000 A 
BRANCH   5   8
ATOM      8  N   UNL     1      44.705   5.102   9.698  0.00  0.00    +0.000 N 
ATOM      9  H   UNL     1      45.034   5.924   9.199  0.00  0.00    +0.000 HD
BRANCH   8  10
ATOM     10  C   UNL     1      44.484   3.914   8.882  0.00  0.00    +0.000 C 
BRANCH  10  11
ATOM     11  C   UNL     1      45.808   3.252   8.464  0.00  0.00    +0.000 C 
ATOM     12  C   UNL     1      46.377   3.862   7.174  0.00  0.00    +0.000 C 
ATOM     13  C   UNL     1      47.618   3.095   6.725  0.00  0.00    +0.000 C 
ATOM     14  C   UNL     1      47.333   1.600   6.597  0.00  0.00    +0.000 C 
ATOM     15  N   UNL     1      46.814   1.050   7.858  0.00  0.00    +0.000 NA
ATOM     16  C   UNL     1      46.578  -0.388   7.720  0.00  0.00    +0.000 C 
ATOM     17  C   UNL     1      45.583   1.738   8.273  0.00  0.00    +0.000 C 
ENDBRANCH  10  11
ENDBRANCH   8  10
ENDBRANCH   5   8
ENDBRANCH   1   2
BRANCH   1  20
ATOM     18  C   UNL     1      48.524   5.594  16.354  0.00  0.00    +0.000 C 
ATOM     19  O   UNL     1      49.204   4.612  16.649  0.00  0.00    +0.000 OA
ATOM     20  N   UNL     1      47.482   5.503  15.478  0.00  0.00    +0.000 N 
ATOM     21  H   UNL     1      46.901   6.307  15.291  0.00  0.00    +0.000 HD
BRANCH  18  29
ATOM     22  C   UNL     1      48.136   6.932  19.503  0.00  0.00    +0.000 A 
ATOM     23  N   UNL     1      48.086   7.695  20.613  0.00  0.00    +0.000 NA
ATOM     24  C   UNL     1      48.494   8.963  20.522  0.00  0.00    +0.000 A 
ATOM     25  N   UNL     1      48.961   9.579  19.438  0.00  0.00    +0.000 NA
ATOM     26  C   UNL     1      49.001   8.781  18.357  0.00  0.00    +0.000 A 
ATOM     27  S   UNL     1      49.569   9.401  16.883  0.00  0.00    +0.000 S 
ATOM     28  C   UNL     1      49.317   7.913  16.103  0.00  0.00    +0.000 A 
ATOM     29  C   UNL     1      48.801   6.922  16.931  0.00  0.00    +0.000 A 
ATOM     30  C   UNL     1      48.617   7.446  18.285  0.00  0.00    +0.000 A 
BRANCH  22  32
ATOM     31  C   UNL     1      48.735   4.790  20.237  0.00  0.00    +0.000 C 
ATOM     32  O   UNL     1      47.754   5.612  19.609  0.00  0.00    +0.000 OA
ENDBRANCH  22  32
ENDBRANCH  18  29
ENDBRANCH   1  20
TORSDOF 7
ENDMDL
MODEL 6
REMARK VINA RESULT:    -5.962      2.418      3.663
REMARK INTER + INTRA:          -9.764
REMARK INTER:                  -8.756
REMARK INTRA:                  -1.008
REMARK UNBOUND:                -1.362
REMARK  Name = 
REMARK  9 active torsions:
REMARK  status: ('A' for Active; 'I' for Inactive)
REMARK    1  A    between atoms: C_1  and  O_2
REMARK    2  A    between atoms: O_2  and  C_3
REMARK    3  A    between atoms: C_10  and  C_11
REMARK    4  A    between atoms: N_13  and  C_14
REMARK    5  A    between atoms: C_14  and  C_15
REMARK    6  A    between atoms: C_18  and  N_19
REMARK    7  A    between atoms: N_19  and  C_20
REMARK    8  A    between atoms: C_20  and  C_21
REMARK    9  A    between atoms: N_25  and  C_26
REMARK                            x       y       z     vdW  Elec       q    Type
REMARK                         _______ _______ _______ _____ _____    ______ ____
ROOT
ATOM      1  C   UNL     1      47.321   4.463  15.594  0.00  0.00    +0.000 C 
ENDROOT
BRANCH   1   2
ATOM      2  C   UNL     1      46.753   4.834  14.250  0.00  0.00    +0.000 A 
ATOM      3  C   UNL     1      47.333   5.856  13.493  0.00  0.00    +0.000 A 
ATOM      4  C   UNL     1      46.835   6.178  12.224  0.00  0.00    +0.000 A 
ATOM      5  C   UNL     1      45.719   5.526  11.689  0.00  0.00    +0.000 A 
ATOM      6  C   UNL     1      45.122   4.526  12.470  0.00  0.00    +0.000 A 
ATOM      7  C   UNL     1      45.623   4.188  13.735  0.00  0.00    +0.000 A 
BRANCH   5   8
ATOM      8  N   UNL     1      45.260   5.724  10.386  0.00  0.00    +0.000 N 
ATOM      9  H   UNL     1      46.008   5.846   9.707  0.00  0.00    +0.000 HD
BRANCH   8  10
ATOM     10  C   UNL     1      44.076   5.026   9.900  0.00  0.00    +0.000 C 
BRANCH  10  11
ATOM     11  C   UNL     1      44.441   3.875   8.946  0.00  0.00    +0.000 C 
ATOM     12  C   UNL     1      44.532   2.527   9.676  0.00  0.00    +0.000 C 
ATOM     13  C   UNL     1      45.021   1.439   8.724  0.00  0.00    +0.000 C 
ATOM     14  C   UNL     1      46.332   1.835   8.050  0.00  0.00    +0.000 C 
ATOM     15  N   UNL     1      46.198   3.118   7.343  0.00  0.00    +0.000 NA
ATOM     16  C   UNL     1      47.457   3.462   6.681  0.00  0.00    +0.000 C 
ATOM     17  C   UNL     1      45.786   4.191   8.259  0.00  0.00    +0.000 C 
ENDBRANCH  10  11
ENDBRANCH   8  10
ENDBRANCH   5   8
ENDBRANCH   1   2
BRANCH   1  20
ATOM     18  C   UNL     1      48.076   5.844  17.485  0.00  0.00    +0.000 C 
ATOM     19  O   UNL     1      47.415   5.182  18.285  0.00  0.00    +0.000 OA
ATOM     20  N   UNL     1      48.081   5.554  16.152  0.00  0.00    +0.000 N 
ATOM     21  H   UNL     1      48.585   6.141  15.504  0.00  0.00    +0.000 HD
BRANCH  18  29
ATOM     22  C   UNL     1      51.148   6.090  19.020  0.00  0.00    +0.000 A 
ATOM     23  N   UNL     1      52.299   6.468  19.611  0.00  0.00    +0.000 NA
ATOM     24  C   UNL     1      52.517   7.775  19.780  0.00  0.00    +0.000 A 
ATOM     25  N   UNL     1      51.715   8.774  19.423  0.00  0.00    +0.000 NA
ATOM     26  C   UNL     1      50.583   8.353  18.831  0.00  0.00    +0.000 A 
ATOM     27  S   UNL     1      49.440   9.494  18.309  0.00  0.00    +0.000 S 
ATOM     28  C   UNL     1      48.408   8.272  17.736  0.00  0.00    +0.000 A 
ATOM     29  C   UNL     1      48.899   6.985  17.926  0.00  0.00    +0.000 A 
ATOM     30  C   UNL     1      50.208   7.038  18.579  0.00  0.00    +0.000 A 
BRANCH  22  32
ATOM     31  C   UNL     1      51.631   4.242  17.664  0.00  0.00    +0.000 C 
ATOM     32  O   UNL     1      50.944   4.743  18.809  0.00  0.00    +0.000 OA
ENDBRANCH  22  32
ENDBRANCH  18  29
ENDBRANCH   1  20
TORSDOF 7
ENDMDL
MODEL 7
REMARK VINA RESULT:    -5.898      3.240      7.832
REMARK INTER + INTRA:          -9.673
REMARK INTER:                  -7.960
REMARK INTRA:                  -1.713
REMARK UNBOUND:                -1.362
REMARK  Name = 
REMARK  9 active torsions:
REMARK  status: ('A' for Active; 'I' for Inactive)
REMARK    1  A    between atoms: C_1  and  O_2
REMARK    2  A    between atoms: O_2  and  C_3
REMARK    3  A    between atoms: C_10  and  C_11
REMARK    4  A    between atoms: N_13  and  C_14
REMARK    5  A    between atoms: C_14  and  C_15
REMARK    6  A    between atoms: C_18  and  N_19
REMARK    7  A    between atoms: N_19  and  C_20
REMARK    8  A    between atoms: C_20  and  C_21
REMARK    9  A    between atoms: N_25  and  C_26
REMARK                            x       y       z     vdW  Elec       q    Type
REMARK                         _______ _______ _______ _____ _____    ______ ____
ROOT
ATOM      1  C   UNL     1      48.253   9.241  15.246  0.00  0.00    +0.000 C 
ENDROOT
BRANCH   1   2
ATOM      2  C   UNL     1      49.375   8.525  15.950  0.00  0.00    +0.000 A 
ATOM      3  C   UNL     1      49.202   8.042  17.250  0.00  0.00    +0.000 A 
ATOM      4  C   UNL     1      50.228   7.339  17.894  0.00  0.00    +0.000 A 
ATOM      5  C   UNL     1      51.470   7.134  17.285  0.00  0.00    +0.000 A 
ATOM      6  C   UNL     1      51.647   7.653  15.994  0.00  0.00    +0.000 A 
ATOM      7  C   UNL     1      50.620   8.345  15.336  0.00  0.00    +0.000 A 
BRANCH   5   8
ATOM      8  N   UNL     1      52.478   6.340  17.833  0.00  0.00    +0.000 N 
ATOM      9  H   UNL     1      53.291   6.870  18.137  0.00  0.00    +0.000 HD
BRANCH   8  10
ATOM     10  C   UNL     1      52.148   5.173  18.643  0.00  0.00    +0.000 C 
BRANCH  10  11
ATOM     11  C   UNL     1      52.005   3.903  17.786  0.00  0.00    +0.000 C 
ATOM     12  C   UNL     1      50.558   3.389  17.752  0.00  0.00    +0.000 C 
ATOM     13  C   UNL     1      50.483   2.062  17.001  0.00  0.00    +0.000 C 
ATOM     14  C   UNL     1      51.460   1.039  17.576  0.00  0.00    +0.000 C 
ATOM     15  N   UNL     1      52.835   1.559  17.569  0.00  0.00    +0.000 NA
ATOM     16  C   UNL     1      53.758   0.552  18.096  0.00  0.00    +0.000 C 
ATOM     17  C   UNL     1      52.938   2.807  18.340  0.00  0.00    +0.000 C 
ENDBRANCH  10  11
ENDBRANCH   8  10
ENDBRANCH   5   8
ENDBRANCH   1   2
BRANCH   1  20
ATOM     18  C   UNL     1      47.229   8.264  13.233  0.00  0.00    +0.000 C 
ATOM     19  O   UNL     1      47.845   9.034  12.497  0.00  0.00    +0.000 OA
ATOM     20  N   UNL     1      47.375   8.305  14.589  0.00  0.00    +0.000 N 
ATOM     21  H   UNL     1      46.820   7.703  15.180  0.00  0.00    +0.000 HD
BRANCH  18  29
ATOM     22  C   UNL     1      46.953   4.853  13.611  0.00  0.00    +0.000 A 
ATOM     23  N   UNL     1      46.626   3.546  13.575  0.00  0.00    +0.000 NA
ATOM     24  C   UNL     1      45.595   3.178  12.812  0.00  0.00    +0.000 A 
ATOM     25  N   UNL     1      44.828   3.969  12.065  0.00  0.00    +0.000 NA
ATOM     26  C   UNL     1      45.184   5.263  12.135  0.00  0.00    +0.000 A 
ATOM     27  S   UNL     1      44.314   6.418  11.244  0.00  0.00    +0.000 S 
ATOM     28  C   UNL     1      45.300   7.677  11.818  0.00  0.00    +0.000 A 
ATOM     29  C   UNL     1      46.300   7.257  12.688  0.00  0.00    +0.000 A 
ATOM     30  C   UNL     1      46.225   5.808  12.880  0.00  0.00    +0.000 A 
BRANCH  22  32
ATOM     31  C   UNL     1      47.775   4.911  15.803  0.00  0.00    +0.000 C 
ATOM     32  O   UNL     1      47.991   5.237  14.432  0.00  0.00    +0.000 OA
ENDBRANCH  22  32
ENDBRANCH  18  29
ENDBRANCH   1  20
TORSDOF 7
ENDMDL
MODEL 8
REMARK VINA RESULT:    -5.799      3.181      5.195
REMARK INTER + INTRA:          -9.534
REMARK INTER:                  -8.421
REMARK INTRA:                  -1.113
REMARK UNBOUND:                -1.362
REMARK  Name = 
REMARK  9 active torsions:
REMARK  status: ('A' for Active; 'I' for Inactive)
REMARK    1  A    between atoms: C_1  and  O_2
REMARK    2  A    between atoms: O_2  and  C_3
REMARK    3  A    between atoms: C_10  and  C_11
REMARK    4  A    between atoms: N_13  and  C_14
REMARK    5  A    between atoms: C_14  and  C_15
REMARK    6  A    between atoms: C_18  and  N_19
REMARK    7  A    between atoms: N_19  and  C_20
REMARK    8  A    between atoms: C_20  and  C_21
REMARK    9  A    between atoms: N_25  and  C_26
REMARK                            x       y       z     vdW  Elec       q    Type
REMARK                         _______ _______ _______ _____ _____    ______ ____
ROOT
ATOM      1  C   UNL     1      47.958   6.092  14.656  0.00  0.00    +0.000 C 
ENDROOT
BRANCH   1   2
ATOM      2  C   UNL     1      46.984   5.679  13.583  0.00  0.00    +0.000 A 
ATOM      3  C   UNL     1      46.286   4.472  13.687  0.00  0.00    +0.000 A 
ATOM      4  C   UNL     1      45.350   4.102  12.714  0.00  0.00    +0.000 A 
ATOM      5  C   UNL     1      45.111   4.896  11.587  0.00  0.00    +0.000 A 
ATOM      6  C   UNL     1      45.842   6.088  11.474  0.00  0.00    +0.000 A 
ATOM      7  C   UNL     1      46.771   6.473  12.451  0.00  0.00    +0.000 A 
BRANCH   5   8
ATOM      8  N   UNL     1      44.106   4.634  10.655  0.00  0.00    +0.000 N 
ATOM      9  H   UNL     1      43.828   5.452  10.119  0.00  0.00    +0.000 HD
BRANCH   8  10
ATOM     10  C   UNL     1      44.071   3.366   9.935  0.00  0.00    +0.000 C 
BRANCH  10  11
ATOM     11  C   UNL     1      45.390   3.095   9.191  0.00  0.00    +0.000 C 
ATOM     12  C   UNL     1      45.574   4.025   7.982  0.00  0.00    +0.000 C 
ATOM     13  C   UNL     1      46.826   3.639   7.200  0.00  0.00    +0.000 C 
ATOM     14  C   UNL     1      46.808   2.162   6.811  0.00  0.00    +0.000 C 
ATOM     15  N   UNL     1      46.654   1.305   7.996  0.00  0.00    +0.000 NA
ATOM     16  C   UNL     1      46.670  -0.105   7.602  0.00  0.00    +0.000 C 
ATOM     17  C   UNL     1      45.420   1.623   8.729  0.00  0.00    +0.000 C 
ENDBRANCH  10  11
ENDBRANCH   8  10
ENDBRANCH   5   8
ENDBRANCH   1   2
BRANCH   1  20
ATOM     18  C   UNL     1      48.986   8.325  14.556  0.00  0.00    +0.000 C 
ATOM     19  O   UNL     1      48.206   8.766  15.399  0.00  0.00    +0.000 OA
ATOM     20  N   UNL     1      48.927   7.027  14.140  0.00  0.00    +0.000 N 
ATOM     21  H   UNL     1      49.539   6.697  13.408  0.00  0.00    +0.000 HD
BRANCH  18  29
ATOM     22  C   UNL     1      51.959   9.613  15.721  0.00  0.00    +0.000 A 
ATOM     23  N   UNL     1      53.137  10.238  15.917  0.00  0.00    +0.000 NA
ATOM     24  C   UNL     1      53.640  10.958  14.912  0.00  0.00    +0.000 A 
ATOM     25  N   UNL     1      53.105  11.134  13.706  0.00  0.00    +0.000 NA
ATOM     26  C   UNL     1      51.936  10.489  13.551  0.00  0.00    +0.000 A 
ATOM     27  S   UNL     1      51.109  10.603  12.073  0.00  0.00    +0.000 S 
ATOM     28  C   UNL     1      49.852   9.611  12.642  0.00  0.00    +0.000 A 
ATOM     29  C   UNL     1      50.027   9.176  13.951  0.00  0.00    +0.000 A 
ATOM     30  C   UNL     1      51.281   9.701  14.492  0.00  0.00    +0.000 A 
BRANCH  22  32
ATOM     31  C   UNL     1      51.943   7.495  16.720  0.00  0.00    +0.000 C 
ATOM     32  O   UNL     1      51.462   8.836  16.746  0.00  0.00    +0.000 OA
ENDBRANCH  22  32
ENDBRANCH  18  29
ENDBRANCH   1  20
TORSDOF 7
ENDMDL
MODEL 9
REMARK VINA RESULT:    -5.672      2.363      3.777
REMARK INTER + INTRA:          -9.355
REMARK INTER:                  -8.273
REMARK INTRA:                  -1.082
REMARK UNBOUND:                -1.362
REMARK  Name = 
REMARK  9 active torsions:
REMARK  status: ('A' for Active; 'I' for Inactive)
REMARK    1  A    between atoms: C_1  and  O_2
REMARK    2  A    between atoms: O_2  and  C_3
REMARK    3  A    between atoms: C_10  and  C_11
REMARK    4  A    between atoms: N_13  and  C_14
REMARK    5  A    between atoms: C_14  and  C_15
REMARK    6  A    between atoms: C_18  and  N_19
REMARK    7  A    between atoms: N_19  and  C_20
REMARK    8  A    between atoms: C_20  and  C_21
REMARK    9  A    between atoms: N_25  and  C_26
REMARK                            x       y       z     vdW  Elec       q    Type
REMARK                         _______ _______ _______ _____ _____    ______ ____
ROOT
ATOM      1  C   UNL     1      47.278   4.338  15.668  0.00  0.00    +0.000 C 
ENDROOT
BRANCH   1   2
ATOM      2  C   UNL     1      46.704   4.798  14.353  0.00  0.00    +0.000 A 
ATOM      3  C   UNL     1      47.424   5.669  13.532  0.00  0.00    +0.000 A 
ATOM      4  C   UNL     1      46.914   6.068  12.290  0.00  0.00    +0.000 A 
ATOM      5  C   UNL     1      45.655   5.649  11.848  0.00  0.00    +0.000 A 
ATOM      6  C   UNL     1      44.924   4.802  12.694  0.00  0.00    +0.000 A 
ATOM      7  C   UNL     1      45.434   4.387  13.932  0.00  0.00    +0.000 A 
BRANCH   5   8
ATOM      8  N   UNL     1      45.155   5.918  10.572  0.00  0.00    +0.000 N 
ATOM      9  H   UNL     1      45.882   6.057   9.874  0.00  0.00    +0.000 HD
BRANCH   8  10
ATOM     10  C   UNL     1      43.940   5.267  10.097  0.00  0.00    +0.000 C 
BRANCH  10  11
ATOM     11  C   UNL     1      44.252   4.091   9.155  0.00  0.00    +0.000 C 
ATOM     12  C   UNL     1      44.261   2.745   9.896  0.00  0.00    +0.000 C 
ATOM     13  C   UNL     1      44.699   1.624   8.957  0.00  0.00    +0.000 C 
ATOM     14  C   UNL     1      46.037   1.943   8.294  0.00  0.00    +0.000 C 
ATOM     15  N   UNL     1      45.981   3.226   7.577  0.00  0.00    +0.000 NA
ATOM     16  C   UNL     1      47.264   3.496   6.926  0.00  0.00    +0.000 C 
ATOM     17  C   UNL     1      45.619   4.327   8.481  0.00  0.00    +0.000 C 
ENDBRANCH  10  11
ENDBRANCH   8  10
ENDBRANCH   5   8
ENDBRANCH   1   2
BRANCH   1  20
ATOM     18  C   UNL     1      48.613   5.643  17.270  0.00  0.00    +0.000 C 
ATOM     19  O   UNL     1      47.779   5.479  18.160  0.00  0.00    +0.000 OA
ATOM     20  N   UNL     1      48.439   5.116  16.024  0.00  0.00    +0.000 N 
ATOM     21  H   UNL     1      49.106   5.307  15.291  0.00  0.00    +0.000 HD
BRANCH  18  29
ATOM     22  C   UNL     1      49.217   8.906  18.189  0.00  0.00    +0.000 A 
ATOM     23  N   UNL     1      49.729  10.107  18.525  0.00  0.00    +0.000 NA
ATOM     24  C   UNL     1      51.057  10.234  18.558  0.00  0.00    +0.000 A 
ATOM     25  N   UNL     1      51.960   9.293  18.297  0.00  0.00    +0.000 NA
ATOM     26  C   UNL     1      51.408   8.111  17.974  0.00  0.00    +0.000 A 
ATOM     27  S   UNL     1      52.411   6.791  17.608  0.00  0.00    +0.000 S 
ATOM     28  C   UNL     1      51.071   5.785  17.330  0.00  0.00    +0.000 A 
ATOM     29  C   UNL     1      49.846   6.417  17.505  0.00  0.00    +0.000 A 
ATOM     30  C   UNL     1      50.051   7.812  17.896  0.00  0.00    +0.000 A 
BRANCH  22  32
ATOM     31  C   UNL     1      47.277   8.849  19.500  0.00  0.00    +0.000 C 
ATOM     32  O   UNL     1      47.846   8.764  18.196  0.00  0.00    +0.000 OA
ENDBRANCH  22  32
ENDBRANCH  18  29
ENDBRANCH   1  20
TORSDOF 7
ENDMDL
