MODEL 1
REMARK VINA RESULT:    -7.483      0.000      0.000
REMARK INTER + INTRA:         -10.736
REMARK INTER:                 -10.108
REMARK INTRA:                  -0.628
REMARK UNBOUND:                -0.628
REMARK  Name = 
REMARK  7 active torsions:
REMARK  status: ('A' for Active; 'I' for Inactive)
REMARK    1  A    between atoms: N_1  and  C_2
REMARK    2  A    between atoms: C_2  and  C_3
REMARK    3  A    between atoms: C_6  and  C_7
REMARK    4  A    between atoms: C_7  and  O_8
REMARK    5  A    between atoms: O_8  and  C_9
REMARK    6  A    between atoms: C_13  and  C_14
REMARK    7  A    between atoms: C_14  and  O_15
REMARK                            x       y       z     vdW  Elec       q    Type
REMARK                         _______ _______ _______ _____ _____    ______ ____
ROOT
ATOM      1  C   UNL     1      43.864   4.409   9.784  0.00  0.00    +0.000 C 
ENDROOT
BRANCH   1   5
ATOM      2  C   UNL     1      46.760   2.107   7.513  0.00  0.00    +0.000 A 
ATOM      3  C   UNL     1      45.879   1.472   8.399  0.00  0.00    +0.000 A 
ATOM      4  C   UNL     1      44.945   2.208   9.133  0.00  0.00    +0.000 A 
ATOM      5  C   UNL     1      44.868   3.602   8.992  0.00  0.00    +0.000 A 
ATOM      6  C   UNL     1      45.747   4.237   8.106  0.00  0.00    +0.000 A 
ATOM      7  C   UNL     1      46.680   3.498   7.371  0.00  0.00    +0.000 A 
BRANCH   2   8
ATOM      8  C   UNL     1      47.798   1.313   6.760  0.00  0.00    +0.000 C 
BRANCH   8   9
ATOM      9  N   UNL     1      48.331   2.058   5.625  0.00  0.00    +0.000 NA
ATOM     10  H   UNL     1      48.279   3.054   5.826  0.00  0.00    +0.000 HD
ATOM     11  H   UNL     1      47.732   1.893   4.817  0.00  0.00    +0.000 HD
ENDBRANCH   8   9
ENDBRANCH   2   8
ENDBRANCH   1   5
BRANCH   1  12
ATOM     12  O   UNL     1      44.094   4.216  11.177  0.00  0.00    +0.000 OA
BRANCH  12  13
ATOM     13  C   UNL     1      45.112   4.937  11.748  0.00  0.00    +0.000 A 
ATOM     14  C   UNL     1      45.621   6.154  11.288  0.00  0.00    +0.000 A 
ATOM     15  C   UNL     1      46.651   6.790  11.990  0.00  0.00    +0.000 A 
ATOM     16  C   UNL     1      47.174   6.223  13.153  0.00  0.00    +0.000 A 
ATOM     17  C   UNL     1      46.687   4.996  13.622  0.00  0.00    +0.000 A 
ATOM     18  C   UNL     1      45.653   4.368  12.905  0.00  0.00    +0.000 A 
BRANCH  17  19
ATOM     19  C   UNL     1      47.160   4.389  14.918  0.00  0.00    +0.000 C 
BRANCH  19  20
ATOM     20  O   UNL     1      47.581   3.041  14.761  0.00  0.00    +0.000 OA
ATOM     21  H   UNL     1      46.951   2.495  15.260  0.00  0.00    +0.000 HD
ENDBRANCH  19  20
ENDBRANCH  17  19
ENDBRANCH  12  13
ENDBRANCH   1  12
TORSDOF 7
ENDMDL
MODEL 2
REMARK VINA RESULT:    -7.128      1.330      1.917
REMARK INTER + INTRA:         -10.256
REMARK INTER:                  -9.600
REMARK INTRA:                  -0.656
REMARK UNBOUND:                -0.628
REMARK  Name = 
REMARK  7 active torsions:
REMARK  status: ('A' for Active; 'I' for Inactive)
REMARK    1  A    between atoms: N_1  and  C_2
REMARK    2  A    between atoms: C_2  and  C_3
REMARK    3  A    between atoms: C_6  and  C_7
REMARK    4  A    between atoms: C_7  and  O_8
REMARK    5  A    between atoms: O_8  and  C_9
REMARK    6  A    between atoms: C_13  and  C_14
REMARK    7  A    between atoms: C_14  and  O_15
REMARK                            x       y       z     vdW  Elec       q    Type
REMARK                         _______ _______ _______ _____ _____    ______ ____
ROOT
ATOM      1  C   UNL     1      43.851   4.138  10.250  0.00  0.00    +0.000 C 
ENDROOT
BRANCH   1   5
ATOM      2  C   UNL     1      46.650   2.371   7.442  0.00  0.00    +0.000 A 
ATOM      3  C   UNL     1      45.972   1.573   8.373  0.00  0.00    +0.000 A 
ATOM      4  C   UNL     1      45.071   2.137   9.280  0.00  0.00    +0.000 A 
ATOM      5  C   UNL     1      44.822   3.517   9.270  0.00  0.00    +0.000 A 
ATOM      6  C   UNL     1      45.498   4.315   8.339  0.00  0.00    +0.000 A 
ATOM      7  C   UNL     1      46.398   3.749   7.431  0.00  0.00    +0.000 A 
BRANCH   2   8
ATOM      8  C   UNL     1      47.658   1.764   6.498  0.00  0.00    +0.000 C 
BRANCH   8   9
ATOM      9  N   UNL     1      48.261   2.769   5.629  0.00  0.00    +0.000 NA
ATOM     10  H   UNL     1      47.640   3.573   5.569  0.00  0.00    +0.000 HD
ATOM     11  H   UNL     1      48.332   2.385   4.688  0.00  0.00    +0.000 HD
ENDBRANCH   8   9
ENDBRANCH   2   8
ENDBRANCH   1   5
BRANCH   1  12
ATOM     12  O   UNL     1      44.349   5.406  10.671  0.00  0.00    +0.000 OA
BRANCH  12  13
ATOM     13  C   UNL     1      45.242   5.411  11.713  0.00  0.00    +0.000 A 
ATOM     14  C   UNL     1      45.162   4.638  12.874  0.00  0.00    +0.000 A 
ATOM     15  C   UNL     1      46.163   4.732  13.847  0.00  0.00    +0.000 A 
ATOM     16  C   UNL     1      47.250   5.589  13.666  0.00  0.00    +0.000 A 
ATOM     17  C   UNL     1      47.341   6.384  12.516  0.00  0.00    +0.000 A 
ATOM     18  C   UNL     1      46.325   6.280  11.549  0.00  0.00    +0.000 A 
BRANCH  17  19
ATOM     19  C   UNL     1      48.537   7.258  12.239  0.00  0.00    +0.000 C 
BRANCH  19  20
ATOM     20  O   UNL     1      49.742   6.697  12.742  0.00  0.00    +0.000 OA
ATOM     21  H   UNL     1      49.653   6.673  13.709  0.00  0.00    +0.000 HD
ENDBRANCH  19  20
ENDBRANCH  17  19
ENDBRANCH  12  13
ENDBRANCH   1  12
TORSDOF 7
ENDMDL
MODEL 3
REMARK VINA RESULT:    -7.088      1.584      2.761
REMARK INTER + INTRA:         -10.203
REMARK INTER:                  -9.538
REMARK INTRA:                  -0.664
REMARK UNBOUND:                -0.628
REMARK  Name = 
REMARK  7 active torsions:
REMARK  status: ('A' for Active; 'I' for Inactive)
REMARK    1  A    between atoms: N_1  and  C_2
REMARK    2  A    between atoms: C_2  and  C_3
REMARK    3  A    between atoms: C_6  and  C_7
REMARK    4  A    between atoms: C_7  and  O_8
REMARK    5  A    between atoms: O_8  and  C_9
REMARK    6  A    between atoms: C_13  and  C_14
REMARK    7  A    between atoms: C_14  and  O_15
REMARK                            x       y       z     vdW  Elec       q    Type
REMARK                         _______ _______ _______ _____ _____    ______ ____
ROOT
ATOM      1  C   UNL     1      43.745   4.646  10.200  0.00  0.00    +0.000 C 
ENDROOT
BRANCH   1   5
ATOM      2  C   UNL     1      46.501   2.398   7.712  0.00  0.00    +0.000 A 
ATOM      3  C   UNL     1      46.440   3.796   7.627  0.00  0.00    +0.000 A 
ATOM      4  C   UNL     1      45.554   4.524   8.425  0.00  0.00    +0.000 A 
ATOM      5  C   UNL     1      44.711   3.868   9.334  0.00  0.00    +0.000 A 
ATOM      6  C   UNL     1      44.773   2.471   9.420  0.00  0.00    +0.000 A 
ATOM      7  C   UNL     1      45.661   1.744   8.623  0.00  0.00    +0.000 A 
BRANCH   2   8
ATOM      8  C   UNL     1      47.425   1.613   6.815  0.00  0.00    +0.000 C 
BRANCH   8   9
ATOM      9  N   UNL     1      48.538   2.426   6.338  0.00  0.00    +0.000 NA
ATOM     10  H   UNL     1      48.535   2.430   5.320  0.00  0.00    +0.000 HD
ATOM     11  H   UNL     1      49.411   1.983   6.624  0.00  0.00    +0.000 HD
ENDBRANCH   8   9
ENDBRANCH   2   8
ENDBRANCH   1   5
BRANCH   1  12
ATOM     12  O   UNL     1      44.035   4.398  11.573  0.00  0.00    +0.000 OA
BRANCH  12  13
ATOM     13  C   UNL     1      44.987   5.191  12.164  0.00  0.00    +0.000 A 
ATOM     14  C   UNL     1      46.066   4.751  12.935  0.00  0.00    +0.000 A 
ATOM     15  C   UNL     1      46.975   5.677  13.457  0.00  0.00    +0.000 A 
ATOM     16  C   UNL     1      46.819   7.041  13.210  0.00  0.00    +0.000 A 
ATOM     17  C   UNL     1      45.735   7.504  12.452  0.00  0.00    +0.000 A 
ATOM     18  C   UNL     1      44.829   6.561  11.936  0.00  0.00    +0.000 A 
BRANCH  17  19
ATOM     19  C   UNL     1      45.575   8.958  12.087  0.00  0.00    +0.000 C 
BRANCH  19  20
ATOM     20  O   UNL     1      44.585   9.605  12.874  0.00  0.00    +0.000 OA
ATOM     21  H   UNL     1      44.530  10.520  12.552  0.00  0.00    +0.000 HD
ENDBRANCH  19  20
ENDBRANCH  17  19
ENDBRANCH  12  13
ENDBRANCH   1  12
TORSDOF 7
ENDMDL
MODEL 4
REMARK VINA RESULT:    -6.880      3.032      5.950
REMARK INTER + INTRA:          -9.921
REMARK INTER:                  -9.600
REMARK INTRA:                  -0.321
REMARK UNBOUND:                -0.628
REMARK  Name = 
REMARK  7 active torsions:
REMARK  status: ('A' for Active; 'I' for Inactive)
REMARK    1  A    between atoms: N_1  and  C_2
REMARK    2  A    between atoms: C_2  and  C_3
REMARK    3  A    between atoms: C_6  and  C_7
REMARK    4  A    between atoms: C_7  and  O_8
REMARK    5  A    between atoms: O_8  and  C_9
REMARK    6  A    between atoms: C_13  and  C_14
REMARK    7  A    between atoms: C_14  and  O_15
REMARK                            x       y       z     vdW  Elec       q    Type
REMARK                         _______ _______ _______ _____ _____    ______ ____
ROOT
ATOM      1  C   UNL     1      43.469   3.724  11.085  0.00  0.00    +0.000 C 
ENDROOT
BRANCH   1   5
ATOM      2  C   UNL     1      46.763   5.342  13.403  0.00  0.00    +0.000 A 
ATOM      3  C   UNL     1      46.540   3.959  13.346  0.00  0.00    +0.000 A 
ATOM      4  C   UNL     1      45.481   3.433  12.602  0.00  0.00    +0.000 A 
ATOM      5  C   UNL     1      44.621   4.282  11.890  0.00  0.00    +0.000 A 
ATOM      6  C   UNL     1      44.844   5.664  11.946  0.00  0.00    +0.000 A 
ATOM      7  C   UNL     1      45.905   6.188  12.689  0.00  0.00    +0.000 A 
BRANCH   2   8
ATOM      8  C   UNL     1      47.878   5.907  14.246  0.00  0.00    +0.000 C 
BRANCH   8   9
ATOM      9  N   UNL     1      47.884   5.339  15.590  0.00  0.00    +0.000 NA
ATOM     10  H   UNL     1      46.946   5.399  15.980  0.00  0.00    +0.000 HD
ATOM     11  H   UNL     1      48.482   5.913  16.183  0.00  0.00    +0.000 HD
ENDBRANCH   8   9
ENDBRANCH   2   8
ENDBRANCH   1   5
BRANCH   1  12
ATOM     12  O   UNL     1      43.926   2.618  10.309  0.00  0.00    +0.000 OA
BRANCH  12  13
ATOM     13  C   UNL     1      44.789   2.893   9.278  0.00  0.00    +0.000 A 
ATOM     14  C   UNL     1      45.040   4.150   8.722  0.00  0.00    +0.000 A 
ATOM     15  C   UNL     1      45.969   4.282   7.685  0.00  0.00    +0.000 A 
ATOM     16  C   UNL     1      46.656   3.168   7.201  0.00  0.00    +0.000 A 
ATOM     17  C   UNL     1      46.408   1.896   7.735  0.00  0.00    +0.000 A 
ATOM     18  C   UNL     1      45.470   1.779   8.776  0.00  0.00    +0.000 A 
BRANCH  17  19
ATOM     19  C   UNL     1      47.188   0.680   7.304  0.00  0.00    +0.000 C 
BRANCH  19  20
ATOM     20  O   UNL     1      46.732  -0.506   7.940  0.00  0.00    +0.000 OA
ATOM     21  H   UNL     1      45.932  -0.785   7.464  0.00  0.00    +0.000 HD
ENDBRANCH  19  20
ENDBRANCH  17  19
ENDBRANCH  12  13
ENDBRANCH   1  12
TORSDOF 7
ENDMDL
MODEL 5
REMARK VINA RESULT:    -6.238      2.703      5.943
REMARK INTER + INTRA:          -9.054
REMARK INTER:                  -8.402
REMARK INTRA:                  -0.652
REMARK UNBOUND:                -0.628
REMARK  Name = 
REMARK  7 active torsions:
REMARK  status: ('A' for Active; 'I' for Inactive)
REMARK    1  A    between atoms: N_1  and  C_2
REMARK    2  A    between atoms: C_2  and  C_3
REMARK    3  A    between atoms: C_6  and  C_7
REMARK    4  A    between atoms: C_7  and  O_8
REMARK    5  A    between atoms: O_8  and  C_9
REMARK    6  A    between atoms: C_13  and  C_14
REMARK    7  A    between atoms: C_14  and  O_15
REMARK                            x       y       z     vdW  Elec       q    Type
REMARK                         _______ _______ _______ _____ _____    ______ ____
ROOT
ATOM      1  C   UNL     1      43.564   5.018  11.485  0.00  0.00    +0.000 C 
ENDROOT
BRANCH   1   5
ATOM      2  C   UNL     1      47.395   6.304  13.070  0.00  0.00    +0.000 A 
ATOM      3  C   UNL     1      46.671   5.279  13.694  0.00  0.00    +0.000 A 
ATOM      4  C   UNL     1      45.436   4.862  13.189  0.00  0.00    +0.000 A 
ATOM      5  C   UNL     1      44.900   5.460  12.038  0.00  0.00    +0.000 A 
ATOM      6  C   UNL     1      45.624   6.483  11.413  0.00  0.00    +0.000 A 
ATOM      7  C   UNL     1      46.859   6.897  11.919  0.00  0.00    +0.000 A 
BRANCH   2   8
ATOM      8  C   UNL     1      48.703   6.783  13.647  0.00  0.00    +0.000 C 
BRANCH   8   9
ATOM      9  N   UNL     1      49.765   6.796  12.647  0.00  0.00    +0.000 NA
ATOM     10  H   UNL     1      49.360   6.623  11.730  0.00  0.00    +0.000 HD
ATOM     11  H   UNL     1      50.399   6.020  12.836  0.00  0.00    +0.000 HD
ENDBRANCH   8   9
ENDBRANCH   2   8
ENDBRANCH   1   5
BRANCH   1  12
ATOM     12  O   UNL     1      43.636   4.960  10.062  0.00  0.00    +0.000 OA
BRANCH  12  13
ATOM     13  C   UNL     1      44.316   3.901   9.515  0.00  0.00    +0.000 A 
ATOM     14  C   UNL     1      44.196   2.560   9.888  0.00  0.00    +0.000 A 
ATOM     15  C   UNL     1      44.939   1.580   9.221  0.00  0.00    +0.000 A 
ATOM     16  C   UNL     1      45.798   1.928   8.178  0.00  0.00    +0.000 A 
ATOM     17  C   UNL     1      45.944   3.269   7.799  0.00  0.00    +0.000 A 
ATOM     18  C   UNL     1      45.192   4.243   8.480  0.00  0.00    +0.000 A 
BRANCH  17  19
ATOM     19  C   UNL     1      46.793   3.682   6.623  0.00  0.00    +0.000 C 
BRANCH  19  20
ATOM     20  O   UNL     1      47.964   2.886   6.499  0.00  0.00    +0.000 OA
ATOM     21  H   UNL     1      48.702   3.502   6.356  0.00  0.00    +0.000 HD
ENDBRANCH  19  20
ENDBRANCH  17  19
ENDBRANCH  12  13
ENDBRANCH   1  12
TORSDOF 7
ENDMDL
MODEL 6
REMARK VINA RESULT:    -5.541      4.151      7.646
REMARK INTER + INTRA:          -8.113
REMARK INTER:                  -7.645
REMARK INTRA:                  -0.468
REMARK UNBOUND:                -0.628
REMARK  Name = 
REMARK  7 active torsions:
REMARK  status: ('A' for Active; 'I' for Inactive)
REMARK    1  A    between atoms: N_1  and  C_2
REMARK    2  A    between atoms: C_2  and  C_3
REMARK    3  A    between atoms: C_6  and  C_7
REMARK    4  A    between atoms: C_7  and  O_8
REMARK    5  A    between atoms: O_8  and  C_9
REMARK    6  A    between atoms: C_13  and  C_14
REMARK    7  A    between atoms: C_14  and  O_15
REMARK                            x       y       z     vdW  Elec       q    Type
REMARK                         _______ _______ _______ _____ _____    ______ ____
ROOT
ATOM      1  C   UNL     1      47.148   4.402  16.289  0.00  0.00    +0.000 C 
ENDROOT
BRANCH   1   5
ATOM      2  C   UNL     1      50.862   2.456  17.410  0.00  0.00    +0.000 A 
ATOM      3  C   UNL     1      50.636   3.802  17.730  0.00  0.00    +0.000 A 
ATOM      4  C   UNL     1      49.442   4.434  17.370  0.00  0.00    +0.000 A 
ATOM      5  C   UNL     1      48.442   3.727  16.686  0.00  0.00    +0.000 A 
ATOM      6  C   UNL     1      48.667   2.382  16.368  0.00  0.00    +0.000 A 
ATOM      7  C   UNL     1      49.861   1.751  16.730  0.00  0.00    +0.000 A 
BRANCH   2   8
ATOM      8  C   UNL     1      52.171   1.793  17.758  0.00  0.00    +0.000 C 
BRANCH   8   9
ATOM      9  N   UNL     1      51.988   0.397  18.139  0.00  0.00    +0.000 NA
ATOM     10  H   UNL     1      52.132   0.305  19.142  0.00  0.00    +0.000 HD
ATOM     11  H   UNL     1      52.714  -0.160  17.689  0.00  0.00    +0.000 HD
ENDBRANCH   8   9
ENDBRANCH   2   8
ENDBRANCH   1   5
BRANCH   1  12
ATOM     12  O   UNL     1      46.707   3.882  15.037  0.00  0.00    +0.000 OA
BRANCH  12  13
ATOM     13  C   UNL     1      46.673   4.752  13.976  0.00  0.00    +0.000 A 
ATOM     14  C   UNL     1      47.509   5.855  13.785  0.00  0.00    +0.000 A 
ATOM     15  C   UNL     1      47.373   6.644  12.637  0.00  0.00    +0.000 A 
ATOM     16  C   UNL     1      46.412   6.335  11.674  0.00  0.00    +0.000 A 
ATOM     17  C   UNL     1      45.554   5.242  11.854  0.00  0.00    +0.000 A 
ATOM     18  C   UNL     1      45.702   4.460  13.013  0.00  0.00    +0.000 A 
BRANCH  17  19
ATOM     19  C   UNL     1      44.562   4.821  10.801  0.00  0.00    +0.000 C 
BRANCH  19  20
ATOM     20  O   UNL     1      45.011   5.122   9.486  0.00  0.00    +0.000 OA
ATOM     21  H   UNL     1      45.948   5.366   9.563  0.00  0.00    +0.000 HD
ENDBRANCH  19  20
ENDBRANCH  17  19
ENDBRANCH  12  13
ENDBRANCH   1  12
TORSDOF 7
ENDMDL
MODEL 7
REMARK VINA RESULT:    -5.486      4.519      7.877
REMARK INTER + INTRA:          -8.039
REMARK INTER:                  -7.636
REMARK INTRA:                  -0.403
REMARK UNBOUND:                -0.628
REMARK  Name = 
REMARK  7 active torsions:
REMARK  status: ('A' for Active; 'I' for Inactive)
REMARK    1  A    between atoms: N_1  and  C_2
REMARK    2  A    between atoms: C_2  and  C_3
REMARK    3  A    between atoms: C_6  and  C_7
REMARK    4  A    between atoms: C_7  and  O_8
REMARK    5  A    between atoms: O_8  and  C_9
REMARK    6  A    between atoms: C_13  and  C_14
REMARK    7  A    between atoms: C_14  and  O_15
REMARK                            x       y       z     vdW  Elec       q    Type
REMARK                         _______ _______ _______ _____ _____    ______ ____
ROOT
ATOM      1  C   UNL     1      47.107   3.970  14.602  0.00  0.00    +0.000 C 
ENDROOT
BRANCH   1   5
ATOM      2  C   UNL     1      48.635   4.651  18.607  0.00  0.00    +0.000 A 
ATOM      3  C   UNL     1      48.030   3.432  18.271  0.00  0.00    +0.000 A 
ATOM      4  C   UNL     1      47.536   3.208  16.983  0.00  0.00    +0.000 A 
ATOM      5  C   UNL     1      47.642   4.200  15.998  0.00  0.00    +0.000 A 
ATOM      6  C   UNL     1      48.248   5.418  16.333  0.00  0.00    +0.000 A 
ATOM      7  C   UNL     1      48.743   5.640  17.621  0.00  0.00    +0.000 A 
BRANCH   2   8
ATOM      8  C   UNL     1      49.124   4.905  20.011  0.00  0.00    +0.000 C 
BRANCH   8   9
ATOM      9  N   UNL     1      48.527   3.982  20.969  0.00  0.00    +0.000 NA
ATOM     10  H   UNL     1      49.254   3.379  21.348  0.00  0.00    +0.000 HD
ATOM     11  H   UNL     1      47.876   3.374  20.472  0.00  0.00    +0.000 HD
ENDBRANCH   8   9
ENDBRANCH   2   8
ENDBRANCH   1   5
BRANCH   1  12
ATOM     12  O   UNL     1      46.961   5.222  13.938  0.00  0.00    +0.000 OA
BRANCH  12  13
ATOM     13  C   UNL     1      46.251   5.227  12.763  0.00  0.00    +0.000 A 
ATOM     14  C   UNL     1      46.415   6.121  11.702  0.00  0.00    +0.000 A 
ATOM     15  C   UNL     1      45.631   5.990  10.551  0.00  0.00    +0.000 A 
ATOM     16  C   UNL     1      44.686   4.968  10.448  0.00  0.00    +0.000 A 
ATOM     17  C   UNL     1      44.495   4.071  11.508  0.00  0.00    +0.000 A 
ATOM     18  C   UNL     1      45.290   4.217  12.658  0.00  0.00    +0.000 A 
BRANCH  17  19
ATOM     19  C   UNL     1      43.549   2.902  11.407  0.00  0.00    +0.000 C 
BRANCH  19  20
ATOM     20  O   UNL     1      43.510   2.136  12.603  0.00  0.00    +0.000 OA
ATOM     21  H   UNL     1      42.657   1.671  12.606  0.00  0.00    +0.000 HD
ENDBRANCH  19  20
ENDBRANCH  17  19
ENDBRANCH  12  13
ENDBRANCH   1  12
TORSDOF 7
ENDMDL
MODEL 8
REMARK VINA RESULT:    -5.326      4.710      7.952
REMARK INTER + INTRA:          -7.823
REMARK INTER:                  -7.405
REMARK INTRA:                  -0.418
REMARK UNBOUND:                -0.628
REMARK  Name = 
REMARK  7 active torsions:
REMARK  status: ('A' for Active; 'I' for Inactive)
REMARK    1  A    between atoms: N_1  and  C_2
REMARK    2  A    between atoms: C_2  and  C_3
REMARK    3  A    between atoms: C_6  and  C_7
REMARK    4  A    between atoms: C_7  and  O_8
REMARK    5  A    between atoms: O_8  and  C_9
REMARK    6  A    between atoms: C_13  and  C_14
REMARK    7  A    between atoms: C_14  and  O_15
REMARK                            x       y       z     vdW  Elec       q    Type
REMARK                         _______ _______ _______ _____ _____    ______ ____
ROOT
ATOM      1  C   UNL     1      47.127   4.875  14.120  0.00  0.00    +0.000 C 
ENDROOT
BRANCH   1   5
ATOM      2  C   UNL     1      48.438   4.709  18.254  0.00  0.00    +0.000 A 
ATOM      3  C   UNL     1      48.823   5.771  17.424  0.00  0.00    +0.000 A 
ATOM      4  C   UNL     1      48.405   5.829  16.092  0.00  0.00    +0.000 A 
ATOM      5  C   UNL     1      47.583   4.824  15.561  0.00  0.00    +0.000 A 
ATOM      6  C   UNL     1      47.197   3.763  16.390  0.00  0.00    +0.000 A 
ATOM      7  C   UNL     1      47.615   3.708  17.723  0.00  0.00    +0.000 A 
BRANCH   2   8
ATOM      8  C   UNL     1      48.933   4.627  19.677  0.00  0.00    +0.000 C 
BRANCH   8   9
ATOM      9  N   UNL     1      48.374   3.477  20.379  0.00  0.00    +0.000 NA
ATOM     10  H   UNL     1      48.898   2.644  20.123  0.00  0.00    +0.000 HD
ATOM     11  H   UNL     1      47.419   3.330  20.055  0.00  0.00    +0.000 HD
ENDBRANCH   8   9
ENDBRANCH   2   8
ENDBRANCH   1   5
BRANCH   1  12
ATOM     12  O   UNL     1      46.069   3.940  13.925  0.00  0.00    +0.000 OA
BRANCH  12  13
ATOM     13  C   UNL     1      45.163   4.220  12.932  0.00  0.00    +0.000 A 
ATOM     14  C   UNL     1      44.333   3.299  12.286  0.00  0.00    +0.000 A 
ATOM     15  C   UNL     1      43.438   3.735  11.304  0.00  0.00    +0.000 A 
ATOM     16  C   UNL     1      43.359   5.086  10.965  0.00  0.00    +0.000 A 
ATOM     17  C   UNL     1      44.192   6.023  11.590  0.00  0.00    +0.000 A 
ATOM     18  C   UNL     1      45.089   5.569  12.574  0.00  0.00    +0.000 A 
BRANCH  17  19
ATOM     19  C   UNL     1      44.081   7.501  11.318  0.00  0.00    +0.000 C 
BRANCH  19  20
ATOM     20  O   UNL     1      42.758   7.888  10.972  0.00  0.00    +0.000 OA
ATOM     21  H   UNL     1      42.668   8.822  11.223  0.00  0.00    +0.000 HD
ENDBRANCH  19  20
ENDBRANCH  17  19
ENDBRANCH  12  13
ENDBRANCH   1  12
TORSDOF 7
ENDMDL
MODEL 9
REMARK VINA RESULT:    -5.311      3.375      6.737
REMARK INTER + INTRA:          -7.802
REMARK INTER:                  -7.364
REMARK INTRA:                  -0.438
REMARK UNBOUND:                -0.628
REMARK  Name = 
REMARK  7 active torsions:
REMARK  status: ('A' for Active; 'I' for Inactive)
REMARK    1  A    between atoms: N_1  and  C_2
REMARK    2  A    between atoms: C_2  and  C_3
REMARK    3  A    between atoms: C_6  and  C_7
REMARK    4  A    between atoms: C_7  and  O_8
REMARK    5  A    between atoms: O_8  and  C_9
REMARK    6  A    between atoms: C_13  and  C_14
REMARK    7  A    between atoms: C_14  and  O_15
REMARK                            x       y       z     vdW  Elec       q    Type
REMARK                         _______ _______ _______ _____ _____    ______ ____
ROOT
ATOM      1  C   UNL     1      45.995   6.495  10.699  0.00  0.00    +0.000 C 
ENDROOT
BRANCH   1   5
ATOM      2  C   UNL     1      48.200   6.559  14.438  0.00  0.00    +0.000 A 
ATOM      3  C   UNL     1      48.352   7.591  13.501  0.00  0.00    +0.000 A 
ATOM      4  C   UNL     1      47.645   7.575  12.295  0.00  0.00    +0.000 A 
ATOM      5  C   UNL     1      46.762   6.525  12.002  0.00  0.00    +0.000 A 
ATOM      6  C   UNL     1      46.609   5.495  12.939  0.00  0.00    +0.000 A 
ATOM      7  C   UNL     1      47.315   5.513  14.145  0.00  0.00    +0.000 A 
BRANCH   2   8
ATOM      8  C   UNL     1      49.001   6.557  15.715  0.00  0.00    +0.000 C 
BRANCH   8   9
ATOM      9  N   UNL     1      48.147   6.429  16.891  0.00  0.00    +0.000 NA
ATOM     10  H   UNL     1      48.416   7.131  17.576  0.00  0.00    +0.000 HD
ATOM     11  H   UNL     1      48.321   5.521  17.321  0.00  0.00    +0.000 HD
ENDBRANCH   8   9
ENDBRANCH   2   8
ENDBRANCH   1   5
BRANCH   1  12
ATOM     12  O   UNL     1      44.834   5.683  10.851  0.00  0.00    +0.000 OA
BRANCH  12  13
ATOM     13  C   UNL     1      44.826   4.476  10.198  0.00  0.00    +0.000 A 
ATOM     14  C   UNL     1      44.205   3.303  10.635  0.00  0.00    +0.000 A 
ATOM     15  C   UNL     1      44.262   2.147   9.849  0.00  0.00    +0.000 A 
ATOM     16  C   UNL     1      44.930   2.155   8.624  0.00  0.00    +0.000 A 
ATOM     17  C   UNL     1      45.572   3.316   8.174  0.00  0.00    +0.000 A 
ATOM     18  C   UNL     1      45.508   4.469   8.977  0.00  0.00    +0.000 A 
BRANCH  17  19
ATOM     19  C   UNL     1      46.229   3.395   6.820  0.00  0.00    +0.000 C 
BRANCH  19  20
ATOM     20  O   UNL     1      47.562   3.883   6.896  0.00  0.00    +0.000 OA
ATOM     21  H   UNL     1      48.136   3.106   6.995  0.00  0.00    +0.000 HD
ENDBRANCH  19  20
ENDBRANCH  17  19
ENDBRANCH  12  13
ENDBRANCH   1  12
TORSDOF 7
ENDMDL
