MODEL 1
REMARK VINA RESULT:    -6.404      0.000      0.000
REMARK INTER + INTRA:          -8.420
REMARK INTER:                  -7.902
REMARK INTRA:                  -0.518
REMARK UNBOUND:                -0.518
REMARK  Name = 
REMARK  7 active torsions:
REMARK  status: ('A' for Active; 'I' for Inactive)
REMARK    1  A    between atoms: C_1  and  C_2
REMARK    2  A    between atoms: C_2  and  C_3
REMARK    3  A    between atoms: C_2  and  C_4
REMARK    4  A    between atoms: C_2  and  C_5
REMARK    5  A    between atoms: N_7  and  C_8
REMARK    6  A    between atoms: C_8  and  C_9
REMARK    7  A    between atoms: C_18  and  C_19
REMARK                            x       y       z     vdW  Elec       q    Type
REMARK                         _______ _______ _______ _____ _____    ______ ____
ROOT
ATOM      1  C   UNL     1      46.232   7.134  12.103  0.00  0.00    +0.000 A 
ATOM      2  C   UNL     1      45.495   6.719  11.010  0.00  0.00    +0.000 A 
ATOM      3  N   UNL     1      45.250   5.374  11.104  0.00  0.00    +0.000 N 
ATOM      4  C   UNL     1      45.864   4.865  12.229  0.00  0.00    +0.000 A 
ATOM      5  C   UNL     1      45.944   3.553  12.724  0.00  0.00    +0.000 A 
ATOM      6  C   UNL     1      46.589   3.336  13.944  0.00  0.00    +0.000 A 
ATOM      7  C   UNL     1      47.145   4.398  14.658  0.00  0.00    +0.000 A 
ATOM      8  C   UNL     1      47.091   5.699  14.137  0.00  0.00    +0.000 A 
ATOM      9  C   UNL     1      46.450   5.951  12.900  0.00  0.00    +0.000 A 
ENDROOT
BRANCH   1  11
ATOM     10  C   UNL     1      46.855   8.838  13.884  0.00  0.00    +0.000 C 
ATOM     11  C   UNL     1      46.707   8.569  12.366  0.00  0.00    +0.000 C 
ATOM     12  C   UNL     1      45.689   9.588  11.815  0.00  0.00    +0.000 C 
ATOM     13  C   UNL     1      48.083   8.827  11.726  0.00  0.00    +0.000 C 
ENDBRANCH   1  11
BRANCH   7  14
ATOM     14  C   UNL     1      47.766   4.161  15.928  0.00  0.00    +0.000 C 
ATOM     15  N   UNL     1      48.276   3.980  16.958  0.00  0.00    +0.000 NA
ENDBRANCH   7  14
BRANCH   3  16
ATOM     16  C   UNL     1      44.349   4.665  10.200  0.00  0.00    +0.000 C 
BRANCH  16  17
ATOM     17  C   UNL     1      45.088   3.787   9.226  0.00  0.00    +0.000 A 
ATOM     18  C   UNL     1      45.065   2.396   9.359  0.00  0.00    +0.000 A 
ATOM     19  C   UNL     1      45.789   1.627   8.462  0.00  0.00    +0.000 A 
ATOM     20  N   UNL     1      46.514   2.140   7.447  0.00  0.00    +0.000 NA
ATOM     21  C   UNL     1      46.518   3.484   7.325  0.00  0.00    +0.000 A 
ATOM     22  C   UNL     1      45.829   4.337   8.173  0.00  0.00    +0.000 A 
ENDBRANCH  16  17
ENDBRANCH   3  16
TORSDOF 4
ENDMDL
MODEL 2
REMARK VINA RESULT:    -5.908      0.967      1.728
REMARK INTER + INTRA:          -7.807
REMARK INTER:                  -7.259
REMARK INTRA:                  -0.548
REMARK UNBOUND:                -0.518
REMARK  Name = 
REMARK  7 active torsions:
REMARK  status: ('A' for Active; 'I' for Inactive)
REMARK    1  A    between atoms: C_1  and  C_2
REMARK    2  A    between atoms: C_2  and  C_3
REMARK    3  A    between atoms: C_2  and  C_4
REMARK    4  A    between atoms: C_2  and  C_5
REMARK    5  A    between atoms: N_7  and  C_8
REMARK    6  A    between atoms: C_8  and  C_9
REMARK    7  A    between atoms: C_18  and  C_19
REMARK                            x       y       z     vdW  Elec       q    Type
REMARK                         _______ _______ _______ _____ _____    ______ ____
ROOT
ATOM      1  C   UNL     1      47.141   7.583  12.424  0.00  0.00    +0.000 A 
ATOM      2  C   UNL     1      46.215   7.265  11.447  0.00  0.00    +0.000 A 
ATOM      3  N   UNL     1      45.665   6.039  11.716  0.00  0.00    +0.000 N 
ATOM      4  C   UNL     1      46.252   5.501  12.842  0.00  0.00    +0.000 A 
ATOM      5  C   UNL     1      46.063   4.263  13.480  0.00  0.00    +0.000 A 
ATOM      6  C   UNL     1      46.760   4.008  14.663  0.00  0.00    +0.000 A 
ATOM      7  C   UNL     1      47.626   4.959  15.203  0.00  0.00    +0.000 A 
ATOM      8  C   UNL     1      47.834   6.176  14.539  0.00  0.00    +0.000 A 
ATOM      9  C   UNL     1      47.148   6.463  13.334  0.00  0.00    +0.000 A 
ENDROOT
BRANCH   1  11
ATOM     10  C   UNL     1      49.343   8.680  11.785  0.00  0.00    +0.000 C 
ATOM     11  C   UNL     1      47.971   8.871  12.479  0.00  0.00    +0.000 C 
ATOM     12  C   UNL     1      48.248   9.278  13.940  0.00  0.00    +0.000 C 
ATOM     13  C   UNL     1      47.256  10.027  11.755  0.00  0.00    +0.000 C 
ENDBRANCH   1  11
BRANCH   7  14
ATOM     14  C   UNL     1      48.300   4.694  16.441  0.00  0.00    +0.000 C 
ATOM     15  N   UNL     1      48.835   4.481  17.452  0.00  0.00    +0.000 NA
ENDBRANCH   7  14
BRANCH   3  16
ATOM     16  C   UNL     1      44.530   5.497  10.973  0.00  0.00    +0.000 C 
BRANCH  16  17
ATOM     17  C   UNL     1      44.945   4.441   9.984  0.00  0.00    +0.000 A 
ATOM     18  C   UNL     1      45.679   4.780   8.844  0.00  0.00    +0.000 A 
ATOM     19  C   UNL     1      46.009   3.782   7.940  0.00  0.00    +0.000 A 
ATOM     20  N   UNL     1      45.673   2.485   8.098  0.00  0.00    +0.000 NA
ATOM     21  C   UNL     1      44.974   2.172   9.208  0.00  0.00    +0.000 A 
ATOM     22  C   UNL     1      44.595   3.098  10.168  0.00  0.00    +0.000 A 
ENDBRANCH  16  17
ENDBRANCH   3  16
TORSDOF 4
ENDMDL
MODEL 3
REMARK VINA RESULT:    -5.734      2.511      3.733
REMARK INTER + INTRA:          -7.593
REMARK INTER:                  -6.850
REMARK INTRA:                  -0.743
REMARK UNBOUND:                -0.518
REMARK  Name = 
REMARK  7 active torsions:
REMARK  status: ('A' for Active; 'I' for Inactive)
REMARK    1  A    between atoms: C_1  and  C_2
REMARK    2  A    between atoms: C_2  and  C_3
REMARK    3  A    between atoms: C_2  and  C_4
REMARK    4  A    between atoms: C_2  and  C_5
REMARK    5  A    between atoms: N_7  and  C_8
REMARK    6  A    between atoms: C_8  and  C_9
REMARK    7  A    between atoms: C_18  and  C_19
REMARK                            x       y       z     vdW  Elec       q    Type
REMARK                         _______ _______ _______ _____ _____    ______ ____
ROOT
ATOM      1  C   UNL     1      48.137   6.645  13.719  0.00  0.00    +0.000 A 
ATOM      2  C   UNL     1      47.458   5.761  12.902  0.00  0.00    +0.000 A 
ATOM      3  N   UNL     1      47.041   4.681  13.637  0.00  0.00    +0.000 N 
ATOM      4  C   UNL     1      47.481   4.806  14.938  0.00  0.00    +0.000 A 
ATOM      5  C   UNL     1      47.351   3.946  16.042  0.00  0.00    +0.000 A 
ATOM      6  C   UNL     1      47.849   4.366  17.278  0.00  0.00    +0.000 A 
ATOM      7  C   UNL     1      48.465   5.611  17.416  0.00  0.00    +0.000 A 
ATOM      8  C   UNL     1      48.620   6.445  16.300  0.00  0.00    +0.000 A 
ATOM      9  C   UNL     1      48.133   6.046  15.032  0.00  0.00    +0.000 A 
ENDROOT
BRANCH   1  11
ATOM     10  C   UNL     1      48.610   8.172  11.743  0.00  0.00    +0.000 C 
ATOM     11  C   UNL     1      48.759   7.974  13.272  0.00  0.00    +0.000 C 
ATOM     12  C   UNL     1      50.266   8.005  13.595  0.00  0.00    +0.000 C 
ATOM     13  C   UNL     1      48.067   9.170  13.952  0.00  0.00    +0.000 C 
ENDBRANCH   1  11
BRANCH   7  14
ATOM     14  C   UNL     1      48.932   6.041  18.702  0.00  0.00    +0.000 C 
ATOM     15  N   UNL     1      49.311   6.377  19.749  0.00  0.00    +0.000 NA
ENDBRANCH   7  14
BRANCH   3  16
ATOM     16  C   UNL     1      46.146   3.657  13.107  0.00  0.00    +0.000 C 
BRANCH  16  17
ATOM     17  C   UNL     1      44.966   4.246  12.381  0.00  0.00    +0.000 A 
ATOM     18  C   UNL     1      43.924   4.853  13.088  0.00  0.00    +0.000 A 
ATOM     19  C   UNL     1      42.839   5.350  12.382  0.00  0.00    +0.000 A 
ATOM     20  N   UNL     1      42.728   5.296  11.039  0.00  0.00    +0.000 NA
ATOM     21  C   UNL     1      43.747   4.718  10.370  0.00  0.00    +0.000 A 
ATOM     22  C   UNL     1      44.872   4.189  10.985  0.00  0.00    +0.000 A 
ENDBRANCH  16  17
ENDBRANCH   3  16
TORSDOF 4
ENDMDL
MODEL 4
REMARK VINA RESULT:    -5.397      2.701      7.273
REMARK INTER + INTRA:          -7.177
REMARK INTER:                  -6.305
REMARK INTRA:                  -0.872
REMARK UNBOUND:                -0.518
REMARK  Name = 
REMARK  7 active torsions:
REMARK  status: ('A' for Active; 'I' for Inactive)
REMARK    1  A    between atoms: C_1  and  C_2
REMARK    2  A    between atoms: C_2  and  C_3
REMARK    3  A    between atoms: C_2  and  C_4
REMARK    4  A    between atoms: C_2  and  C_5
REMARK    5  A    between atoms: N_7  and  C_8
REMARK    6  A    between atoms: C_8  and  C_9
REMARK    7  A    between atoms: C_18  and  C_19
REMARK                            x       y       z     vdW  Elec       q    Type
REMARK                         _______ _______ _______ _____ _____    ______ ____
ROOT
ATOM      1  C   UNL     1      45.904   5.967  12.405  0.00  0.00    +0.000 A 
ATOM      2  C   UNL     1      47.146   5.763  12.977  0.00  0.00    +0.000 A 
ATOM      3  N   UNL     1      47.785   6.966  13.132  0.00  0.00    +0.000 N 
ATOM      4  C   UNL     1      47.003   7.979  12.619  0.00  0.00    +0.000 A 
ATOM      5  C   UNL     1      47.240   9.359  12.502  0.00  0.00    +0.000 A 
ATOM      6  C   UNL     1      46.225  10.171  11.990  0.00  0.00    +0.000 A 
ATOM      7  C   UNL     1      45.001   9.625  11.601  0.00  0.00    +0.000 A 
ATOM      8  C   UNL     1      44.788   8.242  11.688  0.00  0.00    +0.000 A 
ATOM      9  C   UNL     1      45.799   7.391  12.196  0.00  0.00    +0.000 A 
ENDROOT
BRANCH   1  11
ATOM     10  C   UNL     1      45.434   3.470  12.437  0.00  0.00    +0.000 C 
ATOM     11  C   UNL     1      44.885   4.871  12.070  0.00  0.00    +0.000 C 
ATOM     12  C   UNL     1      44.572   4.861  10.561  0.00  0.00    +0.000 C 
ATOM     13  C   UNL     1      43.578   5.064  12.861  0.00  0.00    +0.000 C 
ENDBRANCH   1  11
BRANCH   7  14
ATOM     14  C   UNL     1      43.956  10.481  11.117  0.00  0.00    +0.000 C 
ATOM     15  N   UNL     1      43.101  11.169  10.733  0.00  0.00    +0.000 NA
ENDBRANCH   7  14
BRANCH   3  16
ATOM     16  C   UNL     1      49.038   7.110  13.868  0.00  0.00    +0.000 C 
BRANCH  16  17
ATOM     17  C   UNL     1      48.817   7.298  15.345  0.00  0.00    +0.000 A 
ATOM     18  C   UNL     1      48.621   8.573  15.881  0.00  0.00    +0.000 A 
ATOM     19  C   UNL     1      48.458   8.704  17.252  0.00  0.00    +0.000 A 
ATOM     20  N   UNL     1      48.464   7.665  18.111  0.00  0.00    +0.000 NA
ATOM     21  C   UNL     1      48.642   6.439  17.577  0.00  0.00    +0.000 A 
ATOM     22  C   UNL     1      48.817   6.206  16.222  0.00  0.00    +0.000 A 
ENDBRANCH  16  17
ENDBRANCH   3  16
TORSDOF 4
ENDMDL
MODEL 5
REMARK VINA RESULT:    -5.363      2.779      6.668
REMARK INTER + INTRA:          -7.135
REMARK INTER:                  -6.504
REMARK INTRA:                  -0.631
REMARK UNBOUND:                -0.518
REMARK  Name = 
REMARK  7 active torsions:
REMARK  status: ('A' for Active; 'I' for Inactive)
REMARK    1  A    between atoms: C_1  and  C_2
REMARK    2  A    between atoms: C_2  and  C_3
REMARK    3  A    between atoms: C_2  and  C_4
REMARK    4  A    between atoms: C_2  and  C_5
REMARK    5  A    between atoms: N_7  and  C_8
REMARK    6  A    between atoms: C_8  and  C_9
REMARK    7  A    between atoms: C_18  and  C_19
REMARK                            x       y       z     vdW  Elec       q    Type
REMARK                         _______ _______ _______ _____ _____    ______ ____
ROOT
ATOM      1  C   UNL     1      45.327   5.751  11.927  0.00  0.00    +0.000 A 
ATOM      2  C   UNL     1      46.462   5.645  12.709  0.00  0.00    +0.000 A 
ATOM      3  N   UNL     1      46.921   6.897  13.027  0.00  0.00    +0.000 N 
ATOM      4  C   UNL     1      46.131   7.851  12.420  0.00  0.00    +0.000 A 
ATOM      5  C   UNL     1      46.224   9.253  12.406  0.00  0.00    +0.000 A 
ATOM      6  C   UNL     1      45.229   9.982  11.750  0.00  0.00    +0.000 A 
ATOM      7  C   UNL     1      44.165   9.334  11.120  0.00  0.00    +0.000 A 
ATOM      8  C   UNL     1      44.102   7.934  11.110  0.00  0.00    +0.000 A 
ATOM      9  C   UNL     1      45.098   7.165  11.760  0.00  0.00    +0.000 A 
ENDROOT
BRANCH   1  11
ATOM     10  C   UNL     1      45.004   3.230  11.962  0.00  0.00    +0.000 C 
ATOM     11  C   UNL     1      44.518   4.575  11.367  0.00  0.00    +0.000 C 
ATOM     12  C   UNL     1      44.677   4.485   9.836  0.00  0.00    +0.000 C 
ATOM     13  C   UNL     1      43.024   4.709  11.717  0.00  0.00    +0.000 C 
ENDBRANCH   1  11
BRANCH   7  14
ATOM     14  C   UNL     1      43.132  10.102  10.488  0.00  0.00    +0.000 C 
ATOM     15  N   UNL     1      42.300  10.737   9.979  0.00  0.00    +0.000 NA
ENDBRANCH   7  14
BRANCH   3  16
ATOM     16  C   UNL     1      47.997   7.129  13.985  0.00  0.00    +0.000 C 
BRANCH  16  17
ATOM     17  C   UNL     1      49.277   7.555  13.317  0.00  0.00    +0.000 A 
ATOM     18  C   UNL     1      50.299   8.162  14.052  0.00  0.00    +0.000 A 
ATOM     19  C   UNL     1      51.445   8.573  13.390  0.00  0.00    +0.000 A 
ATOM     20  N   UNL     1      51.647   8.410  12.066  0.00  0.00    +0.000 NA
ATOM     21  C   UNL     1      50.657   7.812  11.372  0.00  0.00    +0.000 A 
ATOM     22  C   UNL     1      49.473   7.371  11.942  0.00  0.00    +0.000 A 
ENDBRANCH  16  17
ENDBRANCH   3  16
TORSDOF 4
ENDMDL
MODEL 6
REMARK VINA RESULT:    -5.306      1.809      6.593
REMARK INTER + INTRA:          -7.065
REMARK INTER:                  -6.584
REMARK INTRA:                  -0.480
REMARK UNBOUND:                -0.518
REMARK  Name = 
REMARK  7 active torsions:
REMARK  status: ('A' for Active; 'I' for Inactive)
REMARK    1  A    between atoms: C_1  and  C_2
REMARK    2  A    between atoms: C_2  and  C_3
REMARK    3  A    between atoms: C_2  and  C_4
REMARK    4  A    between atoms: C_2  and  C_5
REMARK    5  A    between atoms: N_7  and  C_8
REMARK    6  A    between atoms: C_8  and  C_9
REMARK    7  A    between atoms: C_18  and  C_19
REMARK                            x       y       z     vdW  Elec       q    Type
REMARK                         _______ _______ _______ _____ _____    ______ ____
ROOT
ATOM      1  C   UNL     1      47.351   6.518  13.546  0.00  0.00    +0.000 A 
ATOM      2  C   UNL     1      47.708   5.898  14.729  0.00  0.00    +0.000 A 
ATOM      3  N   UNL     1      47.222   4.616  14.742  0.00  0.00    +0.000 N 
ATOM      4  C   UNL     1      46.491   4.383  13.596  0.00  0.00    +0.000 A 
ATOM      5  C   UNL     1      45.766   3.254  13.178  0.00  0.00    +0.000 A 
ATOM      6  C   UNL     1      45.166   3.275  11.917  0.00  0.00    +0.000 A 
ATOM      7  C   UNL     1      45.281   4.392  11.088  0.00  0.00    +0.000 A 
ATOM      8  C   UNL     1      45.977   5.526  11.530  0.00  0.00    +0.000 A 
ATOM      9  C   UNL     1      46.591   5.540  12.806  0.00  0.00    +0.000 A 
ENDROOT
BRANCH   1  11
ATOM     10  C   UNL     1      46.430   8.791  12.880  0.00  0.00    +0.000 C 
ATOM     11  C   UNL     1      47.707   7.956  13.151  0.00  0.00    +0.000 C 
ATOM     12  C   UNL     1      48.550   7.974  11.860  0.00  0.00    +0.000 C 
ATOM     13  C   UNL     1      48.481   8.668  14.275  0.00  0.00    +0.000 C 
ENDBRANCH   1  11
BRANCH   7  14
ATOM     14  C   UNL     1      44.693   4.378   9.780  0.00  0.00    +0.000 C 
ATOM     15  N   UNL     1      44.219   4.353   8.718  0.00  0.00    +0.000 NA
ENDBRANCH   7  14
BRANCH   3  16
ATOM     16  C   UNL     1      47.576   3.643  15.771  0.00  0.00    +0.000 C 
BRANCH  16  17
ATOM     17  C   UNL     1      48.054   4.299  17.040  0.00  0.00    +0.000 A 
ATOM     18  C   UNL     1      49.408   4.278  17.387  0.00  0.00    +0.000 A 
ATOM     19  C   UNL     1      49.800   4.861  18.582  0.00  0.00    +0.000 A 
ATOM     20  N   UNL     1      48.950   5.467  19.436  0.00  0.00    +0.000 NA
ATOM     21  C   UNL     1      47.649   5.489  19.082  0.00  0.00    +0.000 A 
ATOM     22  C   UNL     1      47.159   4.931  17.911  0.00  0.00    +0.000 A 
ENDBRANCH  16  17
ENDBRANCH   3  16
TORSDOF 4
ENDMDL
MODEL 7
REMARK VINA RESULT:    -5.246      3.039      5.584
REMARK INTER + INTRA:          -6.991
REMARK INTER:                  -6.345
REMARK INTRA:                  -0.647
REMARK UNBOUND:                -0.518
REMARK  Name = 
REMARK  7 active torsions:
REMARK  status: ('A' for Active; 'I' for Inactive)
REMARK    1  A    between atoms: C_1  and  C_2
REMARK    2  A    between atoms: C_2  and  C_3
REMARK    3  A    between atoms: C_2  and  C_4
REMARK    4  A    between atoms: C_2  and  C_5
REMARK    5  A    between atoms: N_7  and  C_8
REMARK    6  A    between atoms: C_8  and  C_9
REMARK    7  A    between atoms: C_18  and  C_19
REMARK                            x       y       z     vdW  Elec       q    Type
REMARK                         _______ _______ _______ _____ _____    ______ ____
ROOT
ATOM      1  C   UNL     1      48.018   5.087  16.218  0.00  0.00    +0.000 A 
ATOM      2  C   UNL     1      47.314   4.732  15.083  0.00  0.00    +0.000 A 
ATOM      3  N   UNL     1      47.497   5.681  14.111  0.00  0.00    +0.000 N 
ATOM      4  C   UNL     1      48.281   6.705  14.602  0.00  0.00    +0.000 A 
ATOM      5  C   UNL     1      48.701   7.909  14.013  0.00  0.00    +0.000 A 
ATOM      6  C   UNL     1      49.559   8.743  14.735  0.00  0.00    +0.000 A 
ATOM      7  C   UNL     1      49.989   8.391  16.015  0.00  0.00    +0.000 A 
ATOM      8  C   UNL     1      49.534   7.204  16.607  0.00  0.00    +0.000 A 
ATOM      9  C   UNL     1      48.659   6.340  15.904  0.00  0.00    +0.000 A 
ENDROOT
BRANCH   1  11
ATOM     10  C   UNL     1      49.512   3.816  17.835  0.00  0.00    +0.000 C 
ATOM     11  C   UNL     1      48.068   4.283  17.523  0.00  0.00    +0.000 C 
ATOM     12  C   UNL     1      47.189   3.021  17.420  0.00  0.00    +0.000 C 
ATOM     13  C   UNL     1      47.601   5.133  18.719  0.00  0.00    +0.000 C 
ENDBRANCH   1  11
BRANCH   7  14
ATOM     14  C   UNL     1      50.903   9.240  16.723  0.00  0.00    +0.000 C 
ATOM     15  N   UNL     1      51.645   9.937  17.286  0.00  0.00    +0.000 NA
ENDBRANCH   7  14
BRANCH   3  16
ATOM     16  C   UNL     1      47.032   5.513  12.738  0.00  0.00    +0.000 C 
BRANCH  16  17
ATOM     17  C   UNL     1      45.624   4.984  12.671  0.00  0.00    +0.000 A 
ATOM     18  C   UNL     1      45.378   3.652  12.327  0.00  0.00    +0.000 A 
ATOM     19  C   UNL     1      44.066   3.215  12.241  0.00  0.00    +0.000 A 
ATOM     20  N   UNL     1      42.996   4.000  12.483  0.00  0.00    +0.000 NA
ATOM     21  C   UNL     1      43.250   5.281  12.824  0.00  0.00    +0.000 A 
ATOM     22  C   UNL     1      44.525   5.811  12.934  0.00  0.00    +0.000 A 
ENDBRANCH  16  17
ENDBRANCH   3  16
TORSDOF 4
ENDMDL
MODEL 8
REMARK VINA RESULT:    -5.235      2.891      6.300
REMARK INTER + INTRA:          -6.977
REMARK INTER:                  -6.296
REMARK INTRA:                  -0.681
REMARK UNBOUND:                -0.518
REMARK  Name = 
REMARK  7 active torsions:
REMARK  status: ('A' for Active; 'I' for Inactive)
REMARK    1  A    between atoms: C_1  and  C_2
REMARK    2  A    between atoms: C_2  and  C_3
REMARK    3  A    between atoms: C_2  and  C_4
REMARK    4  A    between atoms: C_2  and  C_5
REMARK    5  A    between atoms: N_7  and  C_8
REMARK    6  A    between atoms: C_8  and  C_9
REMARK    7  A    between atoms: C_18  and  C_19
REMARK                            x       y       z     vdW  Elec       q    Type
REMARK                         _______ _______ _______ _____ _____    ______ ____
ROOT
ATOM      1  C   UNL     1      48.082   5.409  15.478  0.00  0.00    +0.000 A 
ATOM      2  C   UNL     1      48.831   6.548  15.246  0.00  0.00    +0.000 A 
ATOM      3  N   UNL     1      48.451   7.115  14.057  0.00  0.00    +0.000 N 
ATOM      4  C   UNL     1      47.484   6.335  13.457  0.00  0.00    +0.000 A 
ATOM      5  C   UNL     1      46.825   6.470  12.224  0.00  0.00    +0.000 A 
ATOM      6  C   UNL     1      45.826   5.550  11.896  0.00  0.00    +0.000 A 
ATOM      7  C   UNL     1      45.489   4.518  12.772  0.00  0.00    +0.000 A 
ATOM      8  C   UNL     1      46.178   4.372  13.984  0.00  0.00    +0.000 A 
ATOM      9  C   UNL     1      47.200   5.284  14.343  0.00  0.00    +0.000 A 
ENDROOT
BRANCH   1  11
ATOM     10  C   UNL     1      49.567   4.701  17.415  0.00  0.00    +0.000 C 
ATOM     11  C   UNL     1      48.208   4.493  16.702  0.00  0.00    +0.000 C 
ATOM     12  C   UNL     1      48.130   3.012  16.283  0.00  0.00    +0.000 C 
ATOM     13  C   UNL     1      47.106   4.790  17.735  0.00  0.00    +0.000 C 
ENDBRANCH   1  11
BRANCH   7  14
ATOM     14  C   UNL     1      44.431   3.609  12.436  0.00  0.00    +0.000 C 
ATOM     15  N   UNL     1      43.579   2.862  12.170  0.00  0.00    +0.000 NA
ENDBRANCH   7  14
BRANCH   3  16
ATOM     16  C   UNL     1      48.925   8.422  13.613  0.00  0.00    +0.000 C 
BRANCH  16  17
ATOM     17  C   UNL     1      50.210   8.330  12.833  0.00  0.00    +0.000 A 
ATOM     18  C   UNL     1      50.212   7.870  11.513  0.00  0.00    +0.000 A 
ATOM     19  C   UNL     1      51.421   7.767  10.844  0.00  0.00    +0.000 A 
ATOM     20  N   UNL     1      52.611   8.098  11.386  0.00  0.00    +0.000 NA
ATOM     21  C   UNL     1      52.591   8.551  12.657  0.00  0.00    +0.000 A 
ATOM     22  C   UNL     1      51.435   8.687  13.410  0.00  0.00    +0.000 A 
ENDBRANCH  16  17
ENDBRANCH   3  16
TORSDOF 4
ENDMDL
MODEL 9
REMARK VINA RESULT:    -5.131      2.582      6.953
REMARK INTER + INTRA:          -6.849
REMARK INTER:                  -6.092
REMARK INTRA:                  -0.757
REMARK UNBOUND:                -0.518
REMARK  Name = 
REMARK  7 active torsions:
REMARK  status: ('A' for Active; 'I' for Inactive)
REMARK    1  A    between atoms: C_1  and  C_2
REMARK    2  A    between atoms: C_2  and  C_3
REMARK    3  A    between atoms: C_2  and  C_4
REMARK    4  A    between atoms: C_2  and  C_5
REMARK    5  A    between atoms: N_7  and  C_8
REMARK    6  A    between atoms: C_8  and  C_9
REMARK    7  A    between atoms: C_18  and  C_19
REMARK                            x       y       z     vdW  Elec       q    Type
REMARK                         _______ _______ _______ _____ _____    ______ ____
ROOT
ATOM      1  C   UNL     1      45.261   5.068  12.774  0.00  0.00    +0.000 A 
ATOM      2  C   UNL     1      46.222   4.332  13.442  0.00  0.00    +0.000 A 
ATOM      3  N   UNL     1      47.202   5.170  13.909  0.00  0.00    +0.000 N 
ATOM      4  C   UNL     1      46.935   6.465  13.514  0.00  0.00    +0.000 A 
ATOM      5  C   UNL     1      47.659   7.654  13.702  0.00  0.00    +0.000 A 
ATOM      6  C   UNL     1      47.108   8.852  13.241  0.00  0.00    +0.000 A 
ATOM      7  C   UNL     1      45.866   8.869  12.605  0.00  0.00    +0.000 A 
ATOM      8  C   UNL     1      45.169   7.672  12.390  0.00  0.00    +0.000 A 
ATOM      9  C   UNL     1      45.704   6.440  12.840  0.00  0.00    +0.000 A 
ENDROOT
BRANCH   1  11
ATOM     10  C   UNL     1      42.722   5.143  12.688  0.00  0.00    +0.000 C 
ATOM     11  C   UNL     1      44.004   4.496  12.108  0.00  0.00    +0.000 C 
ATOM     12  C   UNL     1      43.902   2.977  12.351  0.00  0.00    +0.000 C 
ATOM     13  C   UNL     1      44.002   4.771  10.593  0.00  0.00    +0.000 C 
ENDBRANCH   1  11
BRANCH   7  14
ATOM     14  C   UNL     1      45.298  10.115  12.176  0.00  0.00    +0.000 C 
ATOM     15  N   UNL     1      44.849  11.131  11.829  0.00  0.00    +0.000 NA
ENDBRANCH   7  14
BRANCH   3  16
ATOM     16  C   UNL     1      48.265   4.727  14.805  0.00  0.00    +0.000 C 
BRANCH  16  17
ATOM     17  C   UNL     1      48.047   5.184  16.223  0.00  0.00    +0.000 A 
ATOM     18  C   UNL     1      48.726   6.296  16.727  0.00  0.00    +0.000 A 
ATOM     19  C   UNL     1      48.523   6.660  18.049  0.00  0.00    +0.000 A 
ATOM     20  N   UNL     1      47.692   6.009  18.888  0.00  0.00    +0.000 NA
ATOM     21  C   UNL     1      47.035   4.944  18.384  0.00  0.00    +0.000 A 
ATOM     22  C   UNL     1      47.173   4.500  17.078  0.00  0.00    +0.000 A 
ENDBRANCH  16  17
ENDBRANCH   3  16
TORSDOF 4
ENDMDL
