MODEL 1
REMARK VINA RESULT:    -7.598      0.000      0.000
REMARK INTER + INTRA:          -9.507
REMARK INTER:                  -9.152
REMARK INTRA:                  -0.355
REMARK UNBOUND:                -0.355
REMARK  Name = 
REMARK  4 active torsions:
REMARK  status: ('A' for Active; 'I' for Inactive)
REMARK    1  A    between atoms: N_1  and  C_2
REMARK    2  A    between atoms: C_2  and  C_3
REMARK    3  A    between atoms: N_5  and  C_6
REMARK    4  A    between atoms: C_6  and  C_7
REMARK                            x       y       z     vdW  Elec       q    Type
REMARK                         _______ _______ _______ _____ _____    ______ ____
ROOT
ATOM      1  C   UNL     1      43.658   3.297  11.116  0.00  0.00    +0.000 C 
ENDROOT
BRANCH   1   2
ATOM      2  C   UNL     1      44.399   3.253   9.809  0.00  0.00    +0.000 A 
ATOM      3  N   UNL     1      44.484   4.396   9.098  0.00  0.00    +0.000 NA
ATOM      4  C   UNL     1      45.246   4.348   7.988  0.00  0.00    +0.000 A 
ATOM      5  C   UNL     1      45.928   3.217   7.566  0.00  0.00    +0.000 A 
ATOM      6  C   UNL     1      46.761   3.185   6.429  0.00  0.00    +0.000 A 
ATOM      7  C   UNL     1      47.427   2.010   6.091  0.00  0.00    +0.000 A 
ATOM      8  C   UNL     1      47.249   0.874   6.872  0.00  0.00    +0.000 A 
ATOM      9  C   UNL     1      46.410   0.918   7.990  0.00  0.00    +0.000 A 
ATOM     10  C   UNL     1      45.748   2.081   8.360  0.00  0.00    +0.000 A 
ATOM     11  N   UNL     1      44.984   2.090   9.460  0.00  0.00    +0.000 NA
ENDBRANCH   1   2
BRANCH   1  14
ATOM     12  C   UNL     1      45.856   4.539  13.687  0.00  0.00    +0.000 A 
ATOM     13  C   UNL     1      45.542   3.560  12.765  0.00  0.00    +0.000 A 
ATOM     14  N   UNL     1      44.421   4.011  12.125  0.00  0.00    +0.000 N 
ATOM     15  C   UNL     1      44.101   5.228  12.662  0.00  0.00    +0.000 A 
ATOM     16  N   UNL     1      44.950   5.578  13.603  0.00  0.00    +0.000 NA
BRANCH  12  17
ATOM     17  C   UNL     1      46.965   4.573  14.683  0.00  0.00    +0.000 C 
BRANCH  17  18
ATOM     18  N   UNL     1      47.591   3.255  14.759  0.00  0.00    +0.000 NA
ATOM     19  H   UNL     1      46.947   2.619  15.224  0.00  0.00    +0.000 HD
ATOM     20  H   UNL     1      48.399   3.344  15.376  0.00  0.00    +0.000 HD
ENDBRANCH  17  18
ENDBRANCH  12  17
ENDBRANCH   1  14
TORSDOF 4
ENDMDL
MODEL 2
REMARK VINA RESULT:    -7.277      1.807      2.898
REMARK INTER + INTRA:          -9.121
REMARK INTER:                  -8.773
REMARK INTRA:                  -0.348
REMARK UNBOUND:                -0.355
REMARK  Name = 
REMARK  4 active torsions:
REMARK  status: ('A' for Active; 'I' for Inactive)
REMARK    1  A    between atoms: N_1  and  C_2
REMARK    2  A    between atoms: C_2  and  C_3
REMARK    3  A    between atoms: N_5  and  C_6
REMARK    4  A    between atoms: C_6  and  C_7
REMARK                            x       y       z     vdW  Elec       q    Type
REMARK                         _______ _______ _______ _____ _____    ______ ____
ROOT
ATOM      1  C   UNL     1      43.361   4.963  10.494  0.00  0.00    +0.000 C 
ENDROOT
BRANCH   1   2
ATOM      2  C   UNL     1      44.238   3.924   9.851  0.00  0.00    +0.000 A 
ATOM      3  N   UNL     1      44.014   2.633  10.168  0.00  0.00    +0.000 NA
ATOM      4  C   UNL     1      44.744   1.724   9.493  0.00  0.00    +0.000 A 
ATOM      5  C   UNL     1      45.674   2.047   8.517  0.00  0.00    +0.000 A 
ATOM      6  C   UNL     1      46.401   1.089   7.782  0.00  0.00    +0.000 A 
ATOM      7  C   UNL     1      47.300   1.504   6.802  0.00  0.00    +0.000 A 
ATOM      8  C   UNL     1      47.481   2.862   6.572  0.00  0.00    +0.000 A 
ATOM      9  C   UNL     1      46.762   3.801   7.318  0.00  0.00    +0.000 A 
ATOM     10  C   UNL     1      45.847   3.415   8.288  0.00  0.00    +0.000 A 
ATOM     11  N   UNL     1      45.150   4.346   8.953  0.00  0.00    +0.000 NA
ENDBRANCH   1   2
BRANCH   1  14
ATOM     12  C   UNL     1      45.181   7.348  12.491  0.00  0.00    +0.000 A 
ATOM     13  C   UNL     1      44.389   7.080  11.392  0.00  0.00    +0.000 A 
ATOM     14  N   UNL     1      44.105   5.743  11.468  0.00  0.00    +0.000 N 
ATOM     15  C   UNL     1      44.714   5.257  12.591  0.00  0.00    +0.000 A 
ATOM     16  N   UNL     1      45.367   6.200  13.234  0.00  0.00    +0.000 NA
BRANCH  12  17
ATOM     17  C   UNL     1      45.810   8.635  12.905  0.00  0.00    +0.000 C 
BRANCH  17  18
ATOM     18  N   UNL     1      44.814   9.702  12.853  0.00  0.00    +0.000 NA
ATOM     19  H   UNL     1      44.797  10.082  11.909  0.00  0.00    +0.000 HD
ATOM     20  H   UNL     1      45.151  10.454  13.456  0.00  0.00    +0.000 HD
ENDBRANCH  17  18
ENDBRANCH  12  17
ENDBRANCH   1  14
TORSDOF 4
ENDMDL
MODEL 3
REMARK VINA RESULT:    -7.022      2.134      6.361
REMARK INTER + INTRA:          -8.814
REMARK INTER:                  -8.468
REMARK INTRA:                  -0.346
REMARK UNBOUND:                -0.355
REMARK  Name = 
REMARK  4 active torsions:
REMARK  status: ('A' for Active; 'I' for Inactive)
REMARK    1  A    between atoms: N_1  and  C_2
REMARK    2  A    between atoms: C_2  and  C_3
REMARK    3  A    between atoms: N_5  and  C_6
REMARK    4  A    between atoms: C_6  and  C_7
REMARK                            x       y       z     vdW  Elec       q    Type
REMARK                         _______ _______ _______ _____ _____    ______ ____
ROOT
ATOM      1  C   UNL     1      44.298   3.695   9.595  0.00  0.00    +0.000 C 
ENDROOT
BRANCH   1   2
ATOM      2  C   UNL     1      44.994   4.225  10.817  0.00  0.00    +0.000 A 
ATOM      3  N   UNL     1      45.032   3.434  11.909  0.00  0.00    +0.000 NA
ATOM      4  C   UNL     1      45.755   3.893  12.948  0.00  0.00    +0.000 A 
ATOM      5  C   UNL     1      46.444   5.096  12.941  0.00  0.00    +0.000 A 
ATOM      6  C   UNL     1      47.237   5.551  14.014  0.00  0.00    +0.000 A 
ATOM      7  C   UNL     1      47.915   6.763  13.910  0.00  0.00    +0.000 A 
ATOM      8  C   UNL     1      47.786   7.521  12.752  0.00  0.00    +0.000 A 
ATOM      9  C   UNL     1      46.986   7.064  11.701  0.00  0.00    +0.000 A 
ATOM     10  C   UNL     1      46.315   5.850  11.770  0.00  0.00    +0.000 A 
ATOM     11  N   UNL     1      45.589   5.431  10.725  0.00  0.00    +0.000 NA
ENDBRANCH   1   2
BRANCH   1  14
ATOM     12  C   UNL     1      46.560   2.649   6.992  0.00  0.00    +0.000 A 
ATOM     13  C   UNL     1      45.802   3.645   7.575  0.00  0.00    +0.000 A 
ATOM     14  N   UNL     1      45.244   3.071   8.685  0.00  0.00    +0.000 N 
ATOM     15  C   UNL     1      45.677   1.776   8.741  0.00  0.00    +0.000 A 
ATOM     16  N   UNL     1      46.477   1.490   7.738  0.00  0.00    +0.000 NA
BRANCH  12  17
ATOM     17  C   UNL     1      47.369   2.694   5.741  0.00  0.00    +0.000 C 
BRANCH  17  18
ATOM     18  N   UNL     1      48.474   1.743   5.841  0.00  0.00    +0.000 NA
ATOM     19  H   UNL     1      48.640   1.544   6.825  0.00  0.00    +0.000 HD
ATOM     20  H   UNL     1      49.310   2.220   5.503  0.00  0.00    +0.000 HD
ENDBRANCH  17  18
ENDBRANCH  12  17
ENDBRANCH   1  14
TORSDOF 4
ENDMDL
MODEL 4
REMARK VINA RESULT:    -6.488      1.832      2.100
REMARK INTER + INTRA:          -8.170
REMARK INTER:                  -7.939
REMARK INTRA:                  -0.232
REMARK UNBOUND:                -0.355
REMARK  Name = 
REMARK  4 active torsions:
REMARK  status: ('A' for Active; 'I' for Inactive)
REMARK    1  A    between atoms: N_1  and  C_2
REMARK    2  A    between atoms: C_2  and  C_3
REMARK    3  A    between atoms: N_5  and  C_6
REMARK    4  A    between atoms: C_6  and  C_7
REMARK                            x       y       z     vdW  Elec       q    Type
REMARK                         _______ _______ _______ _____ _____    ______ ____
ROOT
ATOM      1  C   UNL     1      44.334   4.584  11.041  0.00  0.00    +0.000 C 
ENDROOT
BRANCH   1   2
ATOM      2  C   UNL     1      45.028   4.145   9.781  0.00  0.00    +0.000 A 
ATOM      3  N   UNL     1      45.506   5.104   8.964  0.00  0.00    +0.000 NA
ATOM      4  C   UNL     1      46.215   4.676   7.901  0.00  0.00    +0.000 A 
ATOM      5  C   UNL     1      46.471   3.341   7.627  0.00  0.00    +0.000 A 
ATOM      6  C   UNL     1      47.251   2.901   6.539  0.00  0.00    +0.000 A 
ATOM      7  C   UNL     1      47.476   1.539   6.354  0.00  0.00    +0.000 A 
ATOM      8  C   UNL     1      46.912   0.627   7.237  0.00  0.00    +0.000 A 
ATOM      9  C   UNL     1      46.129   1.078   8.305  0.00  0.00    +0.000 A 
ATOM     10  C   UNL     1      45.904   2.430   8.523  0.00  0.00    +0.000 A 
ATOM     11  N   UNL     1      45.180   2.821   9.580  0.00  0.00    +0.000 NA
ENDBRANCH   1   2
BRANCH   1  14
ATOM     12  C   UNL     1      46.324   7.082  12.712  0.00  0.00    +0.000 A 
ATOM     13  C   UNL     1      46.165   5.774  12.296  0.00  0.00    +0.000 A 
ATOM     14  N   UNL     1      44.980   5.754  11.612  0.00  0.00    +0.000 N 
ATOM     15  C   UNL     1      44.474   7.024  11.628  0.00  0.00    +0.000 A 
ATOM     16  N   UNL     1      45.262   7.850  12.278  0.00  0.00    +0.000 NA
BRANCH  12  17
ATOM     17  C   UNL     1      47.420   7.684  13.522  0.00  0.00    +0.000 C 
BRANCH  17  18
ATOM     18  N   UNL     1      46.902   8.829  14.268  0.00  0.00    +0.000 NA
ATOM     19  H   UNL     1      47.319   8.824  15.196  0.00  0.00    +0.000 HD
ATOM     20  H   UNL     1      45.904   8.669  14.404  0.00  0.00    +0.000 HD
ENDBRANCH  17  18
ENDBRANCH  12  17
ENDBRANCH   1  14
TORSDOF 4
ENDMDL
MODEL 5
REMARK VINA RESULT:    -6.202      4.161      6.604
REMARK INTER + INTRA:          -7.826
REMARK INTER:                  -7.486
REMARK INTRA:                  -0.340
REMARK UNBOUND:                -0.355
REMARK  Name = 
REMARK  4 active torsions:
REMARK  status: ('A' for Active; 'I' for Inactive)
REMARK    1  A    between atoms: N_1  and  C_2
REMARK    2  A    between atoms: C_2  and  C_3
REMARK    3  A    between atoms: N_5  and  C_6
REMARK    4  A    between atoms: C_6  and  C_7
REMARK                            x       y       z     vdW  Elec       q    Type
REMARK                         _______ _______ _______ _____ _____    ______ ____
ROOT
ATOM      1  C   UNL     1      47.511   4.065  17.013  0.00  0.00    +0.000 C 
ENDROOT
BRANCH   1   2
ATOM      2  C   UNL     1      47.358   4.811  15.716  0.00  0.00    +0.000 A 
ATOM      3  N   UNL     1      48.252   5.782  15.443  0.00  0.00    +0.000 NA
ATOM      4  C   UNL     1      48.152   6.354  14.228  0.00  0.00    +0.000 A 
ATOM      5  C   UNL     1      47.208   5.994  13.278  0.00  0.00    +0.000 A 
ATOM      6  C   UNL     1      47.136   6.565  11.991  0.00  0.00    +0.000 A 
ATOM      7  C   UNL     1      46.168   6.125  11.091  0.00  0.00    +0.000 A 
ATOM      8  C   UNL     1      45.270   5.138  11.481  0.00  0.00    +0.000 A 
ATOM      9  C   UNL     1      45.346   4.590  12.766  0.00  0.00    +0.000 A 
ATOM     10  C   UNL     1      46.313   4.997  13.675  0.00  0.00    +0.000 A 
ATOM     11  N   UNL     1      46.374   4.419  14.882  0.00  0.00    +0.000 NA
ENDBRANCH   1   2
BRANCH   1  14
ATOM     12  C   UNL     1      50.615   2.253  17.280  0.00  0.00    +0.000 A 
ATOM     13  C   UNL     1      49.786   3.259  17.734  0.00  0.00    +0.000 A 
ATOM     14  N   UNL     1      48.655   3.170  16.969  0.00  0.00    +0.000 N 
ATOM     15  C   UNL     1      48.829   2.131  16.098  0.00  0.00    +0.000 A 
ATOM     16  N   UNL     1      49.998   1.553  16.263  0.00  0.00    +0.000 NA
BRANCH  12  17
ATOM     17  C   UNL     1      51.991   1.895  17.727  0.00  0.00    +0.000 C 
BRANCH  17  18
ATOM     18  N   UNL     1      52.028   0.484  18.105  0.00  0.00    +0.000 NA
ATOM     19  H   UNL     1      52.991   0.232  18.317  0.00  0.00    +0.000 HD
ATOM     20  H   UNL     1      51.770  -0.053  17.277  0.00  0.00    +0.000 HD
ENDBRANCH  17  18
ENDBRANCH  12  17
ENDBRANCH   1  14
TORSDOF 4
ENDMDL
MODEL 6
REMARK VINA RESULT:    -6.009      2.212      6.262
REMARK INTER + INTRA:          -7.593
REMARK INTER:                  -7.275
REMARK INTRA:                  -0.318
REMARK UNBOUND:                -0.355
REMARK  Name = 
REMARK  4 active torsions:
REMARK  status: ('A' for Active; 'I' for Inactive)
REMARK    1  A    between atoms: N_1  and  C_2
REMARK    2  A    between atoms: C_2  and  C_3
REMARK    3  A    between atoms: N_5  and  C_6
REMARK    4  A    between atoms: C_6  and  C_7
REMARK                            x       y       z     vdW  Elec       q    Type
REMARK                         _______ _______ _______ _____ _____    ______ ____
ROOT
ATOM      1  C   UNL     1      43.804   4.222  11.174  0.00  0.00    +0.000 C 
ENDROOT
BRANCH   1   2
ATOM      2  C   UNL     1      44.656   5.364  11.655  0.00  0.00    +0.000 A 
ATOM      3  N   UNL     1      44.229   6.616  11.395  0.00  0.00    +0.000 NA
ATOM      4  C   UNL     1      44.958   7.613  11.933  0.00  0.00    +0.000 A 
ATOM      5  C   UNL     1      46.081   7.414  12.720  0.00  0.00    +0.000 A 
ATOM      6  C   UNL     1      46.814   8.459  13.318  0.00  0.00    +0.000 A 
ATOM      7  C   UNL     1      47.918   8.165  14.114  0.00  0.00    +0.000 A 
ATOM      8  C   UNL     1      48.296   6.839  14.295  0.00  0.00    +0.000 A 
ATOM      9  C   UNL     1      47.567   5.814  13.686  0.00  0.00    +0.000 A 
ATOM     10  C   UNL     1      46.452   6.078  12.903  0.00  0.00    +0.000 A 
ATOM     11  N   UNL     1      45.759   5.064  12.368  0.00  0.00    +0.000 NA
ENDBRANCH   1   2
BRANCH   1  14
ATOM     12  C   UNL     1      45.469   3.018   8.214  0.00  0.00    +0.000 A 
ATOM     13  C   UNL     1      45.102   4.076   9.021  0.00  0.00    +0.000 A 
ATOM     14  N   UNL     1      44.450   3.512  10.083  0.00  0.00    +0.000 N 
ATOM     15  C   UNL     1      44.450   2.158   9.894  0.00  0.00    +0.000 A 
ATOM     16  N   UNL     1      45.062   1.826   8.779  0.00  0.00    +0.000 NA
BRANCH  12  17
ATOM     17  C   UNL     1      46.182   3.037   6.905  0.00  0.00    +0.000 C 
BRANCH  17  18
ATOM     18  N   UNL     1      46.988   4.251   6.806  0.00  0.00    +0.000 NA
ATOM     19  H   UNL     1      46.391   5.009   6.483  0.00  0.00    +0.000 HD
ATOM     20  H   UNL     1      47.674   4.095   6.068  0.00  0.00    +0.000 HD
ENDBRANCH  17  18
ENDBRANCH  12  17
ENDBRANCH   1  14
TORSDOF 4
ENDMDL
MODEL 7
REMARK VINA RESULT:    -5.879      3.093      6.568
REMARK INTER + INTRA:          -7.438
REMARK INTER:                  -7.181
REMARK INTRA:                  -0.257
REMARK UNBOUND:                -0.355
REMARK  Name = 
REMARK  4 active torsions:
REMARK  status: ('A' for Active; 'I' for Inactive)
REMARK    1  A    between atoms: N_1  and  C_2
REMARK    2  A    between atoms: C_2  and  C_3
REMARK    3  A    between atoms: N_5  and  C_6
REMARK    4  A    between atoms: C_6  and  C_7
REMARK                            x       y       z     vdW  Elec       q    Type
REMARK                         _______ _______ _______ _____ _____    ______ ____
ROOT
ATOM      1  C   UNL     1      43.727   4.886  11.406  0.00  0.00    +0.000 C 
ENDROOT
BRANCH   1   2
ATOM      2  C   UNL     1      44.685   5.985  11.777  0.00  0.00    +0.000 A 
ATOM      3  N   UNL     1      45.901   5.627  12.236  0.00  0.00    +0.000 NA
ATOM      4  C   UNL     1      46.770   6.632  12.456  0.00  0.00    +0.000 A 
ATOM      5  C   UNL     1      46.481   7.969  12.231  0.00  0.00    +0.000 A 
ATOM      6  C   UNL     1      47.409   9.013  12.419  0.00  0.00    +0.000 A 
ATOM      7  C   UNL     1      47.038  10.327  12.145  0.00  0.00    +0.000 A 
ATOM      8  C   UNL     1      45.748  10.596  11.705  0.00  0.00    +0.000 A 
ATOM      9  C   UNL     1      44.834   9.551  11.534  0.00  0.00    +0.000 A 
ATOM     10  C   UNL     1      45.183   8.231  11.782  0.00  0.00    +0.000 A 
ATOM     11  N   UNL     1      44.288   7.256  11.570  0.00  0.00    +0.000 NA
ENDBRANCH   1   2
BRANCH   1  14
ATOM     12  C   UNL     1      45.204   3.335   8.507  0.00  0.00    +0.000 A 
ATOM     13  C   UNL     1      44.959   4.474   9.248  0.00  0.00    +0.000 A 
ATOM     14  N   UNL     1      44.278   4.047  10.355  0.00  0.00    +0.000 N 
ATOM     15  C   UNL     1      44.142   2.690  10.256  0.00  0.00    +0.000 A 
ATOM     16  N   UNL     1      44.694   2.229   9.156  0.00  0.00    +0.000 NA
BRANCH  12  17
ATOM     17  C   UNL     1      45.887   3.199   7.190  0.00  0.00    +0.000 C 
BRANCH  17  18
ATOM     18  N   UNL     1      46.833   4.299   7.015  0.00  0.00    +0.000 NA
ATOM     19  H   UNL     1      47.756   3.906   6.846  0.00  0.00    +0.000 HD
ATOM     20  H   UNL     1      46.891   4.787   7.909  0.00  0.00    +0.000 HD
ENDBRANCH  17  18
ENDBRANCH  12  17
ENDBRANCH   1  14
TORSDOF 4
ENDMDL
MODEL 8
REMARK VINA RESULT:    -5.841      3.132      6.042
REMARK INTER + INTRA:          -7.391
REMARK INTER:                  -7.165
REMARK INTRA:                  -0.227
REMARK UNBOUND:                -0.355
REMARK  Name = 
REMARK  4 active torsions:
REMARK  status: ('A' for Active; 'I' for Inactive)
REMARK    1  A    between atoms: N_1  and  C_2
REMARK    2  A    between atoms: C_2  and  C_3
REMARK    3  A    between atoms: N_5  and  C_6
REMARK    4  A    between atoms: C_6  and  C_7
REMARK                            x       y       z     vdW  Elec       q    Type
REMARK                         _______ _______ _______ _____ _____    ______ ____
ROOT
ATOM      1  C   UNL     1      45.112   4.762  13.422  0.00  0.00    +0.000 C 
ENDROOT
BRANCH   1   2
ATOM      2  C   UNL     1      45.841   5.971  12.903  0.00  0.00    +0.000 A 
ATOM      3  N   UNL     1      45.108   7.061  12.598  0.00  0.00    +0.000 NA
ATOM      4  C   UNL     1      45.801   8.159  12.240  0.00  0.00    +0.000 A 
ATOM      5  C   UNL     1      47.185   8.216  12.182  0.00  0.00    +0.000 A 
ATOM      6  C   UNL     1      47.907   9.380  11.850  0.00  0.00    +0.000 A 
ATOM      7  C   UNL     1      49.300   9.353  11.839  0.00  0.00    +0.000 A 
ATOM      8  C   UNL     1      49.962   8.168  12.139  0.00  0.00    +0.000 A 
ATOM      9  C   UNL     1      49.233   7.017  12.453  0.00  0.00    +0.000 A 
ATOM     10  C   UNL     1      47.845   7.022  12.490  0.00  0.00    +0.000 A 
ATOM     11  N   UNL     1      47.186   5.908  12.833  0.00  0.00    +0.000 NA
ENDBRANCH   1   2
BRANCH   1  14
ATOM     12  C   UNL     1      44.383   2.969  10.382  0.00  0.00    +0.000 A 
ATOM     13  C   UNL     1      45.230   3.788  11.103  0.00  0.00    +0.000 A 
ATOM     14  N   UNL     1      44.641   3.928  12.330  0.00  0.00    +0.000 N 
ATOM     15  C   UNL     1      43.485   3.198  12.317  0.00  0.00    +0.000 A 
ATOM     16  N   UNL     1      43.302   2.603  11.159  0.00  0.00    +0.000 NA
BRANCH  12  17
ATOM     17  C   UNL     1      44.503   2.499   8.973  0.00  0.00    +0.000 C 
BRANCH  17  18
ATOM     18  N   UNL     1      44.454   3.648   8.071  0.00  0.00    +0.000 NA
ATOM     19  H   UNL     1      43.814   3.433   7.310  0.00  0.00    +0.000 HD
ATOM     20  H   UNL     1      45.379   3.735   7.648  0.00  0.00    +0.000 HD
ENDBRANCH  17  18
ENDBRANCH  12  17
ENDBRANCH   1  14
TORSDOF 4
ENDMDL
MODEL 9
REMARK VINA RESULT:    -5.514      3.695      7.415
REMARK INTER + INTRA:          -6.997
REMARK INTER:                  -6.791
REMARK INTRA:                  -0.206
REMARK UNBOUND:                -0.355
REMARK  Name = 
REMARK  4 active torsions:
REMARK  status: ('A' for Active; 'I' for Inactive)
REMARK    1  A    between atoms: N_1  and  C_2
REMARK    2  A    between atoms: C_2  and  C_3
REMARK    3  A    between atoms: N_5  and  C_6
REMARK    4  A    between atoms: C_6  and  C_7
REMARK                            x       y       z     vdW  Elec       q    Type
REMARK                         _______ _______ _______ _____ _____    ______ ____
ROOT
ATOM      1  C   UNL     1      47.248   6.214  12.767  0.00  0.00    +0.000 C 
ENDROOT
BRANCH   1   2
ATOM      2  C   UNL     1      47.793   5.946  14.143  0.00  0.00    +0.000 A 
ATOM      3  N   UNL     1      48.504   6.925  14.737  0.00  0.00    +0.000 NA
ATOM      4  C   UNL     1      48.884   6.693  16.008  0.00  0.00    +0.000 A 
ATOM      5  C   UNL     1      48.578   5.536  16.709  0.00  0.00    +0.000 A 
ATOM      6  C   UNL     1      48.939   5.318  18.054  0.00  0.00    +0.000 A 
ATOM      7  C   UNL     1      48.569   4.134  18.687  0.00  0.00    +0.000 A 
ATOM      8  C   UNL     1      47.862   3.171  17.976  0.00  0.00    +0.000 A 
ATOM      9  C   UNL     1      47.522   3.396  16.638  0.00  0.00    +0.000 A 
ATOM     10  C   UNL     1      47.862   4.575  15.989  0.00  0.00    +0.000 A 
ATOM     11  N   UNL     1      47.484   4.767  14.718  0.00  0.00    +0.000 NA
ENDBRANCH   1   2
BRANCH   1  14
ATOM     12  C   UNL     1      44.252   4.354  12.026  0.00  0.00    +0.000 A 
ATOM     13  C   UNL     1      45.631   4.434  12.021  0.00  0.00    +0.000 A 
ATOM     14  N   UNL     1      45.926   5.634  12.607  0.00  0.00    +0.000 N 
ATOM     15  C   UNL     1      44.742   6.228  12.948  0.00  0.00    +0.000 A 
ATOM     16  N   UNL     1      43.714   5.479  12.616  0.00  0.00    +0.000 NA
BRANCH  12  17
ATOM     17  C   UNL     1      43.371   3.278  11.490  0.00  0.00    +0.000 C 
BRANCH  17  18
ATOM     18  N   UNL     1      43.482   2.091  12.335  0.00  0.00    +0.000 NA
ATOM     19  H   UNL     1      43.970   1.367  11.812  0.00  0.00    +0.000 HD
ATOM     20  H   UNL     1      42.535   1.743  12.485  0.00  0.00    +0.000 HD
ENDBRANCH  17  18
ENDBRANCH  12  17
ENDBRANCH   1  14
TORSDOF 4
ENDMDL
