MODEL 1
REMARK VINA RESULT:    -7.989      0.000      0.000
REMARK INTER + INTRA:         -10.462
REMARK INTER:                  -9.857
REMARK INTRA:                  -0.606
REMARK UNBOUND:                -0.606
REMARK  Name = 
REMARK  4 active torsions:
REMARK  status: ('A' for Active; 'I' for Inactive)
REMARK    1  A    between atoms: C_2  and  C_3
REMARK    2  A    between atoms: C_6  and  N_7
REMARK    3  A    between atoms: N_7  and  C_8
REMARK    4  A    between atoms: C_8  and  C_9
REMARK                            x       y       z     vdW  Elec       q    Type
REMARK                         _______ _______ _______ _____ _____    ______ ____
ROOT
ATOM      1  C   UNL     1      44.041   4.726  11.576  0.00  0.00    +0.000 C 
ATOM      2  C   UNL     1      43.014   3.693  12.015  0.00  0.00    +0.000 C 
ATOM      3  C   UNL     1      42.765   5.128  12.321  0.00  0.00    +0.000 C 
ENDROOT
BRANCH   1   4
ATOM      4  C   UNL     1      45.290   4.997  12.426  0.00  0.00    +0.000 A 
ATOM      5  C   UNL     1      45.786   4.017  13.268  0.00  0.00    +0.000 A 
ATOM      6  C   UNL     1      47.075   4.187  13.704  0.00  0.00    +0.000 A 
ATOM      7  N   UNL     1      47.833   5.249  13.377  0.00  0.00    +0.000 NA
ATOM      8  C   UNL     1      47.263   6.202  12.627  0.00  0.00    +0.000 A 
ATOM      9  N   UNL     1      47.997   7.272  12.189  0.00  0.00    +0.000 N 
ATOM     10  C   UNL     1      49.443   7.318  12.362  0.00  0.00    +0.000 C 
ATOM     11  C   UNL     1      49.838   8.334  13.441  0.00  0.00    +0.000 C 
ATOM     12  O   UNL     1      49.227   9.617  13.219  0.00  0.00    +0.000 OA
ATOM     13  C   UNL     1      47.795   9.490  13.219  0.00  0.00    +0.000 C 
ATOM     14  C   UNL     1      47.318   8.563  12.091  0.00  0.00    +0.000 C 
ATOM     15  N   UNL     1      46.005   6.110  12.170  0.00  0.00    +0.000 NA
ENDBRANCH   1   4
BRANCH   1  16
ATOM     16  N   UNL     1      44.182   5.004  10.132  0.00  0.00    +0.000 N 
ATOM     17  H   UNL     1      43.388   5.427   9.660  0.00  0.00    +0.000 HD
BRANCH  16  21
ATOM     18  C   UNL     1      46.743   2.830   7.539  0.00  0.00    +0.000 A 
ATOM     19  C   UNL     1      45.849   2.139   8.360  0.00  0.00    +0.000 A 
ATOM     20  C   UNL     1      45.004   2.841   9.233  0.00  0.00    +0.000 A 
ATOM     21  C   UNL     1      44.988   4.240   9.260  0.00  0.00    +0.000 A 
ATOM     22  C   UNL     1      45.907   4.916   8.441  0.00  0.00    +0.000 A 
ATOM     23  C   UNL     1      46.775   4.222   7.588  0.00  0.00    +0.000 A 
BRANCH  18  25
ATOM     24  N   UNL     1      48.330   1.528   5.940  0.00  0.00    +0.000 NA
ATOM     25  C   UNL     1      47.618   2.110   6.655  0.00  0.00    +0.000 C 
ENDBRANCH  18  25
ENDBRANCH  16  21
ENDBRANCH   1  16
TORSDOF 4
ENDMDL
MODEL 2
REMARK VINA RESULT:    -7.759      1.232      2.041
REMARK INTER + INTRA:         -10.179
REMARK INTER:                  -9.759
REMARK INTRA:                  -0.420
REMARK UNBOUND:                -0.606
REMARK  Name = 
REMARK  4 active torsions:
REMARK  status: ('A' for Active; 'I' for Inactive)
REMARK    1  A    between atoms: C_2  and  C_3
REMARK    2  A    between atoms: C_6  and  N_7
REMARK    3  A    between atoms: N_7  and  C_8
REMARK    4  A    between atoms: C_8  and  C_9
REMARK                            x       y       z     vdW  Elec       q    Type
REMARK                         _______ _______ _______ _____ _____    ______ ____
ROOT
ATOM      1  C   UNL     1      44.537   4.479  11.595  0.00  0.00    +0.000 C 
ATOM      2  C   UNL     1      45.054   3.445  12.585  0.00  0.00    +0.000 C 
ATOM      3  C   UNL     1      43.755   4.117  12.861  0.00  0.00    +0.000 C 
ENDROOT
BRANCH   1   4
ATOM      4  C   UNL     1      45.038   5.929  11.647  0.00  0.00    +0.000 A 
ATOM      5  C   UNL     1      44.202   6.968  11.279  0.00  0.00    +0.000 A 
ATOM      6  C   UNL     1      44.576   8.222  11.688  0.00  0.00    +0.000 A 
ATOM      7  N   UNL     1      45.701   8.469  12.383  0.00  0.00    +0.000 NA
ATOM      8  C   UNL     1      46.507   7.429  12.635  0.00  0.00    +0.000 A 
ATOM      9  N   UNL     1      47.629   7.590  13.404  0.00  0.00    +0.000 N 
ATOM     10  C   UNL     1      47.881   8.833  14.121  0.00  0.00    +0.000 C 
ATOM     11  C   UNL     1      49.021   9.625  13.469  0.00  0.00    +0.000 C 
ATOM     12  O   UNL     1      50.191   8.812  13.265  0.00  0.00    +0.000 OA
ATOM     13  C   UNL     1      49.874   7.694  12.419  0.00  0.00    +0.000 C 
ATOM     14  C   UNL     1      48.806   6.794  13.059  0.00  0.00    +0.000 C 
ATOM     15  N   UNL     1      46.213   6.175  12.258  0.00  0.00    +0.000 NA
ENDBRANCH   1   4
BRANCH   1  16
ATOM     16  N   UNL     1      44.073   4.012  10.272  0.00  0.00    +0.000 N 
ATOM     17  H   UNL     1      43.128   3.646  10.213  0.00  0.00    +0.000 HD
BRANCH  16  21
ATOM     18  C   UNL     1      46.755   2.534   7.333  0.00  0.00    +0.000 A 
ATOM     19  C   UNL     1      46.110   1.637   8.187  0.00  0.00    +0.000 A 
ATOM     20  C   UNL     1      45.230   2.110   9.174  0.00  0.00    +0.000 A 
ATOM     21  C   UNL     1      44.928   3.472   9.286  0.00  0.00    +0.000 A 
ATOM     22  C   UNL     1      45.601   4.359   8.431  0.00  0.00    +0.000 A 
ATOM     23  C   UNL     1      46.504   3.899   7.464  0.00  0.00    +0.000 A 
BRANCH  18  25
ATOM     24  N   UNL     1      48.403   1.661   5.520  0.00  0.00    +0.000 NA
ATOM     25  C   UNL     1      47.667   2.052   6.332  0.00  0.00    +0.000 C 
ENDBRANCH  18  25
ENDBRANCH  16  21
ENDBRANCH   1  16
TORSDOF 4
ENDMDL
MODEL 3
REMARK VINA RESULT:    -7.596      2.307      3.456
REMARK INTER + INTRA:          -9.977
REMARK INTER:                  -9.859
REMARK INTRA:                  -0.118
REMARK UNBOUND:                -0.606
REMARK  Name = 
REMARK  4 active torsions:
REMARK  status: ('A' for Active; 'I' for Inactive)
REMARK    1  A    between atoms: C_2  and  C_3
REMARK    2  A    between atoms: C_6  and  N_7
REMARK    3  A    between atoms: N_7  and  C_8
REMARK    4  A    between atoms: C_8  and  C_9
REMARK                            x       y       z     vdW  Elec       q    Type
REMARK                         _______ _______ _______ _____ _____    ______ ____
ROOT
ATOM      1  C   UNL     1      44.434   4.437  12.167  0.00  0.00    +0.000 C 
ATOM      2  C   UNL     1      43.612   3.353  12.848  0.00  0.00    +0.000 C 
ATOM      3  C   UNL     1      43.310   4.779  13.149  0.00  0.00    +0.000 C 
ENDROOT
BRANCH   1   4
ATOM      4  C   UNL     1      45.804   4.846  12.724  0.00  0.00    +0.000 A 
ATOM      5  C   UNL     1      46.555   5.816  12.084  0.00  0.00    +0.000 A 
ATOM      6  C   UNL     1      47.567   6.381  12.816  0.00  0.00    +0.000 A 
ATOM      7  N   UNL     1      47.861   6.017  14.078  0.00  0.00    +0.000 NA
ATOM      8  C   UNL     1      47.148   5.015  14.608  0.00  0.00    +0.000 A 
ATOM      9  N   UNL     1      47.337   4.643  15.913  0.00  0.00    +0.000 N 
ATOM     10  C   UNL     1      48.170   5.433  16.810  0.00  0.00    +0.000 C 
ATOM     11  C   UNL     1      49.494   4.718  17.108  0.00  0.00    +0.000 C 
ATOM     12  O   UNL     1      49.284   3.360  17.537  0.00  0.00    +0.000 OA
ATOM     13  C   UNL     1      48.589   2.622  16.517  0.00  0.00    +0.000 C 
ATOM     14  C   UNL     1      47.204   3.224  16.239  0.00  0.00    +0.000 C 
ATOM     15  N   UNL     1      46.149   4.407  13.951  0.00  0.00    +0.000 NA
ENDBRANCH   1   4
BRANCH   1  16
ATOM     16  N   UNL     1      44.248   4.649  10.716  0.00  0.00    +0.000 N 
ATOM     17  H   UNL     1      43.307   4.855  10.393  0.00  0.00    +0.000 HD
BRANCH  16  21
ATOM     18  C   UNL     1      46.498   2.655   7.720  0.00  0.00    +0.000 A 
ATOM     19  C   UNL     1      46.471   4.052   7.744  0.00  0.00    +0.000 A 
ATOM     20  C   UNL     1      45.720   4.727   8.719  0.00  0.00    +0.000 A 
ATOM     21  C   UNL     1      45.040   4.031   9.724  0.00  0.00    +0.000 A 
ATOM     22  C   UNL     1      45.065   2.628   9.672  0.00  0.00    +0.000 A 
ATOM     23  C   UNL     1      45.785   1.944   8.684  0.00  0.00    +0.000 A 
BRANCH  18  25
ATOM     24  N   UNL     1      47.869   1.401   5.899  0.00  0.00    +0.000 NA
ATOM     25  C   UNL     1      47.254   1.964   6.713  0.00  0.00    +0.000 C 
ENDBRANCH  18  25
ENDBRANCH  16  21
ENDBRANCH   1  16
TORSDOF 4
ENDMDL
MODEL 4
REMARK VINA RESULT:    -5.815      3.388      5.758
REMARK INTER + INTRA:          -7.781
REMARK INTER:                  -7.894
REMARK INTRA:                   0.114
REMARK UNBOUND:                -0.606
REMARK  Name = 
REMARK  4 active torsions:
REMARK  status: ('A' for Active; 'I' for Inactive)
REMARK    1  A    between atoms: C_2  and  C_3
REMARK    2  A    between atoms: C_6  and  N_7
REMARK    3  A    between atoms: N_7  and  C_8
REMARK    4  A    between atoms: C_8  and  C_9
REMARK                            x       y       z     vdW  Elec       q    Type
REMARK                         _______ _______ _______ _____ _____    ______ ____
ROOT
ATOM      1  C   UNL     1      48.296   7.736  12.723  0.00  0.00    +0.000 C 
ATOM      2  C   UNL     1      48.896   8.794  11.809  0.00  0.00    +0.000 C 
ATOM      3  C   UNL     1      48.989   7.363  11.408  0.00  0.00    +0.000 C 
ENDROOT
BRANCH   1   4
ATOM      4  C   UNL     1      49.082   7.213  13.933  0.00  0.00    +0.000 A 
ATOM      5  C   UNL     1      50.294   7.784  14.277  0.00  0.00    +0.000 A 
ATOM      6  C   UNL     1      50.748   7.527  15.545  0.00  0.00    +0.000 A 
ATOM      7  N   UNL     1      50.095   6.742  16.421  0.00  0.00    +0.000 NA
ATOM      8  C   UNL     1      48.970   6.153  15.994  0.00  0.00    +0.000 A 
ATOM      9  N   UNL     1      48.209   5.404  16.854  0.00  0.00    +0.000 N 
ATOM     10  C   UNL     1      48.491   5.377  18.283  0.00  0.00    +0.000 C 
ATOM     11  C   UNL     1      49.097   4.033  18.701  0.00  0.00    +0.000 C 
ATOM     12  O   UNL     1      48.313   2.921  18.231  0.00  0.00    +0.000 OA
ATOM     13  C   UNL     1      48.223   2.952  16.797  0.00  0.00    +0.000 C 
ATOM     14  C   UNL     1      47.528   4.231  16.309  0.00  0.00    +0.000 C 
ATOM     15  N   UNL     1      48.467   6.350  14.766  0.00  0.00    +0.000 NA
ENDBRANCH   1   4
BRANCH   1  16
ATOM     16  N   UNL     1      46.825   7.661  12.838  0.00  0.00    +0.000 N 
ATOM     17  H   UNL     1      46.388   8.202  13.579  0.00  0.00    +0.000 HD
BRANCH  16  21
ATOM     18  C   UNL     1      44.447   4.272  11.904  0.00  0.00    +0.000 A 
ATOM     19  C   UNL     1      44.822   5.150  10.884  0.00  0.00    +0.000 A 
ATOM     20  C   UNL     1      45.597   6.283  11.178  0.00  0.00    +0.000 A 
ATOM     21  C   UNL     1      46.065   6.528  12.474  0.00  0.00    +0.000 A 
ATOM     22  C   UNL     1      45.662   5.644  13.487  0.00  0.00    +0.000 A 
ATOM     23  C   UNL     1      44.862   4.528  13.210  0.00  0.00    +0.000 A 
BRANCH  18  25
ATOM     24  N   UNL     1      42.988   2.186  11.367  0.00  0.00    +0.000 NA
ATOM     25  C   UNL     1      43.641   3.120  11.606  0.00  0.00    +0.000 C 
ENDBRANCH  18  25
ENDBRANCH  16  21
ENDBRANCH   1  16
TORSDOF 4
ENDMDL
MODEL 5
REMARK VINA RESULT:    -5.679      3.817      7.570
REMARK INTER + INTRA:          -7.613
REMARK INTER:                  -7.757
REMARK INTRA:                   0.144
REMARK UNBOUND:                -0.606
REMARK  Name = 
REMARK  4 active torsions:
REMARK  status: ('A' for Active; 'I' for Inactive)
REMARK    1  A    between atoms: C_2  and  C_3
REMARK    2  A    between atoms: C_6  and  N_7
REMARK    3  A    between atoms: N_7  and  C_8
REMARK    4  A    between atoms: C_8  and  C_9
REMARK                            x       y       z     vdW  Elec       q    Type
REMARK                         _______ _______ _______ _____ _____    ______ ____
ROOT
ATOM      1  C   UNL     1      48.456   6.679  15.335  0.00  0.00    +0.000 C 
ATOM      2  C   UNL     1      49.876   7.204  15.482  0.00  0.00    +0.000 C 
ATOM      3  C   UNL     1      48.744   8.067  15.914  0.00  0.00    +0.000 C 
ENDROOT
BRANCH   1   4
ATOM      4  C   UNL     1      47.721   6.779  13.991  0.00  0.00    +0.000 A 
ATOM      5  C   UNL     1      48.239   7.555  12.969  0.00  0.00    +0.000 A 
ATOM      6  C   UNL     1      47.746   7.313  11.713  0.00  0.00    +0.000 A 
ATOM      7  N   UNL     1      46.790   6.401  11.456  0.00  0.00    +0.000 NA
ATOM      8  C   UNL     1      46.274   5.742  12.502  0.00  0.00    +0.000 A 
ATOM      9  N   UNL     1      45.356   4.745  12.309  0.00  0.00    +0.000 N 
ATOM     10  C   UNL     1      45.054   4.244  10.975  0.00  0.00    +0.000 C 
ATOM     11  C   UNL     1      43.665   4.703  10.513  0.00  0.00    +0.000 C 
ATOM     12  O   UNL     1      42.653   4.420  11.495  0.00  0.00    +0.000 OA
ATOM     13  C   UNL     1      42.963   5.085  12.732  0.00  0.00    +0.000 C 
ATOM     14  C   UNL     1      44.299   4.595  13.309  0.00  0.00    +0.000 C 
ATOM     15  N   UNL     1      46.699   5.932  13.761  0.00  0.00    +0.000 NA
ENDBRANCH   1   4
BRANCH   1  16
ATOM     16  N   UNL     1      48.021   5.577  16.217  0.00  0.00    +0.000 N 
ATOM     17  H   UNL     1      47.278   5.777  16.881  0.00  0.00    +0.000 HD
BRANCH  16  21
ATOM     18  C   UNL     1      50.546   2.365  17.366  0.00  0.00    +0.000 A 
ATOM     19  C   UNL     1      50.886   3.670  17.730  0.00  0.00    +0.000 A 
ATOM     20  C   UNL     1      50.070   4.745  17.347  0.00  0.00    +0.000 A 
ATOM     21  C   UNL     1      48.872   4.538  16.654  0.00  0.00    +0.000 A 
ATOM     22  C   UNL     1      48.558   3.221  16.281  0.00  0.00    +0.000 A 
ATOM     23  C   UNL     1      49.382   2.144  16.631  0.00  0.00    +0.000 A 
BRANCH  18  25
ATOM     24  N   UNL     1      52.074   0.375  18.056  0.00  0.00    +0.000 NA
ATOM     25  C   UNL     1      51.390   1.265  17.745  0.00  0.00    +0.000 C 
ENDBRANCH  18  25
ENDBRANCH  16  21
ENDBRANCH   1  16
TORSDOF 4
ENDMDL
MODEL 6
REMARK VINA RESULT:    -5.316      3.230      6.718
REMARK INTER + INTRA:          -7.164
REMARK INTER:                  -6.842
REMARK INTRA:                  -0.322
REMARK UNBOUND:                -0.606
REMARK  Name = 
REMARK  4 active torsions:
REMARK  status: ('A' for Active; 'I' for Inactive)
REMARK    1  A    between atoms: C_2  and  C_3
REMARK    2  A    between atoms: C_6  and  N_7
REMARK    3  A    between atoms: N_7  and  C_8
REMARK    4  A    between atoms: C_8  and  C_9
REMARK                            x       y       z     vdW  Elec       q    Type
REMARK                         _______ _______ _______ _____ _____    ______ ____
ROOT
ATOM      1  C   UNL     1      48.099   7.921  13.054  0.00  0.00    +0.000 C 
ATOM      2  C   UNL     1      47.391   8.900  12.130  0.00  0.00    +0.000 C 
ATOM      3  C   UNL     1      47.187   9.024  13.599  0.00  0.00    +0.000 C 
ENDROOT
BRANCH   1   4
ATOM      4  C   UNL     1      47.509   6.529  13.318  0.00  0.00    +0.000 A 
ATOM      5  C   UNL     1      47.905   5.802  14.427  0.00  0.00    +0.000 A 
ATOM      6  C   UNL     1      47.092   4.761  14.793  0.00  0.00    +0.000 A 
ATOM      7  N   UNL     1      45.980   4.417  14.118  0.00  0.00    +0.000 NA
ATOM      8  C   UNL     1      45.699   5.110  13.006  0.00  0.00    +0.000 A 
ATOM      9  N   UNL     1      44.544   4.869  12.312  0.00  0.00    +0.000 N 
ATOM     10  C   UNL     1      43.506   4.000  12.850  0.00  0.00    +0.000 C 
ATOM     11  C   UNL     1      43.455   2.666  12.095  0.00  0.00    +0.000 C 
ATOM     12  O   UNL     1      43.384   2.860  10.670  0.00  0.00    +0.000 OA
ATOM     13  C   UNL     1      44.532   3.597  10.214  0.00  0.00    +0.000 C 
ATOM     14  C   UNL     1      44.591   4.991  10.856  0.00  0.00    +0.000 C 
ATOM     15  N   UNL     1      46.452   6.136  12.580  0.00  0.00    +0.000 NA
ENDBRANCH   1   4
BRANCH   1  16
ATOM     16  N   UNL     1      49.566   8.027  13.196  0.00  0.00    +0.000 N 
ATOM     17  H   UNL     1      49.926   8.313  14.102  0.00  0.00    +0.000 HD
BRANCH  16  21
ATOM     18  C   UNL     1      52.272   9.152  10.126  0.00  0.00    +0.000 A 
ATOM     19  C   UNL     1      51.823   7.831  10.196  0.00  0.00    +0.000 A 
ATOM     20  C   UNL     1      50.939   7.438  11.213  0.00  0.00    +0.000 A 
ATOM     21  C   UNL     1      50.436   8.363  12.136  0.00  0.00    +0.000 A 
ATOM     22  C   UNL     1      50.914   9.681  12.060  0.00  0.00    +0.000 A 
ATOM     23  C   UNL     1      51.820  10.075  11.067  0.00  0.00    +0.000 A 
BRANCH  18  25
ATOM     24  N   UNL     1      53.933   9.870   8.257  0.00  0.00    +0.000 NA
ATOM     25  C   UNL     1      53.188   9.550   9.093  0.00  0.00    +0.000 C 
ENDBRANCH  18  25
ENDBRANCH  16  21
ENDBRANCH   1  16
TORSDOF 4
ENDMDL
MODEL 7
REMARK VINA RESULT:    -5.307      3.730      8.599
REMARK INTER + INTRA:          -7.154
REMARK INTER:                  -6.877
REMARK INTRA:                  -0.277
REMARK UNBOUND:                -0.606
REMARK  Name = 
REMARK  4 active torsions:
REMARK  status: ('A' for Active; 'I' for Inactive)
REMARK    1  A    between atoms: C_2  and  C_3
REMARK    2  A    between atoms: C_6  and  N_7
REMARK    3  A    between atoms: N_7  and  C_8
REMARK    4  A    between atoms: C_8  and  C_9
REMARK                            x       y       z     vdW  Elec       q    Type
REMARK                         _______ _______ _______ _____ _____    ______ ____
ROOT
ATOM      1  C   UNL     1      48.016   7.981  13.618  0.00  0.00    +0.000 C 
ATOM      2  C   UNL     1      49.363   8.255  12.967  0.00  0.00    +0.000 C 
ATOM      3  C   UNL     1      48.124   8.482  12.174  0.00  0.00    +0.000 C 
ENDROOT
BRANCH   1   4
ATOM      4  C   UNL     1      47.448   6.557  13.671  0.00  0.00    +0.000 A 
ATOM      5  C   UNL     1      47.892   5.665  14.633  0.00  0.00    +0.000 A 
ATOM      6  C   UNL     1      47.102   4.567  14.852  0.00  0.00    +0.000 A 
ATOM      7  N   UNL     1      45.969   4.320  14.169  0.00  0.00    +0.000 NA
ATOM      8  C   UNL     1      45.642   5.180  13.195  0.00  0.00    +0.000 A 
ATOM      9  N   UNL     1      44.464   5.038  12.511  0.00  0.00    +0.000 N 
ATOM     10  C   UNL     1      43.455   4.077  12.936  0.00  0.00    +0.000 C 
ATOM     11  C   UNL     1      43.388   2.883  11.975  0.00  0.00    +0.000 C 
ATOM     12  O   UNL     1      43.264   3.305  10.605  0.00  0.00    +0.000 OA
ATOM     13  C   UNL     1      44.388   4.123  10.235  0.00  0.00    +0.000 C 
ATOM     14  C   UNL     1      44.457   5.395  11.093  0.00  0.00    +0.000 C 
ATOM     15  N   UNL     1      46.369   6.273  12.916  0.00  0.00    +0.000 NA
ENDBRANCH   1   4
BRANCH   1  16
ATOM     16  N   UNL     1      47.558   8.889  14.690  0.00  0.00    +0.000 N 
ATOM     17  H   UNL     1      46.870   9.595  14.440  0.00  0.00    +0.000 HD
BRANCH  16  21
ATOM     18  C   UNL     1      49.903  10.228  17.964  0.00  0.00    +0.000 A 
ATOM     19  C   UNL     1      49.303   8.967  18.019  0.00  0.00    +0.000 A 
ATOM     20  C   UNL     1      48.513   8.515  16.951  0.00  0.00    +0.000 A 
ATOM     21  C   UNL     1      48.359   9.276  15.787  0.00  0.00    +0.000 A 
ATOM     22  C   UNL     1      48.955  10.547  15.759  0.00  0.00    +0.000 A 
ATOM     23  C   UNL     1      49.719  11.021  16.833  0.00  0.00    +0.000 A 
BRANCH  18  25
ATOM     24  N   UNL     1      51.348  11.077  19.954  0.00  0.00    +0.000 NA
ATOM     25  C   UNL     1      50.700  10.697  19.064  0.00  0.00    +0.000 C 
ENDBRANCH  18  25
ENDBRANCH  16  21
ENDBRANCH   1  16
TORSDOF 4
ENDMDL
MODEL 8
REMARK VINA RESULT:    -5.293      2.956      7.230
REMARK INTER + INTRA:          -7.136
REMARK INTER:                  -7.192
REMARK INTRA:                   0.056
REMARK UNBOUND:                -0.606
REMARK  Name = 
REMARK  4 active torsions:
REMARK  status: ('A' for Active; 'I' for Inactive)
REMARK    1  A    between atoms: C_2  and  C_3
REMARK    2  A    between atoms: C_6  and  N_7
REMARK    3  A    between atoms: N_7  and  C_8
REMARK    4  A    between atoms: C_8  and  C_9
REMARK                            x       y       z     vdW  Elec       q    Type
REMARK                         _______ _______ _______ _____ _____    ______ ____
ROOT
ATOM      1  C   UNL     1      46.880   7.662  13.274  0.00  0.00    +0.000 C 
ATOM      2  C   UNL     1      46.938   8.709  12.172  0.00  0.00    +0.000 C 
ATOM      3  C   UNL     1      45.646   8.476  12.874  0.00  0.00    +0.000 C 
ENDROOT
BRANCH   1   4
ATOM      4  C   UNL     1      46.701   6.177  12.933  0.00  0.00    +0.000 A 
ATOM      5  C   UNL     1      46.947   5.207  13.889  0.00  0.00    +0.000 A 
ATOM      6  C   UNL     1      46.427   3.963  13.640  0.00  0.00    +0.000 A 
ATOM      7  N   UNL     1      45.739   3.658  12.525  0.00  0.00    +0.000 NA
ATOM      8  C   UNL     1      45.609   4.621  11.602  0.00  0.00    +0.000 A 
ATOM      9  N   UNL     1      44.855   4.408  10.478  0.00  0.00    +0.000 N 
ATOM     10  C   UNL     1      44.028   3.217  10.338  0.00  0.00    +0.000 C 
ATOM     11  C   UNL     1      44.627   2.245   9.315  0.00  0.00    +0.000 C 
ATOM     12  O   UNL     1      44.938   2.900   8.071  0.00  0.00    +0.000 OA
ATOM     13  C   UNL     1      45.880   3.963   8.294  0.00  0.00    +0.000 C 
ATOM     14  C   UNL     1      45.304   5.031   9.234  0.00  0.00    +0.000 C 
ATOM     15  N   UNL     1      46.098   5.859  11.771  0.00  0.00    +0.000 NA
ENDBRANCH   1   4
BRANCH   1  16
ATOM     16  N   UNL     1      47.579   7.943  14.545  0.00  0.00    +0.000 N 
ATOM     17  H   UNL     1      47.168   8.640  15.159  0.00  0.00    +0.000 HD
BRANCH  16  21
ATOM     18  C   UNL     1      51.794   7.779  15.018  0.00  0.00    +0.000 A 
ATOM     19  C   UNL     1      50.979   7.010  15.851  0.00  0.00    +0.000 A 
ATOM     20  C   UNL     1      49.583   7.062  15.718  0.00  0.00    +0.000 A 
ATOM     21  C   UNL     1      48.977   7.827  14.715  0.00  0.00    +0.000 A 
ATOM     22  C   UNL     1      49.812   8.608  13.900  0.00  0.00    +0.000 A 
ATOM     23  C   UNL     1      51.205   8.586  14.046  0.00  0.00    +0.000 A 
BRANCH  18  25
ATOM     24  N   UNL     1      54.381   7.703  15.279  0.00  0.00    +0.000 NA
ATOM     25  C   UNL     1      53.223   7.736  15.164  0.00  0.00    +0.000 C 
ENDBRANCH  18  25
ENDBRANCH  16  21
ENDBRANCH   1  16
TORSDOF 4
ENDMDL
MODEL 9
REMARK VINA RESULT:    -5.127      3.859      6.530
REMARK INTER + INTRA:          -6.931
REMARK INTER:                  -6.398
REMARK INTRA:                  -0.533
REMARK UNBOUND:                -0.606
REMARK  Name = 
REMARK  4 active torsions:
REMARK  status: ('A' for Active; 'I' for Inactive)
REMARK    1  A    between atoms: C_2  and  C_3
REMARK    2  A    between atoms: C_6  and  N_7
REMARK    3  A    between atoms: N_7  and  C_8
REMARK    4  A    between atoms: C_8  and  C_9
REMARK                            x       y       z     vdW  Elec       q    Type
REMARK                         _______ _______ _______ _____ _____    ______ ____
ROOT
ATOM      1  C   UNL     1      49.460   7.835  13.469  0.00  0.00    +0.000 C 
ATOM      2  C   UNL     1      49.602   9.046  12.558  0.00  0.00    +0.000 C 
ATOM      3  C   UNL     1      50.832   8.351  13.026  0.00  0.00    +0.000 C 
ENDROOT
BRANCH   1   4
ATOM      4  C   UNL     1      49.259   8.013  14.980  0.00  0.00    +0.000 A 
ATOM      5  C   UNL     1      48.880   9.241  15.493  0.00  0.00    +0.000 A 
ATOM      6  C   UNL     1      48.374   9.237  16.767  0.00  0.00    +0.000 A 
ATOM      7  N   UNL     1      48.265   8.125  17.517  0.00  0.00    +0.000 NA
ATOM      8  C   UNL     1      48.728   6.983  16.990  0.00  0.00    +0.000 A 
ATOM      9  N   UNL     1      48.579   5.799  17.662  0.00  0.00    +0.000 N 
ATOM     10  C   UNL     1      47.761   5.710  18.864  0.00  0.00    +0.000 C 
ATOM     11  C   UNL     1      48.633   5.546  20.115  0.00  0.00    +0.000 C 
ATOM     12  O   UNL     1      49.587   4.479  19.968  0.00  0.00    +0.000 OA
ATOM     13  C   UNL     1      50.448   4.736  18.845  0.00  0.00    +0.000 C 
ATOM     14  C   UNL     1      49.649   4.810  17.536  0.00  0.00    +0.000 C 
ATOM     15  N   UNL     1      49.245   6.910  15.754  0.00  0.00    +0.000 NA
ENDBRANCH   1   4
BRANCH   1  16
ATOM     16  N   UNL     1      48.911   6.588  12.897  0.00  0.00    +0.000 N 
ATOM     17  H   UNL     1      49.478   6.104  12.207  0.00  0.00    +0.000 HD
BRANCH  16  21
ATOM     18  C   UNL     1      44.787   5.838  12.229  0.00  0.00    +0.000 A 
ATOM     19  C   UNL     1      45.429   5.234  13.313  0.00  0.00    +0.000 A 
ATOM     20  C   UNL     1      46.795   5.460  13.540  0.00  0.00    +0.000 A 
ATOM     21  C   UNL     1      47.530   6.338  12.736  0.00  0.00    +0.000 A 
ATOM     22  C   UNL     1      46.872   6.922  11.642  0.00  0.00    +0.000 A 
ATOM     23  C   UNL     1      45.516   6.677  11.388  0.00  0.00    +0.000 A 
BRANCH  18  25
ATOM     24  N   UNL     1      42.261   5.396  11.795  0.00  0.00    +0.000 NA
ATOM     25  C   UNL     1      43.391   5.595  11.988  0.00  0.00    +0.000 C 
ENDBRANCH  18  25
ENDBRANCH  16  21
ENDBRANCH   1  16
TORSDOF 4
ENDMDL
