MODEL 1
REMARK VINA RESULT:    -8.110      0.000      0.000
REMARK INTER + INTRA:         -11.806
REMARK INTER:                 -10.954
REMARK INTRA:                  -0.851
REMARK UNBOUND:                -0.851
REMARK  Name = 
REMARK  7 active torsions:
REMARK  status: ('A' for Active; 'I' for Inactive)
REMARK    1  A    between atoms: C_1  and  C_2
REMARK    2  A    between atoms: C_4  and  C_5
REMARK    3  A    between atoms: C_5  and  N_6
REMARK    4  A    between atoms: C_7  and  C_9
REMARK    5  A    between atoms: C_16  and  C_17
REMARK    6  A    between atoms: C_17  and  N_18
REMARK    7  A    between atoms: C_19  and  C_21
REMARK                            x       y       z     vdW  Elec       q    Type
REMARK                         _______ _______ _______ _____ _____    ______ ____
ROOT
ATOM      1  C   UNL     1      45.163   9.232  12.139  0.00  0.00    +0.000 C 
ATOM      2  C   UNL     1      45.409   7.747  12.145  0.00  0.00    +0.000 A 
ATOM      3  C   UNL     1      44.541   6.924  11.396  0.00  0.00    +0.000 A 
ATOM      4  C   UNL     1      44.705   5.533  11.347  0.00  0.00    +0.000 A 
ATOM      5  C   UNL     1      45.725   4.956  12.107  0.00  0.00    +0.000 A 
ATOM      6  C   UNL     1      46.595   5.759  12.855  0.00  0.00    +0.000 A 
ATOM      7  C   UNL     1      46.473   7.160  12.864  0.00  0.00    +0.000 A 
ENDROOT
BRANCH   4   8
ATOM      8  C   UNL     1      43.785   4.680  10.511  0.00  0.00    +0.000 C 
BRANCH   8   9
ATOM      9  N   UNL     1      44.515   3.671   9.790  0.00  0.00    +0.000 N 
ATOM     10  C   UNL     1      45.377   3.974   8.762  0.00  0.00    +0.000 C 
ATOM     11  O   UNL     1      45.565   5.132   8.389  0.00  0.00    +0.000 OA
ATOM     12  H   UNL     1      44.445   2.706  10.087  0.00  0.00    +0.000 HD
BRANCH  10  13
ATOM     13  C   UNL     1      46.049   2.831   8.145  0.00  0.00    +0.000 A 
ATOM     14  C   UNL     1      45.888   1.491   8.457  0.00  0.00    +0.000 A 
ATOM     15  C   UNL     1      46.707   0.634   7.657  0.00  0.00    +0.000 A 
ATOM     16  C   UNL     1      47.470   1.344   6.764  0.00  0.00    +0.000 A 
ATOM     17  S   UNL     1      47.197   3.027   6.881  0.00  0.00    +0.000 S 
ENDBRANCH  10  13
ENDBRANCH   8   9
ENDBRANCH   4   8
BRANCH   7  18
ATOM     18  C   UNL     1      47.466   7.954  13.691  0.00  0.00    +0.000 C 
BRANCH  18  19
ATOM     19  N   UNL     1      47.863   7.215  14.860  0.00  0.00    +0.000 N 
ATOM     20  C   UNL     1      49.167   6.909  15.150  0.00  0.00    +0.000 C 
ATOM     21  O   UNL     1      50.081   7.095  14.351  0.00  0.00    +0.000 OA
ATOM     22  H   UNL     1      47.165   7.151  15.596  0.00  0.00    +0.000 HD
BRANCH  20  23
ATOM     23  C   UNL     1      49.416   6.342  16.487  0.00  0.00    +0.000 A 
ATOM     24  C   UNL     1      50.183   7.032  17.418  0.00  0.00    +0.000 A 
ATOM     25  S   UNL     1      50.286   6.250  18.933  0.00  0.00    +0.000 S 
ATOM     26  C   UNL     1      49.261   4.993  18.418  0.00  0.00    +0.000 A 
ATOM     27  N   UNL     1      48.848   4.022  19.277  0.00  0.00    +0.000 NA
ATOM     28  C   UNL     1      48.052   3.149  18.753  0.00  0.00    +0.000 A 
ATOM     29  N   UNL     1      47.662   3.135  17.441  0.00  0.00    +0.000 N 
ATOM     30  C   UNL     1      48.115   4.050  16.524  0.00  0.00    +0.000 A 
ATOM     31  O   UNL     1      47.865   3.920  15.330  0.00  0.00    +0.000 OA
ATOM     32  C   UNL     1      48.929   5.115  17.080  0.00  0.00    +0.000 A 
ATOM     33  H   UNL     1      47.096   2.387  17.072  0.00  0.00    +0.000 HD
ENDBRANCH  20  23
ENDBRANCH  18  19
ENDBRANCH   7  18
TORSDOF 6
ENDMDL
MODEL 2
REMARK VINA RESULT:    -7.631      1.686      2.004
REMARK INTER + INTRA:         -11.159
REMARK INTER:                 -10.179
REMARK INTRA:                  -0.980
REMARK UNBOUND:                -0.851
REMARK  Name = 
REMARK  7 active torsions:
REMARK  status: ('A' for Active; 'I' for Inactive)
REMARK    1  A    between atoms: C_1  and  C_2
REMARK    2  A    between atoms: C_4  and  C_5
REMARK    3  A    between atoms: C_5  and  N_6
REMARK    4  A    between atoms: C_7  and  C_9
REMARK    5  A    between atoms: C_16  and  C_17
REMARK    6  A    between atoms: C_17  and  N_18
REMARK    7  A    between atoms: C_19  and  C_21
REMARK                            x       y       z     vdW  Elec       q    Type
REMARK                         _______ _______ _______ _____ _____    ______ ____
ROOT
ATOM      1  C   UNL     1      44.583   8.822  11.472  0.00  0.00    +0.000 C 
ATOM      2  C   UNL     1      45.099   7.481  11.925  0.00  0.00    +0.000 A 
ATOM      3  C   UNL     1      44.425   6.323  11.482  0.00  0.00    +0.000 A 
ATOM      4  C   UNL     1      44.845   5.039  11.855  0.00  0.00    +0.000 A 
ATOM      5  C   UNL     1      45.926   4.921  12.732  0.00  0.00    +0.000 A 
ATOM      6  C   UNL     1      46.605   6.060  13.179  0.00  0.00    +0.000 A 
ATOM      7  C   UNL     1      46.227   7.349  12.764  0.00  0.00    +0.000 A 
ENDROOT
BRANCH   4   8
ATOM      8  C   UNL     1      44.128   3.816  11.340  0.00  0.00    +0.000 C 
BRANCH   8   9
ATOM      9  N   UNL     1      44.921   3.114  10.366  0.00  0.00    +0.000 N 
ATOM     10  C   UNL     1      44.920   3.451   9.031  0.00  0.00    +0.000 C 
ATOM     11  O   UNL     1      44.228   4.367   8.591  0.00  0.00    +0.000 OA
ATOM     12  H   UNL     1      45.552   2.388  10.676  0.00  0.00    +0.000 HD
BRANCH  10  13
ATOM     13  C   UNL     1      45.793   2.644   8.179  0.00  0.00    +0.000 A 
ATOM     14  C   UNL     1      46.080   1.294   8.304  0.00  0.00    +0.000 A 
ATOM     15  C   UNL     1      46.981   0.824   7.298  0.00  0.00    +0.000 A 
ATOM     16  C   UNL     1      47.357   1.827   6.440  0.00  0.00    +0.000 A 
ATOM     17  S   UNL     1      46.626   3.319   6.836  0.00  0.00    +0.000 S 
ENDBRANCH  10  13
ENDBRANCH   8   9
ENDBRANCH   4   8
BRANCH   7  18
ATOM     18  C   UNL     1      47.026   8.528  13.286  0.00  0.00    +0.000 C 
BRANCH  18  19
ATOM     19  N   UNL     1      47.416   8.313  14.655  0.00  0.00    +0.000 N 
ATOM     20  C   UNL     1      48.276   9.138  15.331  0.00  0.00    +0.000 C 
ATOM     21  O   UNL     1      48.910  10.029  14.772  0.00  0.00    +0.000 OA
ATOM     22  H   UNL     1      46.829   7.672  15.182  0.00  0.00    +0.000 HD
BRANCH  20  23
ATOM     23  C   UNL     1      48.395   8.901  16.781  0.00  0.00    +0.000 A 
ATOM     24  C   UNL     1      48.003   9.872  17.693  0.00  0.00    +0.000 A 
ATOM     25  S   UNL     1      48.142   9.374  19.321  0.00  0.00    +0.000 S 
ATOM     26  C   UNL     1      48.674   7.825  18.862  0.00  0.00    +0.000 A 
ATOM     27  N   UNL     1      48.880   6.847  19.786  0.00  0.00    +0.000 NA
ATOM     28  C   UNL     1      49.257   5.714  19.291  0.00  0.00    +0.000 A 
ATOM     29  N   UNL     1      49.485   5.482  17.961  0.00  0.00    +0.000 N 
ATOM     30  C   UNL     1      49.363   6.458  17.006  0.00  0.00    +0.000 A 
ATOM     31  O   UNL     1      49.717   6.256  15.849  0.00  0.00    +0.000 OA
ATOM     32  C   UNL     1      48.841   7.722  17.493  0.00  0.00    +0.000 A 
ATOM     33  H   UNL     1      49.847   4.597  17.640  0.00  0.00    +0.000 HD
ENDBRANCH  20  23
ENDBRANCH  18  19
ENDBRANCH   7  18
TORSDOF 6
ENDMDL
MODEL 3
REMARK VINA RESULT:    -7.563      1.676      2.228
REMARK INTER + INTRA:         -11.067
REMARK INTER:                  -9.758
REMARK INTRA:                  -1.309
REMARK UNBOUND:                -0.851
REMARK  Name = 
REMARK  7 active torsions:
REMARK  status: ('A' for Active; 'I' for Inactive)
REMARK    1  A    between atoms: C_1  and  C_2
REMARK    2  A    between atoms: C_4  and  C_5
REMARK    3  A    between atoms: C_5  and  N_6
REMARK    4  A    between atoms: C_7  and  C_9
REMARK    5  A    between atoms: C_16  and  C_17
REMARK    6  A    between atoms: C_17  and  N_18
REMARK    7  A    between atoms: C_19  and  C_21
REMARK                            x       y       z     vdW  Elec       q    Type
REMARK                         _______ _______ _______ _____ _____    ______ ____
ROOT
ATOM      1  C   UNL     1      49.791   7.489  11.807  0.00  0.00    +0.000 C 
ATOM      2  C   UNL     1      48.352   7.671  12.209  0.00  0.00    +0.000 A 
ATOM      3  C   UNL     1      47.356   7.054  11.423  0.00  0.00    +0.000 A 
ATOM      4  C   UNL     1      45.994   7.173  11.734  0.00  0.00    +0.000 A 
ATOM      5  C   UNL     1      45.627   7.970  12.821  0.00  0.00    +0.000 A 
ATOM      6  C   UNL     1      46.603   8.588  13.611  0.00  0.00    +0.000 A 
ATOM      7  C   UNL     1      47.974   8.427  13.341  0.00  0.00    +0.000 A 
ENDROOT
BRANCH   4   8
ATOM      8  C   UNL     1      44.951   6.474  10.898  0.00  0.00    +0.000 C 
BRANCH   8   9
ATOM      9  N   UNL     1      45.553   5.564   9.960  0.00  0.00    +0.000 N 
ATOM     10  C   UNL     1      44.922   4.418   9.532  0.00  0.00    +0.000 C 
ATOM     11  O   UNL     1      43.806   4.099   9.940  0.00  0.00    +0.000 OA
ATOM     12  H   UNL     1      46.445   5.802   9.547  0.00  0.00    +0.000 HD
BRANCH  10  13
ATOM     13  C   UNL     1      45.668   3.611   8.568  0.00  0.00    +0.000 A 
ATOM     14  C   UNL     1      46.461   4.063   7.526  0.00  0.00    +0.000 A 
ATOM     15  C   UNL     1      47.043   2.998   6.771  0.00  0.00    +0.000 A 
ATOM     16  C   UNL     1      46.674   1.767   7.254  0.00  0.00    +0.000 A 
ATOM     17  S   UNL     1      45.643   1.893   8.611  0.00  0.00    +0.000 S 
ENDBRANCH  10  13
ENDBRANCH   8   9
ENDBRANCH   4   8
BRANCH   7  18
ATOM     18  C   UNL     1      48.965   9.121  14.255  0.00  0.00    +0.000 C 
BRANCH  18  19
ATOM     19  N   UNL     1      49.282   8.291  15.388  0.00  0.00    +0.000 N 
ATOM     20  C   UNL     1      48.654   8.403  16.601  0.00  0.00    +0.000 C 
ATOM     21  O   UNL     1      47.892   9.328  16.866  0.00  0.00    +0.000 OA
ATOM     22  H   UNL     1      49.808   7.448  15.179  0.00  0.00    +0.000 HD
BRANCH  20  23
ATOM     23  C   UNL     1      48.943   7.338  17.578  0.00  0.00    +0.000 A 
ATOM     24  C   UNL     1      49.470   7.645  18.826  0.00  0.00    +0.000 A 
ATOM     25  S   UNL     1      49.655   6.285  19.843  0.00  0.00    +0.000 S 
ATOM     26  C   UNL     1      48.982   5.248  18.674  0.00  0.00    +0.000 A 
ATOM     27  N   UNL     1      48.751   3.935  18.945  0.00  0.00    +0.000 NA
ATOM     28  C   UNL     1      48.212   3.275  17.972  0.00  0.00    +0.000 A 
ATOM     29  N   UNL     1      47.919   3.800  16.742  0.00  0.00    +0.000 N 
ATOM     30  C   UNL     1      48.205   5.097  16.402  0.00  0.00    +0.000 A 
ATOM     31  O   UNL     1      48.068   5.490  15.248  0.00  0.00    +0.000 OA
ATOM     32  C   UNL     1      48.715   5.911  17.489  0.00  0.00    +0.000 A 
ATOM     33  H   UNL     1      47.565   3.218  15.998  0.00  0.00    +0.000 HD
ENDBRANCH  20  23
ENDBRANCH  18  19
ENDBRANCH   7  18
TORSDOF 6
ENDMDL
MODEL 4
REMARK VINA RESULT:    -7.468      4.809      9.214
REMARK INTER + INTRA:         -10.939
REMARK INTER:                 -10.224
REMARK INTRA:                  -0.715
REMARK UNBOUND:                -0.851
REMARK  Name = 
REMARK  7 active torsions:
REMARK  status: ('A' for Active; 'I' for Inactive)
REMARK    1  A    between atoms: C_1  and  C_2
REMARK    2  A    between atoms: C_4  and  C_5
REMARK    3  A    between atoms: C_5  and  N_6
REMARK    4  A    between atoms: C_7  and  C_9
REMARK    5  A    between atoms: C_16  and  C_17
REMARK    6  A    between atoms: C_17  and  N_18
REMARK    7  A    between atoms: C_19  and  C_21
REMARK                            x       y       z     vdW  Elec       q    Type
REMARK                         _______ _______ _______ _____ _____    ______ ____
ROOT
ATOM      1  C   UNL     1      48.695   5.569  18.412  0.00  0.00    +0.000 C 
ATOM      2  C   UNL     1      49.346   4.303  17.921  0.00  0.00    +0.000 A 
ATOM      3  C   UNL     1      50.719   4.112  18.187  0.00  0.00    +0.000 A 
ATOM      4  C   UNL     1      51.397   2.960  17.767  0.00  0.00    +0.000 A 
ATOM      5  C   UNL     1      50.695   2.010  17.021  0.00  0.00    +0.000 A 
ATOM      6  C   UNL     1      49.334   2.184  16.749  0.00  0.00    +0.000 A 
ATOM      7  C   UNL     1      48.631   3.310  17.215  0.00  0.00    +0.000 A 
ENDROOT
BRANCH   4   8
ATOM      8  C   UNL     1      52.856   2.764  18.095  0.00  0.00    +0.000 C 
BRANCH   8   9
ATOM      9  N   UNL     1      53.353   1.525  17.559  0.00  0.00    +0.000 N 
ATOM     10  C   UNL     1      54.093   0.639  18.309  0.00  0.00    +0.000 C 
ATOM     11  O   UNL     1      54.385   0.865  19.482  0.00  0.00    +0.000 OA
ATOM     12  H   UNL     1      53.098   1.259  16.617  0.00  0.00    +0.000 HD
BRANCH  10  13
ATOM     13  C   UNL     1      54.509  -0.579  17.614  0.00  0.00    +0.000 A 
ATOM     14  C   UNL     1      54.758  -0.734  16.260  0.00  0.00    +0.000 A 
ATOM     15  C   UNL     1      55.142  -2.067  15.917  0.00  0.00    +0.000 A 
ATOM     16  C   UNL     1      55.171  -2.890  17.015  0.00  0.00    +0.000 A 
ATOM     17  S   UNL     1      54.746  -2.062  18.449  0.00  0.00    +0.000 S 
ENDBRANCH  10  13
ENDBRANCH   8   9
ENDBRANCH   4   8
BRANCH   7  18
ATOM     18  C   UNL     1      47.155   3.414  16.887  0.00  0.00    +0.000 C 
BRANCH  18  19
ATOM     19  N   UNL     1      46.923   4.429  15.893  0.00  0.00    +0.000 N 
ATOM     20  C   UNL     1      46.872   4.168  14.549  0.00  0.00    +0.000 C 
ATOM     21  O   UNL     1      47.186   3.079  14.076  0.00  0.00    +0.000 OA
ATOM     22  H   UNL     1      46.542   5.304  16.242  0.00  0.00    +0.000 HD
BRANCH  20  23
ATOM     23  C   UNL     1      46.411   5.275  13.692  0.00  0.00    +0.000 A 
ATOM     24  C   UNL     1      47.232   6.367  13.440  0.00  0.00    +0.000 A 
ATOM     25  S   UNL     1      46.550   7.501  12.361  0.00  0.00    +0.000 S 
ATOM     26  C   UNL     1      45.159   6.544  12.145  0.00  0.00    +0.000 A 
ATOM     27  N   UNL     1      44.195   6.891  11.250  0.00  0.00    +0.000 NA
ATOM     28  C   UNL     1      43.210   6.058  11.175  0.00  0.00    +0.000 A 
ATOM     29  N   UNL     1      43.082   4.930  11.941  0.00  0.00    +0.000 N 
ATOM     30  C   UNL     1      43.991   4.584  12.907  0.00  0.00    +0.000 A 
ATOM     31  O   UNL     1      43.770   3.652  13.674  0.00  0.00    +0.000 OA
ATOM     32  C   UNL     1      45.169   5.428  12.963  0.00  0.00    +0.000 A 
ATOM     33  H   UNL     1      42.255   4.355  11.888  0.00  0.00    +0.000 HD
ENDBRANCH  20  23
ENDBRANCH  18  19
ENDBRANCH   7  18
TORSDOF 6
ENDMDL
MODEL 5
REMARK VINA RESULT:    -7.371      1.803      2.361
REMARK INTER + INTRA:         -10.808
REMARK INTER:                 -10.035
REMARK INTRA:                  -0.774
REMARK UNBOUND:                -0.851
REMARK  Name = 
REMARK  7 active torsions:
REMARK  status: ('A' for Active; 'I' for Inactive)
REMARK    1  A    between atoms: C_1  and  C_2
REMARK    2  A    between atoms: C_4  and  C_5
REMARK    3  A    between atoms: C_5  and  N_6
REMARK    4  A    between atoms: C_7  and  C_9
REMARK    5  A    between atoms: C_16  and  C_17
REMARK    6  A    between atoms: C_17  and  N_18
REMARK    7  A    between atoms: C_19  and  C_21
REMARK                            x       y       z     vdW  Elec       q    Type
REMARK                         _______ _______ _______ _____ _____    ______ ____
ROOT
ATOM      1  C   UNL     1      45.613   9.086  12.104  0.00  0.00    +0.000 C 
ATOM      2  C   UNL     1      45.749   7.589  12.188  0.00  0.00    +0.000 A 
ATOM      3  C   UNL     1      44.861   6.795  11.432  0.00  0.00    +0.000 A 
ATOM      4  C   UNL     1      44.925   5.395  11.452  0.00  0.00    +0.000 A 
ATOM      5  C   UNL     1      45.862   4.784  12.289  0.00  0.00    +0.000 A 
ATOM      6  C   UNL     1      46.750   5.558  13.045  0.00  0.00    +0.000 A 
ATOM      7  C   UNL     1      46.731   6.963  12.987  0.00  0.00    +0.000 A 
ENDROOT
BRANCH   4   8
ATOM      8  C   UNL     1      43.986   4.571  10.608  0.00  0.00    +0.000 C 
BRANCH   8   9
ATOM      9  N   UNL     1      44.708   3.700   9.718  0.00  0.00    +0.000 N 
ATOM     10  C   UNL     1      45.513   4.177   8.709  0.00  0.00    +0.000 C 
ATOM     11  O   UNL     1      45.652   5.381   8.500  0.00  0.00    +0.000 OA
ATOM     12  H   UNL     1      44.677   2.701   9.875  0.00  0.00    +0.000 HD
BRANCH  10  13
ATOM     13  C   UNL     1      46.184   3.156   7.905  0.00  0.00    +0.000 A 
ATOM     14  C   UNL     1      46.988   3.353   6.794  0.00  0.00    +0.000 A 
ATOM     15  C   UNL     1      47.482   2.129   6.243  0.00  0.00    +0.000 A 
ATOM     16  C   UNL     1      47.037   1.037   6.946  0.00  0.00    +0.000 A 
ATOM     17  S   UNL     1      46.041   1.481   8.261  0.00  0.00    +0.000 S 
ENDBRANCH  10  13
ENDBRANCH   8   9
ENDBRANCH   4   8
BRANCH   7  18
ATOM     18  C   UNL     1      47.738   7.723  13.828  0.00  0.00    +0.000 C 
BRANCH  18  19
ATOM     19  N   UNL     1      47.885   7.112  15.123  0.00  0.00    +0.000 N 
ATOM     20  C   UNL     1      49.095   6.736  15.644  0.00  0.00    +0.000 C 
ATOM     21  O   UNL     1      50.128   6.738  14.980  0.00  0.00    +0.000 OA
ATOM     22  H   UNL     1      47.087   7.205  15.745  0.00  0.00    +0.000 HD
BRANCH  20  23
ATOM     23  C   UNL     1      49.091   6.331  17.062  0.00  0.00    +0.000 A 
ATOM     24  C   UNL     1      49.547   5.074  17.441  0.00  0.00    +0.000 A 
ATOM     25  S   UNL     1      49.539   4.827  19.131  0.00  0.00    +0.000 S 
ATOM     26  C   UNL     1      48.985   6.410  19.418  0.00  0.00    +0.000 A 
ATOM     27  N   UNL     1      48.859   6.896  20.683  0.00  0.00    +0.000 NA
ATOM     28  C   UNL     1      48.452   8.121  20.747  0.00  0.00    +0.000 A 
ATOM     29  N   UNL     1      48.124   8.892  19.664  0.00  0.00    +0.000 N 
ATOM     30  C   UNL     1      48.163   8.418  18.378  0.00  0.00    +0.000 A 
ATOM     31  O   UNL     1      47.721   9.084  17.448  0.00  0.00    +0.000 OA
ATOM     32  C   UNL     1      48.712   7.082  18.240  0.00  0.00    +0.000 A 
ATOM     33  H   UNL     1      47.744   9.819  19.780  0.00  0.00    +0.000 HD
ENDBRANCH  20  23
ENDBRANCH  18  19
ENDBRANCH   7  18
TORSDOF 6
ENDMDL
MODEL 6
REMARK VINA RESULT:    -7.082      1.848      2.315
REMARK INTER + INTRA:         -10.417
REMARK INTER:                  -9.377
REMARK INTRA:                  -1.041
REMARK UNBOUND:                -0.851
REMARK  Name = 
REMARK  7 active torsions:
REMARK  status: ('A' for Active; 'I' for Inactive)
REMARK    1  A    between atoms: C_1  and  C_2
REMARK    2  A    between atoms: C_4  and  C_5
REMARK    3  A    between atoms: C_5  and  N_6
REMARK    4  A    between atoms: C_7  and  C_9
REMARK    5  A    between atoms: C_16  and  C_17
REMARK    6  A    between atoms: C_17  and  N_18
REMARK    7  A    between atoms: C_19  and  C_21
REMARK                            x       y       z     vdW  Elec       q    Type
REMARK                         _______ _______ _______ _____ _____    ______ ____
ROOT
ATOM      1  C   UNL     1      46.119   8.448  12.142  0.00  0.00    +0.000 C 
ATOM      2  C   UNL     1      46.241   7.005  12.556  0.00  0.00    +0.000 A 
ATOM      3  C   UNL     1      45.369   6.066  11.966  0.00  0.00    +0.000 A 
ATOM      4  C   UNL     1      45.422   4.704  12.293  0.00  0.00    +0.000 A 
ATOM      5  C   UNL     1      46.330   4.290  13.271  0.00  0.00    +0.000 A 
ATOM      6  C   UNL     1      47.202   5.209  13.866  0.00  0.00    +0.000 A 
ATOM      7  C   UNL     1      47.196   6.568  13.500  0.00  0.00    +0.000 A 
ENDROOT
BRANCH   4   8
ATOM      8  C   UNL     1      44.502   3.715  11.622  0.00  0.00    +0.000 C 
BRANCH   8   9
ATOM      9  N   UNL     1      45.163   3.032  10.543  0.00  0.00    +0.000 N 
ATOM     10  C   UNL     1      45.065   3.447   9.234  0.00  0.00    +0.000 C 
ATOM     11  O   UNL     1      44.391   4.424   8.910  0.00  0.00    +0.000 OA
ATOM     12  H   UNL     1      45.776   2.256  10.754  0.00  0.00    +0.000 HD
BRANCH  10  13
ATOM     13  C   UNL     1      45.810   2.647   8.263  0.00  0.00    +0.000 A 
ATOM     14  C   UNL     1      46.083   1.290   8.320  0.00  0.00    +0.000 A 
ATOM     15  C   UNL     1      46.844   0.830   7.201  0.00  0.00    +0.000 A 
ATOM     16  C   UNL     1      47.134   1.847   6.327  0.00  0.00    +0.000 A 
ATOM     17  S   UNL     1      46.488   3.342   6.845  0.00  0.00    +0.000 S 
ENDBRANCH  10  13
ENDBRANCH   8   9
ENDBRANCH   4   8
BRANCH   7  18
ATOM     18  C   UNL     1      48.183   7.493  14.185  0.00  0.00    +0.000 C 
BRANCH  18  19
ATOM     19  N   UNL     1      48.844   6.820  15.272  0.00  0.00    +0.000 N 
ATOM     20  C   UNL     1      48.804   7.264  16.568  0.00  0.00    +0.000 C 
ATOM     21  O   UNL     1      48.342   8.359  16.875  0.00  0.00    +0.000 OA
ATOM     22  H   UNL     1      49.127   5.862  15.086  0.00  0.00    +0.000 HD
BRANCH  20  23
ATOM     23  C   UNL     1      49.346   6.344  17.584  0.00  0.00    +0.000 A 
ATOM     24  C   UNL     1      48.537   5.859  18.604  0.00  0.00    +0.000 A 
ATOM     25  S   UNL     1      49.327   4.744  19.629  0.00  0.00    +0.000 S 
ATOM     26  C   UNL     1      50.757   4.824  18.710  0.00  0.00    +0.000 A 
ATOM     27  N   UNL     1      51.820   4.022  18.987  0.00  0.00    +0.000 NA
ATOM     28  C   UNL     1      52.827   4.174  18.191  0.00  0.00    +0.000 A 
ATOM     29  N   UNL     1      52.881   5.081  17.167  0.00  0.00    +0.000 N 
ATOM     30  C   UNL     1      51.863   5.960  16.901  0.00  0.00    +0.000 A 
ATOM     31  O   UNL     1      52.005   6.857  16.076  0.00  0.00    +0.000 OA
ATOM     32  C   UNL     1      50.667   5.764  17.698  0.00  0.00    +0.000 A 
ATOM     33  H   UNL     1      53.721   5.204  16.623  0.00  0.00    +0.000 HD
ENDBRANCH  20  23
ENDBRANCH  18  19
ENDBRANCH   7  18
TORSDOF 6
ENDMDL
MODEL 7
REMARK VINA RESULT:    -7.051      4.605      9.108
REMARK INTER + INTRA:         -10.375
REMARK INTER:                  -9.488
REMARK INTRA:                  -0.887
REMARK UNBOUND:                -0.851
REMARK  Name = 
REMARK  7 active torsions:
REMARK  status: ('A' for Active; 'I' for Inactive)
REMARK    1  A    between atoms: C_1  and  C_2
REMARK    2  A    between atoms: C_4  and  C_5
REMARK    3  A    between atoms: C_5  and  N_6
REMARK    4  A    between atoms: C_7  and  C_9
REMARK    5  A    between atoms: C_16  and  C_17
REMARK    6  A    between atoms: C_17  and  N_18
REMARK    7  A    between atoms: C_19  and  C_21
REMARK                            x       y       z     vdW  Elec       q    Type
REMARK                         _______ _______ _______ _____ _____    ______ ____
ROOT
ATOM      1  C   UNL     1      48.810   5.949  17.905  0.00  0.00    +0.000 C 
ATOM      2  C   UNL     1      49.405   4.586  17.669  0.00  0.00    +0.000 A 
ATOM      3  C   UNL     1      50.778   4.401  17.940  0.00  0.00    +0.000 A 
ATOM      4  C   UNL     1      51.405   3.162  17.751  0.00  0.00    +0.000 A 
ATOM      5  C   UNL     1      50.652   2.108  17.228  0.00  0.00    +0.000 A 
ATOM      6  C   UNL     1      49.290   2.276  16.954  0.00  0.00    +0.000 A 
ATOM      7  C   UNL     1      48.639   3.499  17.196  0.00  0.00    +0.000 A 
ENDROOT
BRANCH   4   8
ATOM      8  C   UNL     1      52.865   2.982  18.082  0.00  0.00    +0.000 C 
BRANCH   8   9
ATOM      9  N   UNL     1      53.370   1.736  17.570  0.00  0.00    +0.000 N 
ATOM     10  C   UNL     1      54.042   0.830  18.358  0.00  0.00    +0.000 C 
ATOM     11  O   UNL     1      54.264   1.042  19.549  0.00  0.00    +0.000 OA
ATOM     12  H   UNL     1      53.169   1.480  16.611  0.00  0.00    +0.000 HD
BRANCH  10  13
ATOM     13  C   UNL     1      54.476  -0.392  17.683  0.00  0.00    +0.000 A 
ATOM     14  C   UNL     1      54.629  -0.594  16.321  0.00  0.00    +0.000 A 
ATOM     15  C   UNL     1      55.065  -1.917  16.002  0.00  0.00    +0.000 A 
ATOM     16  C   UNL     1      55.227  -2.687  17.127  0.00  0.00    +0.000 A 
ATOM     17  S   UNL     1      54.866  -1.821  18.555  0.00  0.00    +0.000 S 
ENDBRANCH  10  13
ENDBRANCH   8   9
ENDBRANCH   4   8
BRANCH   7  18
ATOM     18  C   UNL     1      47.157   3.590  16.884  0.00  0.00    +0.000 C 
BRANCH  18  19
ATOM     19  N   UNL     1      46.918   4.523  15.814  0.00  0.00    +0.000 N 
ATOM     20  C   UNL     1      46.897   4.164  14.493  0.00  0.00    +0.000 C 
ATOM     21  O   UNL     1      47.246   3.052  14.106  0.00  0.00    +0.000 OA
ATOM     22  H   UNL     1      46.509   5.411  16.092  0.00  0.00    +0.000 HD
BRANCH  20  23
ATOM     23  C   UNL     1      46.423   5.194  13.550  0.00  0.00    +0.000 A 
ATOM     24  C   UNL     1      45.262   5.000  12.813  0.00  0.00    +0.000 A 
ATOM     25  S   UNL     1      44.837   6.340  11.842  0.00  0.00    +0.000 S 
ATOM     26  C   UNL     1      46.156   7.247  12.419  0.00  0.00    +0.000 A 
ATOM     27  N   UNL     1      46.327   8.549  12.061  0.00  0.00    +0.000 NA
ATOM     28  C   UNL     1      47.356   9.120  12.595  0.00  0.00    +0.000 A 
ATOM     29  N   UNL     1      48.252   8.497  13.423  0.00  0.00    +0.000 N 
ATOM     30  C   UNL     1      48.160   7.168  13.748  0.00  0.00    +0.000 A 
ATOM     31  O   UNL     1      49.058   6.608  14.367  0.00  0.00    +0.000 OA
ATOM     32  C   UNL     1      46.965   6.504  13.259  0.00  0.00    +0.000 A 
ATOM     33  H   UNL     1      49.076   8.974  13.753  0.00  0.00    +0.000 HD
ENDBRANCH  20  23
ENDBRANCH  18  19
ENDBRANCH   7  18
TORSDOF 6
ENDMDL
MODEL 8
REMARK VINA RESULT:    -6.841      4.540      7.556
REMARK INTER + INTRA:         -10.092
REMARK INTER:                  -9.197
REMARK INTRA:                  -0.895
REMARK UNBOUND:                -0.851
REMARK  Name = 
REMARK  7 active torsions:
REMARK  status: ('A' for Active; 'I' for Inactive)
REMARK    1  A    between atoms: C_1  and  C_2
REMARK    2  A    between atoms: C_4  and  C_5
REMARK    3  A    between atoms: C_5  and  N_6
REMARK    4  A    between atoms: C_7  and  C_9
REMARK    5  A    between atoms: C_16  and  C_17
REMARK    6  A    between atoms: C_17  and  N_18
REMARK    7  A    between atoms: C_19  and  C_21
REMARK                            x       y       z     vdW  Elec       q    Type
REMARK                         _______ _______ _______ _____ _____    ______ ____
ROOT
ATOM      1  C   UNL     1      47.407  11.046  11.537  0.00  0.00    +0.000 C 
ATOM      2  C   UNL     1      48.192   9.771  11.691  0.00  0.00    +0.000 A 
ATOM      3  C   UNL     1      49.567   9.791  11.373  0.00  0.00    +0.000 A 
ATOM      4  C   UNL     1      50.368   8.647  11.494  0.00  0.00    +0.000 A 
ATOM      5  C   UNL     1      49.764   7.451  11.888  0.00  0.00    +0.000 A 
ATOM      6  C   UNL     1      48.402   7.415  12.208  0.00  0.00    +0.000 A 
ATOM      7  C   UNL     1      47.603   8.571  12.146  0.00  0.00    +0.000 A 
ENDROOT
BRANCH   4   8
ATOM      8  C   UNL     1      51.842   8.704  11.180  0.00  0.00    +0.000 C 
BRANCH   8   9
ATOM      9  N   UNL     1      52.201   7.747  10.168  0.00  0.00    +0.000 N 
ATOM     10  C   UNL     1      53.509   7.421   9.889  0.00  0.00    +0.000 C 
ATOM     11  O   UNL     1      54.451   7.942  10.484  0.00  0.00    +0.000 OA
ATOM     12  H   UNL     1      51.469   7.244   9.685  0.00  0.00    +0.000 HD
BRANCH  10  13
ATOM     13  C   UNL     1      53.697   6.419   8.840  0.00  0.00    +0.000 A 
ATOM     14  C   UNL     1      52.933   6.240   7.698  0.00  0.00    +0.000 A 
ATOM     15  C   UNL     1      53.396   5.159   6.886  0.00  0.00    +0.000 A 
ATOM     16  C   UNL     1      54.494   4.543   7.433  0.00  0.00    +0.000 A 
ATOM     17  S   UNL     1      54.969   5.265   8.906  0.00  0.00    +0.000 S 
ENDBRANCH  10  13
ENDBRANCH   8   9
ENDBRANCH   4   8
BRANCH   7  18
ATOM     18  C   UNL     1      46.140   8.445  12.522  0.00  0.00    +0.000 C 
BRANCH  18  19
ATOM     19  N   UNL     1      45.694   7.083  12.392  0.00  0.00    +0.000 N 
ATOM     20  C   UNL     1      44.560   6.724  11.712  0.00  0.00    +0.000 C 
ATOM     21  O   UNL     1      43.746   7.549  11.305  0.00  0.00    +0.000 OA
ATOM     22  H   UNL     1      46.390   6.373  12.602  0.00  0.00    +0.000 HD
BRANCH  20  23
ATOM     23  C   UNL     1      44.369   5.279  11.490  0.00  0.00    +0.000 A 
ATOM     24  C   UNL     1      43.671   4.506  12.409  0.00  0.00    +0.000 A 
ATOM     25  S   UNL     1      43.487   2.877  11.931  0.00  0.00    +0.000 S 
ATOM     26  C   UNL     1      44.280   3.161  10.453  0.00  0.00    +0.000 A 
ATOM     27  N   UNL     1      44.377   2.189   9.505  0.00  0.00    +0.000 NA
ATOM     28  C   UNL     1      44.983   2.556   8.424  0.00  0.00    +0.000 A 
ATOM     29  N   UNL     1      45.534   3.792   8.219  0.00  0.00    +0.000 N 
ATOM     30  C   UNL     1      45.526   4.775   9.175  0.00  0.00    +0.000 A 
ATOM     31  O   UNL     1      46.157   5.814   9.015  0.00  0.00    +0.000 OA
ATOM     32  C   UNL     1      44.768   4.453  10.370  0.00  0.00    +0.000 A 
ATOM     33  H   UNL     1      46.057   3.998   7.381  0.00  0.00    +0.000 HD
ENDBRANCH  20  23
ENDBRANCH  18  19
ENDBRANCH   7  18
TORSDOF 6
ENDMDL
MODEL 9
REMARK VINA RESULT:    -6.806      3.538      5.142
REMARK INTER + INTRA:         -10.045
REMARK INTER:                  -8.962
REMARK INTRA:                  -1.083
REMARK UNBOUND:                -0.851
REMARK  Name = 
REMARK  7 active torsions:
REMARK  status: ('A' for Active; 'I' for Inactive)
REMARK    1  A    between atoms: C_1  and  C_2
REMARK    2  A    between atoms: C_4  and  C_5
REMARK    3  A    between atoms: C_5  and  N_6
REMARK    4  A    between atoms: C_7  and  C_9
REMARK    5  A    between atoms: C_16  and  C_17
REMARK    6  A    between atoms: C_17  and  N_18
REMARK    7  A    between atoms: C_19  and  C_21
REMARK                            x       y       z     vdW  Elec       q    Type
REMARK                         _______ _______ _______ _____ _____    ______ ____
ROOT
ATOM      1  C   UNL     1      47.102   4.401  14.932  0.00  0.00    +0.000 C 
ATOM      2  C   UNL     1      46.929   5.332  13.763  0.00  0.00    +0.000 A 
ATOM      3  C   UNL     1      45.992   4.985  12.766  0.00  0.00    +0.000 A 
ATOM      4  C   UNL     1      45.769   5.801  11.649  0.00  0.00    +0.000 A 
ATOM      5  C   UNL     1      46.540   6.957  11.505  0.00  0.00    +0.000 A 
ATOM      6  C   UNL     1      47.473   7.316  12.484  0.00  0.00    +0.000 A 
ATOM      7  C   UNL     1      47.662   6.533  13.637  0.00  0.00    +0.000 A 
ENDROOT
BRANCH   4   8
ATOM      8  C   UNL     1      44.737   5.425  10.615  0.00  0.00    +0.000 C 
BRANCH   8   9
ATOM      9  N   UNL     1      45.344   4.794   9.473  0.00  0.00    +0.000 N 
ATOM     10  C   UNL     1      45.279   3.436   9.256  0.00  0.00    +0.000 C 
ATOM     11  O   UNL     1      44.707   2.679  10.039  0.00  0.00    +0.000 OA
ATOM     12  H   UNL     1      45.779   5.371   8.766  0.00  0.00    +0.000 HD
BRANCH  10  13
ATOM     13  C   UNL     1      45.937   2.961   8.040  0.00  0.00    +0.000 A 
ATOM     14  C   UNL     1      46.222   3.689   6.897  0.00  0.00    +0.000 A 
ATOM     15  C   UNL     1      46.871   2.908   5.890  0.00  0.00    +0.000 A 
ATOM     16  C   UNL     1      47.056   1.609   6.292  0.00  0.00    +0.000 A 
ATOM     17  S   UNL     1      46.463   1.334   7.870  0.00  0.00    +0.000 S 
ENDBRANCH  10  13
ENDBRANCH   8   9
ENDBRANCH   4   8
BRANCH   7  18
ATOM     18  C   UNL     1      48.684   7.002  14.656  0.00  0.00    +0.000 C 
BRANCH  18  19
ATOM     19  N   UNL     1      49.927   7.339  14.013  0.00  0.00    +0.000 N 
ATOM     20  C   UNL     1      50.761   8.330  14.461  0.00  0.00    +0.000 C 
ATOM     21  O   UNL     1      50.434   9.117  15.345  0.00  0.00    +0.000 OA
ATOM     22  H   UNL     1      50.288   6.644  13.365  0.00  0.00    +0.000 HD
BRANCH  20  23
ATOM     23  C   UNL     1      52.087   8.397  13.821  0.00  0.00    +0.000 A 
ATOM     24  C   UNL     1      53.246   8.284  14.579  0.00  0.00    +0.000 A 
ATOM     25  S   UNL     1      54.676   8.303  13.645  0.00  0.00    +0.000 S 
ATOM     26  C   UNL     1      53.795   8.402  12.193  0.00  0.00    +0.000 A 
ATOM     27  N   UNL     1      54.418   8.352  10.984  0.00  0.00    +0.000 NA
ATOM     28  C   UNL     1      53.621   8.413   9.969  0.00  0.00    +0.000 A 
ATOM     29  N   UNL     1      52.262   8.557  10.051  0.00  0.00    +0.000 N 
ATOM     30  C   UNL     1      51.602   8.688  11.246  0.00  0.00    +0.000 A 
ATOM     31  O   UNL     1      50.407   8.965  11.278  0.00  0.00    +0.000 OA
ATOM     32  C   UNL     1      52.436   8.523  12.422  0.00  0.00    +0.000 A 
ATOM     33  H   UNL     1      51.698   8.670   9.223  0.00  0.00    +0.000 HD
ENDBRANCH  20  23
ENDBRANCH  18  19
ENDBRANCH   7  18
TORSDOF 6
ENDMDL
