MODEL 1
REMARK VINA RESULT:    -8.578      0.000      0.000
REMARK INTER + INTRA:         -12.622
REMARK INTER:                 -11.586
REMARK INTRA:                  -1.036
REMARK UNBOUND:                -1.036
REMARK  Name = 
REMARK  6 active torsions:
REMARK  status: ('A' for Active; 'I' for Inactive)
REMARK    1  A    between atoms: C_2  and  C_19
REMARK    2  A    between atoms: N_3  and  C_4
REMARK    3  A    between atoms: C_4  and  C_5
REMARK    4  A    between atoms: C_8  and  O_9
REMARK    5  A    between atoms: O_9  and  C_10
REMARK    6  A    between atoms: C_10  and  C_11
REMARK                            x       y       z     vdW  Elec       q    Type
REMARK                         _______ _______ _______ _____ _____    ______ ____
ROOT
ATOM      1  O   UNL     1      49.241   6.674  13.435  0.00  0.00    +0.000 OA
ATOM      2  C   UNL     1      48.500   6.724  14.412  0.00  0.00    +0.000 C 
ATOM      3  N   UNL     1      47.279   7.337  14.383  0.00  0.00    +0.000 N 
ATOM      4  H   UNL     1      46.698   7.369  15.209  0.00  0.00    +0.000 HD
ENDROOT
BRANCH   2   5
ATOM      5  C   UNL     1      48.893   6.175  15.711  0.00  0.00    +0.000 A 
ATOM      6  C   UNL     1      49.937   6.737  16.429  0.00  0.00    +0.000 A 
ATOM      7  S   UNL     1      50.195   5.991  17.943  0.00  0.00    +0.000 S 
ATOM      8  C   UNL     1      48.949   4.865  17.664  0.00  0.00    +0.000 A 
ATOM      9  N   UNL     1      48.632   3.923  18.592  0.00  0.00    +0.000 NA
ATOM     10  C   UNL     1      47.682   3.122  18.237  0.00  0.00    +0.000 A 
ATOM     11  N   UNL     1      47.028   3.170  17.036  0.00  0.00    +0.000 N 
ATOM     12  C   UNL     1      47.312   4.101  16.067  0.00  0.00    +0.000 A 
ATOM     13  O   UNL     1      46.699   4.116  15.005  0.00  0.00    +0.000 OA
ATOM     14  C   UNL     1      48.353   5.046  16.430  0.00  0.00    +0.000 A 
ATOM     15  H   UNL     1      46.298   2.508  16.813  0.00  0.00    +0.000 HD
ENDBRANCH   2   5
BRANCH   3  16
ATOM     16  C   UNL     1      46.701   7.882  13.183  0.00  0.00    +0.000 C 
BRANCH  16  17
ATOM     17  C   UNL     1      46.043   6.816  12.346  0.00  0.00    +0.000 A 
ATOM     18  C   UNL     1      46.372   6.672  11.002  0.00  0.00    +0.000 A 
ATOM     19  C   UNL     1      45.770   5.650  10.267  0.00  0.00    +0.000 A 
ATOM     20  C   UNL     1      44.858   4.804  10.891  0.00  0.00    +0.000 A 
ATOM     21  C   UNL     1      44.539   5.068  12.216  0.00  0.00    +0.000 A 
ATOM     22  N   UNL     1      45.111   6.042  12.957  0.00  0.00    +0.000 NA
BRANCH  20  23
ATOM     23  O   UNL     1      44.360   3.784  10.133  0.00  0.00    +0.000 OA
BRANCH  23  24
ATOM     24  C   UNL     1      44.461   3.987   8.721  0.00  0.00    +0.000 C 
BRANCH  24  25
ATOM     25  C   UNL     1      45.453   3.019   8.150  0.00  0.00    +0.000 A 
ATOM     26  C   UNL     1      46.413   3.428   7.220  0.00  0.00    +0.000 A 
ATOM     27  C   UNL     1      47.357   2.519   6.757  0.00  0.00    +0.000 A 
ATOM     28  C   UNL     1      47.312   1.225   7.247  0.00  0.00    +0.000 A 
ATOM     29  N   UNL     1      46.405   0.792   8.148  0.00  0.00    +0.000 NA
ATOM     30  C   UNL     1      45.498   1.696   8.578  0.00  0.00    +0.000 A 
ENDBRANCH  24  25
ENDBRANCH  23  24
ENDBRANCH  20  23
ENDBRANCH  16  17
ENDBRANCH   3  16
TORSDOF 6
ENDMDL
MODEL 2
REMARK VINA RESULT:    -7.873      2.079      2.496
REMARK INTER + INTRA:         -11.670
REMARK INTER:                 -10.713
REMARK INTRA:                  -0.957
REMARK UNBOUND:                -1.036
REMARK  Name = 
REMARK  6 active torsions:
REMARK  status: ('A' for Active; 'I' for Inactive)
REMARK    1  A    between atoms: C_2  and  C_19
REMARK    2  A    between atoms: N_3  and  C_4
REMARK    3  A    between atoms: C_4  and  C_5
REMARK    4  A    between atoms: C_8  and  O_9
REMARK    5  A    between atoms: O_9  and  C_10
REMARK    6  A    between atoms: C_10  and  C_11
REMARK                            x       y       z     vdW  Elec       q    Type
REMARK                         _______ _______ _______ _____ _____    ______ ____
ROOT
ATOM      1  O   UNL     1      50.097   6.725  15.209  0.00  0.00    +0.000 OA
ATOM      2  C   UNL     1      48.969   6.525  15.648  0.00  0.00    +0.000 C 
ATOM      3  N   UNL     1      47.841   6.706  14.898  0.00  0.00    +0.000 N 
ATOM      4  H   UNL     1      46.925   6.542  15.294  0.00  0.00    +0.000 HD
ENDROOT
BRANCH   2   5
ATOM      5  C   UNL     1      48.737   6.126  17.038  0.00  0.00    +0.000 A 
ATOM      6  C   UNL     1      48.910   4.808  17.431  0.00  0.00    +0.000 A 
ATOM      7  S   UNL     1      48.651   4.562  19.101  0.00  0.00    +0.000 S 
ATOM      8  C   UNL     1      48.256   6.201  19.339  0.00  0.00    +0.000 A 
ATOM      9  N   UNL     1      47.934   6.675  20.572  0.00  0.00    +0.000 NA
ATOM     10  C   UNL     1      47.635   7.932  20.600  0.00  0.00    +0.000 A 
ATOM     11  N   UNL     1      47.617   8.754  19.506  0.00  0.00    +0.000 N 
ATOM     12  C   UNL     1      47.933   8.323  18.241  0.00  0.00    +0.000 A 
ATOM     13  O   UNL     1      47.911   9.093  17.287  0.00  0.00    +0.000 OA
ATOM     14  C   UNL     1      48.308   6.923  18.160  0.00  0.00    +0.000 A 
ATOM     15  H   UNL     1      47.364   9.730  19.591  0.00  0.00    +0.000 HD
ENDBRANCH   2   5
BRANCH   3  16
ATOM     16  C   UNL     1      47.873   7.040  13.498  0.00  0.00    +0.000 C 
BRANCH  16  17
ATOM     17  C   UNL     1      46.911   6.198  12.701  0.00  0.00    +0.000 A 
ATOM     18  C   UNL     1      46.421   6.651  11.481  0.00  0.00    +0.000 A 
ATOM     19  C   UNL     1      45.561   5.828  10.753  0.00  0.00    +0.000 A 
ATOM     20  C   UNL     1      45.214   4.580  11.261  0.00  0.00    +0.000 A 
ATOM     21  C   UNL     1      45.696   4.242  12.518  0.00  0.00    +0.000 A 
ATOM     22  N   UNL     1      46.537   5.011  13.243  0.00  0.00    +0.000 NA
BRANCH  20  23
ATOM     23  O   UNL     1      44.427   3.798  10.466  0.00  0.00    +0.000 OA
BRANCH  23  24
ATOM     24  C   UNL     1      44.492   4.112   9.072  0.00  0.00    +0.000 C 
BRANCH  24  25
ATOM     25  C   UNL     1      45.416   3.148   8.390  0.00  0.00    +0.000 A 
ATOM     26  C   UNL     1      46.333   3.581   7.428  0.00  0.00    +0.000 A 
ATOM     27  C   UNL     1      47.218   2.671   6.860  0.00  0.00    +0.000 A 
ATOM     28  C   UNL     1      47.156   1.353   7.277  0.00  0.00    +0.000 A 
ATOM     29  N   UNL     1      46.289   0.897   8.206  0.00  0.00    +0.000 NA
ATOM     30  C   UNL     1      45.439   1.802   8.739  0.00  0.00    +0.000 A 
ENDBRANCH  24  25
ENDBRANCH  23  24
ENDBRANCH  20  23
ENDBRANCH  16  17
ENDBRANCH   3  16
TORSDOF 6
ENDMDL
MODEL 3
REMARK VINA RESULT:    -7.768      2.373      4.007
REMARK INTER + INTRA:         -11.529
REMARK INTER:                 -10.409
REMARK INTRA:                  -1.119
REMARK UNBOUND:                -1.036
REMARK  Name = 
REMARK  6 active torsions:
REMARK  status: ('A' for Active; 'I' for Inactive)
REMARK    1  A    between atoms: C_2  and  C_19
REMARK    2  A    between atoms: N_3  and  C_4
REMARK    3  A    between atoms: C_4  and  C_5
REMARK    4  A    between atoms: C_8  and  O_9
REMARK    5  A    between atoms: O_9  and  C_10
REMARK    6  A    between atoms: C_10  and  C_11
REMARK                            x       y       z     vdW  Elec       q    Type
REMARK                         _______ _______ _______ _____ _____    ______ ____
ROOT
ATOM      1  O   UNL     1      49.225   5.692  15.934  0.00  0.00    +0.000 OA
ATOM      2  C   UNL     1      48.591   6.504  15.267  0.00  0.00    +0.000 C 
ATOM      3  N   UNL     1      47.516   6.153  14.501  0.00  0.00    +0.000 N 
ATOM      4  H   UNL     1      47.021   6.845  13.955  0.00  0.00    +0.000 HD
ENDROOT
BRANCH   2   5
ATOM      5  C   UNL     1      48.972   7.916  15.197  0.00  0.00    +0.000 A 
ATOM      6  C   UNL     1      48.877   8.729  16.316  0.00  0.00    +0.000 A 
ATOM      7  S   UNL     1      49.427  10.322  16.043  0.00  0.00    +0.000 S 
ATOM      8  C   UNL     1      49.767   9.985  14.408  0.00  0.00    +0.000 A 
ATOM      9  N   UNL     1      50.284  10.937  13.587  0.00  0.00    +0.000 NA
ATOM     10  C   UNL     1      50.470  10.547  12.369  0.00  0.00    +0.000 A 
ATOM     11  N   UNL     1      50.175   9.297  11.896  0.00  0.00    +0.000 N 
ATOM     12  C   UNL     1      49.652   8.303  12.685  0.00  0.00    +0.000 A 
ATOM     13  O   UNL     1      49.408   7.193  12.224  0.00  0.00    +0.000 OA
ATOM     14  C   UNL     1      49.453   8.681  14.072  0.00  0.00    +0.000 A 
ATOM     15  H   UNL     1      50.335   9.056  10.927  0.00  0.00    +0.000 HD
ENDBRANCH   2   5
BRANCH   3  16
ATOM     16  C   UNL     1      46.960   4.825  14.488  0.00  0.00    +0.000 C 
BRANCH  16  17
ATOM     17  C   UNL     1      46.216   4.543  13.208  0.00  0.00    +0.000 A 
ATOM     18  C   UNL     1      46.091   5.529  12.234  0.00  0.00    +0.000 A 
ATOM     19  C   UNL     1      45.427   5.221  11.047  0.00  0.00    +0.000 A 
ATOM     20  C   UNL     1      44.906   3.943  10.864  0.00  0.00    +0.000 A 
ATOM     21  C   UNL     1      45.018   3.049  11.919  0.00  0.00    +0.000 A 
ATOM     22  N   UNL     1      45.663   3.311  13.076  0.00  0.00    +0.000 NA
BRANCH  20  23
ATOM     23  O   UNL     1      44.332   3.690   9.652  0.00  0.00    +0.000 OA
BRANCH  23  24
ATOM     24  C   UNL     1      44.508   2.352   9.178  0.00  0.00    +0.000 C 
BRANCH  24  25
ATOM     25  C   UNL     1      45.637   2.320   8.192  0.00  0.00    +0.000 A 
ATOM     26  C   UNL     1      46.008   3.464   7.479  0.00  0.00    +0.000 A 
ATOM     27  C   UNL     1      47.099   3.416   6.618  0.00  0.00    +0.000 A 
ATOM     28  C   UNL     1      47.788   2.221   6.502  0.00  0.00    +0.000 A 
ATOM     29  N   UNL     1      47.464   1.098   7.177  0.00  0.00    +0.000 NA
ATOM     30  C   UNL     1      46.398   1.172   8.004  0.00  0.00    +0.000 A 
ENDBRANCH  24  25
ENDBRANCH  23  24
ENDBRANCH  20  23
ENDBRANCH  16  17
ENDBRANCH   3  16
TORSDOF 6
ENDMDL
MODEL 4
REMARK VINA RESULT:    -7.715      2.123      3.401
REMARK INTER + INTRA:         -11.457
REMARK INTER:                 -10.479
REMARK INTRA:                  -0.977
REMARK UNBOUND:                -1.036
REMARK  Name = 
REMARK  6 active torsions:
REMARK  status: ('A' for Active; 'I' for Inactive)
REMARK    1  A    between atoms: C_2  and  C_19
REMARK    2  A    between atoms: N_3  and  C_4
REMARK    3  A    between atoms: C_4  and  C_5
REMARK    4  A    between atoms: C_8  and  O_9
REMARK    5  A    between atoms: O_9  and  C_10
REMARK    6  A    between atoms: C_10  and  C_11
REMARK                            x       y       z     vdW  Elec       q    Type
REMARK                         _______ _______ _______ _____ _____    ______ ____
ROOT
ATOM      1  O   UNL     1      49.420   4.613  16.654  0.00  0.00    +0.000 OA
ATOM      2  C   UNL     1      48.546   5.469  16.565  0.00  0.00    +0.000 C 
ATOM      3  N   UNL     1      47.442   5.319  15.774  0.00  0.00    +0.000 N 
ATOM      4  H   UNL     1      46.745   6.049  15.716  0.00  0.00    +0.000 HD
ENDROOT
BRANCH   2   5
ATOM      5  C   UNL     1      48.646   6.754  17.261  0.00  0.00    +0.000 A 
ATOM      6  C   UNL     1      48.491   6.824  18.637  0.00  0.00    +0.000 A 
ATOM      7  S   UNL     1      48.705   8.399  19.261  0.00  0.00    +0.000 S 
ATOM      8  C   UNL     1      48.964   9.042  17.706  0.00  0.00    +0.000 A 
ATOM      9  N   UNL     1      49.220  10.365  17.525  0.00  0.00    +0.000 NA
ATOM     10  C   UNL     1      49.374  10.715  16.291  0.00  0.00    +0.000 A 
ATOM     11  N   UNL     1      49.284   9.866  15.221  0.00  0.00    +0.000 N 
ATOM     12  C   UNL     1      49.027   8.523  15.352  0.00  0.00    +0.000 A 
ATOM     13  O   UNL     1      48.960   7.794  14.368  0.00  0.00    +0.000 OA
ATOM     14  C   UNL     1      48.877   8.072  16.723  0.00  0.00    +0.000 A 
ATOM     15  H   UNL     1      49.405  10.204  14.276  0.00  0.00    +0.000 HD
ENDBRANCH   2   5
BRANCH   3  16
ATOM     16  C   UNL     1      47.145   4.104  15.062  0.00  0.00    +0.000 C 
BRANCH  16  17
ATOM     17  C   UNL     1      46.514   4.383  13.722  0.00  0.00    +0.000 A 
ATOM     18  C   UNL     1      46.761   5.583  13.062  0.00  0.00    +0.000 A 
ATOM     19  C   UNL     1      46.190   5.792  11.807  0.00  0.00    +0.000 A 
ATOM     20  C   UNL     1      45.390   4.801  11.246  0.00  0.00    +0.000 A 
ATOM     21  C   UNL     1      45.143   3.667  12.007  0.00  0.00    +0.000 A 
ATOM     22  N   UNL     1      45.688   3.431  13.220  0.00  0.00    +0.000 NA
BRANCH  20  23
ATOM     23  O   UNL     1      44.921   5.041   9.986  0.00  0.00    +0.000 OA
BRANCH  23  24
ATOM     24  C   UNL     1      44.263   3.928   9.374  0.00  0.00    +0.000 C 
BRANCH  24  25
ATOM     25  C   UNL     1      45.259   3.142   8.576  0.00  0.00    +0.000 A 
ATOM     26  C   UNL     1      46.094   3.764   7.643  0.00  0.00    +0.000 A 
ATOM     27  C   UNL     1      47.049   3.016   6.964  0.00  0.00    +0.000 A 
ATOM     28  C   UNL     1      47.140   1.664   7.246  0.00  0.00    +0.000 A 
ATOM     29  N   UNL     1      46.356   1.027   8.142  0.00  0.00    +0.000 NA
ATOM     30  C   UNL     1      45.435   1.778   8.785  0.00  0.00    +0.000 A 
ENDBRANCH  24  25
ENDBRANCH  23  24
ENDBRANCH  20  23
ENDBRANCH  16  17
ENDBRANCH   3  16
TORSDOF 6
ENDMDL
MODEL 5
REMARK VINA RESULT:    -7.646      2.880      3.934
REMARK INTER + INTRA:         -11.363
REMARK INTER:                 -10.350
REMARK INTRA:                  -1.013
REMARK UNBOUND:                -1.036
REMARK  Name = 
REMARK  6 active torsions:
REMARK  status: ('A' for Active; 'I' for Inactive)
REMARK    1  A    between atoms: C_2  and  C_19
REMARK    2  A    between atoms: N_3  and  C_4
REMARK    3  A    between atoms: C_4  and  C_5
REMARK    4  A    between atoms: C_8  and  O_9
REMARK    5  A    between atoms: O_9  and  C_10
REMARK    6  A    between atoms: C_10  and  C_11
REMARK                            x       y       z     vdW  Elec       q    Type
REMARK                         _______ _______ _______ _____ _____    ______ ____
ROOT
ATOM      1  O   UNL     1      46.843   8.347  13.625  0.00  0.00    +0.000 OA
ATOM      2  C   UNL     1      47.762   7.580  13.358  0.00  0.00    +0.000 C 
ATOM      3  N   UNL     1      47.650   6.223  13.477  0.00  0.00    +0.000 N 
ATOM      4  H   UNL     1      48.431   5.620  13.259  0.00  0.00    +0.000 HD
ENDROOT
BRANCH   2   5
ATOM      5  C   UNL     1      49.080   8.064  12.941  0.00  0.00    +0.000 A 
ATOM      6  C   UNL     1      49.242   8.704  11.722  0.00  0.00    +0.000 A 
ATOM      7  S   UNL     1      50.839   9.245  11.451  0.00  0.00    +0.000 S 
ATOM      8  C   UNL     1      51.370   8.599  12.935  0.00  0.00    +0.000 A 
ATOM      9  N   UNL     1      52.664   8.725  13.333  0.00  0.00    +0.000 NA
ATOM     10  C   UNL     1      52.929   8.168  14.469  0.00  0.00    +0.000 A 
ATOM     11  N   UNL     1      52.022   7.487  15.235  0.00  0.00    +0.000 N 
ATOM     12  C   UNL     1      50.706   7.333  14.876  0.00  0.00    +0.000 A 
ATOM     13  O   UNL     1      49.922   6.722  15.594  0.00  0.00    +0.000 OA
ATOM     14  C   UNL     1      50.348   7.969  13.621  0.00  0.00    +0.000 A 
ATOM     15  H   UNL     1      52.294   7.064  16.113  0.00  0.00    +0.000 HD
ENDBRANCH   2   5
BRANCH   3  16
ATOM     16  C   UNL     1      46.418   5.563  13.818  0.00  0.00    +0.000 C 
BRANCH  16  17
ATOM     17  C   UNL     1      45.789   4.901  12.619  0.00  0.00    +0.000 A 
ATOM     18  C   UNL     1      45.585   5.618  11.444  0.00  0.00    +0.000 A 
ATOM     19  C   UNL     1      45.035   4.963  10.343  0.00  0.00    +0.000 A 
ATOM     20  C   UNL     1      44.702   3.615  10.443  0.00  0.00    +0.000 A 
ATOM     21  C   UNL     1      44.876   3.001  11.676  0.00  0.00    +0.000 A 
ATOM     22  N   UNL     1      45.416   3.604  12.757  0.00  0.00    +0.000 NA
BRANCH  20  23
ATOM     23  O   UNL     1      44.234   3.019   9.308  0.00  0.00    +0.000 OA
BRANCH  23  24
ATOM     24  C   UNL     1      44.860   1.773   8.988  0.00  0.00    +0.000 C 
BRANCH  24  25
ATOM     25  C   UNL     1      45.885   1.994   7.917  0.00  0.00    +0.000 A 
ATOM     26  C   UNL     1      45.916   3.180   7.177  0.00  0.00    +0.000 A 
ATOM     27  C   UNL     1      46.918   3.379   6.234  0.00  0.00    +0.000 A 
ATOM     28  C   UNL     1      47.862   2.381   6.064  0.00  0.00    +0.000 A 
ATOM     29  N   UNL     1      47.870   1.225   6.762  0.00  0.00    +0.000 NA
ATOM     30  C   UNL     1      46.883   1.058   7.669  0.00  0.00    +0.000 A 
ENDBRANCH  24  25
ENDBRANCH  23  24
ENDBRANCH  20  23
ENDBRANCH  16  17
ENDBRANCH   3  16
TORSDOF 6
ENDMDL
MODEL 6
REMARK VINA RESULT:    -7.397      1.766      2.123
REMARK INTER + INTRA:         -11.027
REMARK INTER:                 -10.489
REMARK INTRA:                  -0.538
REMARK UNBOUND:                -1.036
REMARK  Name = 
REMARK  6 active torsions:
REMARK  status: ('A' for Active; 'I' for Inactive)
REMARK    1  A    between atoms: C_2  and  C_19
REMARK    2  A    between atoms: N_3  and  C_4
REMARK    3  A    between atoms: C_4  and  C_5
REMARK    4  A    between atoms: C_8  and  O_9
REMARK    5  A    between atoms: O_9  and  C_10
REMARK    6  A    between atoms: C_10  and  C_11
REMARK                            x       y       z     vdW  Elec       q    Type
REMARK                         _______ _______ _______ _____ _____    ______ ____
ROOT
ATOM      1  O   UNL     1      50.380   6.724  15.313  0.00  0.00    +0.000 OA
ATOM      2  C   UNL     1      49.205   6.745  15.666  0.00  0.00    +0.000 C 
ATOM      3  N   UNL     1      48.167   6.757  14.778  0.00  0.00    +0.000 N 
ATOM      4  H   UNL     1      47.210   6.785  15.102  0.00  0.00    +0.000 HD
ENDROOT
BRANCH   2   5
ATOM      5  C   UNL     1      48.821   6.815  17.077  0.00  0.00    +0.000 A 
ATOM      6  C   UNL     1      48.375   8.007  17.628  0.00  0.00    +0.000 A 
ATOM      7  S   UNL     1      47.919   7.863  19.268  0.00  0.00    +0.000 S 
ATOM      8  C   UNL     1      48.345   6.215  19.301  0.00  0.00    +0.000 A 
ATOM      9  N   UNL     1      48.192   5.472  20.430  0.00  0.00    +0.000 NA
ATOM     10  C   UNL     1      48.578   4.244  20.316  0.00  0.00    +0.000 A 
ATOM     11  N   UNL     1      49.113   3.695  19.183  0.00  0.00    +0.000 N 
ATOM     12  C   UNL     1      49.289   4.404  18.019  0.00  0.00    +0.000 A 
ATOM     13  O   UNL     1      49.767   3.874  17.022  0.00  0.00    +0.000 OA
ATOM     14  C   UNL     1      48.841   5.783  18.084  0.00  0.00    +0.000 A 
ATOM     15  H   UNL     1      49.406   2.727  19.160  0.00  0.00    +0.000 HD
ENDBRANCH   2   5
BRANCH   3  16
ATOM     16  C   UNL     1      48.347   6.636  13.355  0.00  0.00    +0.000 C 
BRANCH  16  17
ATOM     17  C   UNL     1      47.126   6.063  12.684  0.00  0.00    +0.000 A 
ATOM     18  C   UNL     1      46.502   6.753  11.649  0.00  0.00    +0.000 A 
ATOM     19  C   UNL     1      45.395   6.175  11.026  0.00  0.00    +0.000 A 
ATOM     20  C   UNL     1      44.942   4.930  11.452  0.00  0.00    +0.000 A 
ATOM     21  C   UNL     1      45.584   4.350  12.537  0.00  0.00    +0.000 A 
ATOM     22  N   UNL     1      46.663   4.878  13.155  0.00  0.00    +0.000 NA
BRANCH  20  23
ATOM     23  O   UNL     1      43.899   4.392  10.753  0.00  0.00    +0.000 OA
BRANCH  23  24
ATOM     24  C   UNL     1      44.080   3.025  10.374  0.00  0.00    +0.000 C 
BRANCH  24  25
ATOM     25  C   UNL     1      44.981   2.958   9.178  0.00  0.00    +0.000 A 
ATOM     26  C   UNL     1      45.676   1.788   8.859  0.00  0.00    +0.000 A 
ATOM     27  C   UNL     1      46.455   1.740   7.708  0.00  0.00    +0.000 A 
ATOM     28  C   UNL     1      46.510   2.869   6.909  0.00  0.00    +0.000 A 
ATOM     29  N   UNL     1      45.851   4.016   7.180  0.00  0.00    +0.000 NA
ATOM     30  C   UNL     1      45.104   4.035   8.306  0.00  0.00    +0.000 A 
ENDBRANCH  24  25
ENDBRANCH  23  24
ENDBRANCH  20  23
ENDBRANCH  16  17
ENDBRANCH   3  16
TORSDOF 6
ENDMDL
MODEL 7
REMARK VINA RESULT:    -7.050      3.269      7.774
REMARK INTER + INTRA:         -10.559
REMARK INTER:                  -9.625
REMARK INTRA:                  -0.933
REMARK UNBOUND:                -1.036
REMARK  Name = 
REMARK  6 active torsions:
REMARK  status: ('A' for Active; 'I' for Inactive)
REMARK    1  A    between atoms: C_2  and  C_19
REMARK    2  A    between atoms: N_3  and  C_4
REMARK    3  A    between atoms: C_4  and  C_5
REMARK    4  A    between atoms: C_8  and  O_9
REMARK    5  A    between atoms: O_9  and  C_10
REMARK    6  A    between atoms: C_10  and  C_11
REMARK                            x       y       z     vdW  Elec       q    Type
REMARK                         _______ _______ _______ _____ _____    ______ ____
ROOT
ATOM      1  O   UNL     1      45.567   7.851  11.856  0.00  0.00    +0.000 OA
ATOM      2  C   UNL     1      46.226   6.866  11.537  0.00  0.00    +0.000 C 
ATOM      3  N   UNL     1      47.574   6.781  11.740  0.00  0.00    +0.000 N 
ATOM      4  H   UNL     1      48.089   5.959  11.456  0.00  0.00    +0.000 HD
ENDROOT
BRANCH   2   5
ATOM      5  C   UNL     1      45.624   5.718  10.856  0.00  0.00    +0.000 A 
ATOM      6  C   UNL     1      45.786   5.542   9.490  0.00  0.00    +0.000 A 
ATOM      7  S   UNL     1      45.060   4.113   8.903  0.00  0.00    +0.000 S 
ATOM      8  C   UNL     1      44.469   3.709  10.448  0.00  0.00    +0.000 A 
ATOM      9  N   UNL     1      43.753   2.572  10.651  0.00  0.00    +0.000 NA
ATOM     10  C   UNL     1      43.350   2.405  11.868  0.00  0.00    +0.000 A 
ATOM     11  N   UNL     1      43.589   3.277  12.896  0.00  0.00    +0.000 N 
ATOM     12  C   UNL     1      44.306   4.438  12.740  0.00  0.00    +0.000 A 
ATOM     13  O   UNL     1      44.505   5.190  13.688  0.00  0.00    +0.000 OA
ATOM     14  C   UNL     1      44.809   4.657  11.396  0.00  0.00    +0.000 A 
ATOM     15  H   UNL     1      43.238   3.095  13.826  0.00  0.00    +0.000 HD
ENDBRANCH   2   5
BRANCH   3  16
ATOM     16  C   UNL     1      48.328   7.785  12.445  0.00  0.00    +0.000 C 
BRANCH  16  17
ATOM     17  C   UNL     1      48.860   7.267  13.756  0.00  0.00    +0.000 A 
ATOM     18  C   UNL     1      50.089   7.704  14.240  0.00  0.00    +0.000 A 
ATOM     19  C   UNL     1      50.533   7.231  15.474  0.00  0.00    +0.000 A 
ATOM     20  C   UNL     1      49.742   6.337  16.190  0.00  0.00    +0.000 A 
ATOM     21  C   UNL     1      48.565   5.904  15.596  0.00  0.00    +0.000 A 
ATOM     22  N   UNL     1      48.102   6.350  14.408  0.00  0.00    +0.000 NA
BRANCH  20  23
ATOM     23  O   UNL     1      50.204   5.969  17.421  0.00  0.00    +0.000 OA
BRANCH  23  24
ATOM     24  C   UNL     1      49.563   4.819  17.978  0.00  0.00    +0.000 C 
BRANCH  24  25
ATOM     25  C   UNL     1      50.426   3.614  17.756  0.00  0.00    +0.000 A 
ATOM     26  C   UNL     1      51.771   3.607  18.137  0.00  0.00    +0.000 A 
ATOM     27  C   UNL     1      52.529   2.452  17.973  0.00  0.00    +0.000 A 
ATOM     28  C   UNL     1      51.910   1.337  17.435  0.00  0.00    +0.000 A 
ATOM     29  N   UNL     1      50.614   1.302  17.060  0.00  0.00    +0.000 NA
ATOM     30  C   UNL     1      49.903   2.439  17.227  0.00  0.00    +0.000 A 
ENDBRANCH  24  25
ENDBRANCH  23  24
ENDBRANCH  20  23
ENDBRANCH  16  17
ENDBRANCH   3  16
TORSDOF 6
ENDMDL
MODEL 8
REMARK VINA RESULT:    -6.552      3.505      7.485
REMARK INTER + INTRA:          -9.885
REMARK INTER:                  -8.630
REMARK INTRA:                  -1.255
REMARK UNBOUND:                -1.036
REMARK  Name = 
REMARK  6 active torsions:
REMARK  status: ('A' for Active; 'I' for Inactive)
REMARK    1  A    between atoms: C_2  and  C_19
REMARK    2  A    between atoms: N_3  and  C_4
REMARK    3  A    between atoms: C_4  and  C_5
REMARK    4  A    between atoms: C_8  and  O_9
REMARK    5  A    between atoms: O_9  and  C_10
REMARK    6  A    between atoms: C_10  and  C_11
REMARK                            x       y       z     vdW  Elec       q    Type
REMARK                         _______ _______ _______ _____ _____    ______ ____
ROOT
ATOM      1  O   UNL     1      48.389   7.267  12.325  0.00  0.00    +0.000 OA
ATOM      2  C   UNL     1      47.330   7.402  12.931  0.00  0.00    +0.000 C 
ATOM      3  N   UNL     1      47.231   8.111  14.095  0.00  0.00    +0.000 N 
ATOM      4  H   UNL     1      46.345   8.195  14.574  0.00  0.00    +0.000 HD
ENDROOT
BRANCH   2   5
ATOM      5  C   UNL     1      46.092   6.763  12.481  0.00  0.00    +0.000 A 
ATOM      6  C   UNL     1      45.074   7.517  11.917  0.00  0.00    +0.000 A 
ATOM      7  S   UNL     1      43.744   6.578  11.402  0.00  0.00    +0.000 S 
ATOM      8  C   UNL     1      44.470   5.142  11.958  0.00  0.00    +0.000 A 
ATOM      9  N   UNL     1      43.850   3.940  11.816  0.00  0.00    +0.000 NA
ATOM     10  C   UNL     1      44.507   2.940  12.304  0.00  0.00    +0.000 A 
ATOM     11  N   UNL     1      45.720   3.033  12.931  0.00  0.00    +0.000 N 
ATOM     12  C   UNL     1      46.385   4.223  13.100  0.00  0.00    +0.000 A 
ATOM     13  O   UNL     1      47.474   4.264  13.662  0.00  0.00    +0.000 OA
ATOM     14  C   UNL     1      45.703   5.376  12.540  0.00  0.00    +0.000 A 
ATOM     15  H   UNL     1      46.180   2.212  13.301  0.00  0.00    +0.000 HD
ENDBRANCH   2   5
BRANCH   3  16
ATOM     16  C   UNL     1      48.326   8.855  14.659  0.00  0.00    +0.000 C 
BRANCH  16  17
ATOM     17  C   UNL     1      49.061   8.058  15.706  0.00  0.00    +0.000 A 
ATOM     18  C   UNL     1      48.651   8.094  17.035  0.00  0.00    +0.000 A 
ATOM     19  C   UNL     1      49.331   7.316  17.971  0.00  0.00    +0.000 A 
ATOM     20  C   UNL     1      50.400   6.526  17.558  0.00  0.00    +0.000 A 
ATOM     21  C   UNL     1      50.781   6.607  16.226  0.00  0.00    +0.000 A 
ATOM     22  N   UNL     1      50.137   7.343  15.293  0.00  0.00    +0.000 NA
BRANCH  20  23
ATOM     23  O   UNL     1      50.975   5.736  18.511  0.00  0.00    +0.000 OA
BRANCH  23  24
ATOM     24  C   UNL     1      50.064   4.875  19.200  0.00  0.00    +0.000 C 
BRANCH  24  25
ATOM     25  C   UNL     1      49.516   3.864  18.239  0.00  0.00    +0.000 A 
ATOM     26  C   UNL     1      48.149   3.801  17.954  0.00  0.00    +0.000 A 
ATOM     27  C   UNL     1      47.681   2.892  17.012  0.00  0.00    +0.000 A 
ATOM     28  C   UNL     1      48.602   2.075  16.380  0.00  0.00    +0.000 A 
ATOM     29  N   UNL     1      49.929   2.109  16.622  0.00  0.00    +0.000 NA
ATOM     30  C   UNL     1      50.355   2.999  17.545  0.00  0.00    +0.000 A 
ENDBRANCH  24  25
ENDBRANCH  23  24
ENDBRANCH  20  23
ENDBRANCH  16  17
ENDBRANCH   3  16
TORSDOF 6
ENDMDL
MODEL 9
REMARK VINA RESULT:    -5.987      5.211      6.764
REMARK INTER + INTRA:          -9.122
REMARK INTER:                  -8.148
REMARK INTRA:                  -0.975
REMARK UNBOUND:                -1.036
REMARK  Name = 
REMARK  6 active torsions:
REMARK  status: ('A' for Active; 'I' for Inactive)
REMARK    1  A    between atoms: C_2  and  C_19
REMARK    2  A    between atoms: N_3  and  C_4
REMARK    3  A    between atoms: C_4  and  C_5
REMARK    4  A    between atoms: C_8  and  O_9
REMARK    5  A    between atoms: O_9  and  C_10
REMARK    6  A    between atoms: C_10  and  C_11
REMARK                            x       y       z     vdW  Elec       q    Type
REMARK                         _______ _______ _______ _____ _____    ______ ____
ROOT
ATOM      1  O   UNL     1      52.800   8.779  12.333  0.00  0.00    +0.000 OA
ATOM      2  C   UNL     1      52.090   8.486  11.377  0.00  0.00    +0.000 C 
ATOM      3  N   UNL     1      50.878   7.870  11.518  0.00  0.00    +0.000 N 
ATOM      4  H   UNL     1      50.322   7.633  10.707  0.00  0.00    +0.000 HD
ENDROOT
BRANCH   2   5
ATOM      5  C   UNL     1      52.512   8.726   9.996  0.00  0.00    +0.000 A 
ATOM      6  C   UNL     1      52.409   9.990   9.435  0.00  0.00    +0.000 A 
ATOM      7  S   UNL     1      53.011  10.072   7.839  0.00  0.00    +0.000 S 
ATOM      8  C   UNL     1      53.384   8.411   7.833  0.00  0.00    +0.000 A 
ATOM      9  N   UNL     1      53.948   7.821   6.746  0.00  0.00    +0.000 NA
ATOM     10  C   UNL     1      54.156   6.552   6.875  0.00  0.00    +0.000 A 
ATOM     11  N   UNL     1      53.839   5.818   7.986  0.00  0.00    +0.000 N 
ATOM     12  C   UNL     1      53.268   6.367   9.108  0.00  0.00    +0.000 A 
ATOM     13  O   UNL     1      53.005   5.676  10.086  0.00  0.00    +0.000 OA
ATOM     14  C   UNL     1      53.043   7.799   9.026  0.00  0.00    +0.000 A 
ATOM     15  H   UNL     1      54.018   4.823   8.022  0.00  0.00    +0.000 HD
ENDBRANCH   2   5
BRANCH   3  16
ATOM     16  C   UNL     1      50.273   7.608  12.797  0.00  0.00    +0.000 C 
BRANCH  16  17
ATOM     17  C   UNL     1      48.898   7.007  12.652  0.00  0.00    +0.000 A 
ATOM     18  C   UNL     1      48.001   7.519  11.720  0.00  0.00    +0.000 A 
ATOM     19  C   UNL     1      46.751   6.914  11.589  0.00  0.00    +0.000 A 
ATOM     20  C   UNL     1      46.431   5.820  12.388  0.00  0.00    +0.000 A 
ATOM     21  C   UNL     1      47.363   5.425  13.337  0.00  0.00    +0.000 A 
ATOM     22  N   UNL     1      48.584   5.982  13.483  0.00  0.00    +0.000 NA
BRANCH  20  23
ATOM     23  O   UNL     1      45.219   5.234  12.157  0.00  0.00    +0.000 OA
BRANCH  23  24
ATOM     24  C   UNL     1      44.643   5.541  10.885  0.00  0.00    +0.000 C 
BRANCH  24  25
ATOM     25  C   UNL     1      44.969   4.444   9.916  0.00  0.00    +0.000 A 
ATOM     26  C   UNL     1      45.669   4.705   8.735  0.00  0.00    +0.000 A 
ATOM     27  C   UNL     1      46.009   3.656   7.888  0.00  0.00    +0.000 A 
ATOM     28  C   UNL     1      45.639   2.374   8.256  0.00  0.00    +0.000 A 
ATOM     29  N   UNL     1      44.968   2.080   9.390  0.00  0.00    +0.000 NA
ATOM     30  C   UNL     1      44.648   3.119  10.192  0.00  0.00    +0.000 A 
ENDBRANCH  24  25
ENDBRANCH  23  24
ENDBRANCH  20  23
ENDBRANCH  16  17
ENDBRANCH   3  16
TORSDOF 6
ENDMDL
