MODEL 1
REMARK VINA RESULT:    -7.488      0.000      0.000
REMARK INTER + INTRA:         -10.366
REMARK INTER:                  -9.677
REMARK INTRA:                  -0.689
REMARK UNBOUND:                -0.689
REMARK  Name = 
REMARK  8 active torsions:
REMARK  status: ('A' for Active; 'I' for Inactive)
REMARK    1  A    between atoms: C_1  and  C_2
REMARK    2  A    between atoms: C_2  and  C_3
REMARK    3  A    between atoms: C_2  and  C_4
REMARK    4  A    between atoms: C_2  and  C_5
REMARK    5  A    between atoms: C_8  and  C_9
REMARK    6  A    between atoms: C_9  and  N_10
REMARK    7  A    between atoms: N_10  and  C_11
REMARK    8  A    between atoms: C_14  and  C_15
REMARK                            x       y       z     vdW  Elec       q    Type
REMARK                         _______ _______ _______ _____ _____    ______ ____
ROOT
ATOM      1  N   UNL     1      43.679   4.714   9.964  0.00  0.00    +0.000 N 
ATOM      2  H   UNL     1      43.722   5.694   9.687  0.00  0.00    +0.000 HD
ENDROOT
BRANCH   1   3
ATOM      3  C   UNL     1      44.554   3.916   9.223  0.00  0.00    +0.000 A 
ATOM      4  C   UNL     1      45.529   4.392   8.357  0.00  0.00    +0.000 A 
ATOM      5  N   UNL     1      46.408   3.624   7.675  0.00  0.00    +0.000 NA
ATOM      6  C   UNL     1      46.323   2.296   7.916  0.00  0.00    +0.000 A 
ATOM      7  N   UNL     1      45.467   1.707   8.772  0.00  0.00    +0.000 NA
ATOM      8  C   UNL     1      44.622   2.542   9.415  0.00  0.00    +0.000 A 
BRANCH   6   9
ATOM      9  C   UNL     1      47.283   1.415   7.151  0.00  0.00    +0.000 C 
ATOM     10  N   UNL     1      48.376   2.058   6.614  0.00  0.00    +0.000 N 
ATOM     11  O   UNL     1      47.132   0.210   6.993  0.00  0.00    +0.000 OA
ATOM     12  H   UNL     1      48.499   3.054   6.763  0.00  0.00    +0.000 HD
ATOM     13  H   UNL     1      49.056   1.519   6.098  0.00  0.00    +0.000 HD
ENDBRANCH   6   9
ENDBRANCH   1   3
BRANCH   1  14
ATOM     14  C   UNL     1      43.686   4.564  11.418  0.00  0.00    +0.000 C 
BRANCH  14  18
ATOM     15  C   UNL     1      46.987   6.636  13.182  0.00  0.00    +0.000 A 
ATOM     16  C   UNL     1      46.243   7.273  12.186  0.00  0.00    +0.000 A 
ATOM     17  C   UNL     1      45.166   6.611  11.600  0.00  0.00    +0.000 A 
ATOM     18  C   UNL     1      44.841   5.318  12.010  0.00  0.00    +0.000 A 
ATOM     19  C   UNL     1      45.619   4.763  13.016  0.00  0.00    +0.000 A 
ATOM     20  N   UNL     1      46.669   5.385  13.598  0.00  0.00    +0.000 NA
BRANCH  15  22
ATOM     21  C   UNL     1      48.586   6.580  15.125  0.00  0.00    +0.000 C 
ATOM     22  C   UNL     1      48.185   7.331  13.841  0.00  0.00    +0.000 C 
ATOM     23  C   UNL     1      47.827   8.788  14.193  0.00  0.00    +0.000 C 
ATOM     24  C   UNL     1      49.408   7.363  12.897  0.00  0.00    +0.000 C 
ENDBRANCH  15  22
ENDBRANCH  14  18
ENDBRANCH   1  14
TORSDOF 5
ENDMDL
MODEL 2
REMARK VINA RESULT:    -6.944      2.833      6.908
REMARK INTER + INTRA:          -9.663
REMARK INTER:                  -9.025
REMARK INTRA:                  -0.638
REMARK UNBOUND:                -0.689
REMARK  Name = 
REMARK  8 active torsions:
REMARK  status: ('A' for Active; 'I' for Inactive)
REMARK    1  A    between atoms: C_1  and  C_2
REMARK    2  A    between atoms: C_2  and  C_3
REMARK    3  A    between atoms: C_2  and  C_4
REMARK    4  A    between atoms: C_2  and  C_5
REMARK    5  A    between atoms: C_8  and  C_9
REMARK    6  A    between atoms: C_9  and  N_10
REMARK    7  A    between atoms: N_10  and  C_11
REMARK    8  A    between atoms: C_14  and  C_15
REMARK                            x       y       z     vdW  Elec       q    Type
REMARK                         _______ _______ _______ _____ _____    ______ ____
ROOT
ATOM      1  N   UNL     1      44.491   6.033  11.187  0.00  0.00    +0.000 N 
ATOM      2  H   UNL     1      43.943   6.864  11.409  0.00  0.00    +0.000 HD
ENDROOT
BRANCH   1   3
ATOM      3  C   UNL     1      45.315   5.645  12.245  0.00  0.00    +0.000 A 
ATOM      4  C   UNL     1      46.522   6.244  12.579  0.00  0.00    +0.000 A 
ATOM      5  N   UNL     1      47.298   5.900  13.631  0.00  0.00    +0.000 NA
ATOM      6  C   UNL     1      46.803   4.917  14.417  0.00  0.00    +0.000 A 
ATOM      7  N   UNL     1      45.625   4.292  14.243  0.00  0.00    +0.000 NA
ATOM      8  C   UNL     1      44.907   4.692  13.171  0.00  0.00    +0.000 A 
BRANCH   6   9
ATOM      9  C   UNL     1      47.663   4.502  15.588  0.00  0.00    +0.000 C 
ATOM     10  N   UNL     1      47.273   3.344  16.227  0.00  0.00    +0.000 N 
ATOM     11  O   UNL     1      48.642   5.126  15.978  0.00  0.00    +0.000 OA
ATOM     12  H   UNL     1      46.470   2.827  15.886  0.00  0.00    +0.000 HD
ATOM     13  H   UNL     1      47.814   3.013  17.012  0.00  0.00    +0.000 HD
ENDBRANCH   6   9
ENDBRANCH   1   3
BRANCH   1  14
ATOM     14  C   UNL     1      43.673   5.004  10.547  0.00  0.00    +0.000 C 
BRANCH  14  18
ATOM     15  C   UNL     1      46.081   2.789   7.790  0.00  0.00    +0.000 A 
ATOM     16  C   UNL     1      45.260   2.094   8.681  0.00  0.00    +0.000 A 
ATOM     17  C   UNL     1      44.471   2.801   9.586  0.00  0.00    +0.000 A 
ATOM     18  C   UNL     1      44.509   4.195   9.598  0.00  0.00    +0.000 A 
ATOM     19  C   UNL     1      45.339   4.809   8.671  0.00  0.00    +0.000 A 
ATOM     20  N   UNL     1      46.114   4.145   7.785  0.00  0.00    +0.000 NA
BRANCH  15  22
ATOM     21  C   UNL     1      47.012   0.544   7.137  0.00  0.00    +0.000 C 
ATOM     22  C   UNL     1      46.970   2.044   6.788  0.00  0.00    +0.000 C 
ATOM     23  C   UNL     1      48.402   2.614   6.820  0.00  0.00    +0.000 C 
ATOM     24  C   UNL     1      46.439   2.190   5.344  0.00  0.00    +0.000 C 
ENDBRANCH  15  22
ENDBRANCH  14  18
ENDBRANCH   1  14
TORSDOF 5
ENDMDL
MODEL 3
REMARK VINA RESULT:    -6.477      2.465      6.914
REMARK INTER + INTRA:          -9.059
REMARK INTER:                  -8.541
REMARK INTRA:                  -0.517
REMARK UNBOUND:                -0.689
REMARK  Name = 
REMARK  8 active torsions:
REMARK  status: ('A' for Active; 'I' for Inactive)
REMARK    1  A    between atoms: C_1  and  C_2
REMARK    2  A    between atoms: C_2  and  C_3
REMARK    3  A    between atoms: C_2  and  C_4
REMARK    4  A    between atoms: C_2  and  C_5
REMARK    5  A    between atoms: C_8  and  C_9
REMARK    6  A    between atoms: C_9  and  N_10
REMARK    7  A    between atoms: N_10  and  C_11
REMARK    8  A    between atoms: C_14  and  C_15
REMARK                            x       y       z     vdW  Elec       q    Type
REMARK                         _______ _______ _______ _____ _____    ______ ____
ROOT
ATOM      1  N   UNL     1      43.609   5.663  11.030  0.00  0.00    +0.000 N 
ATOM      2  H   UNL     1      42.779   6.187  11.304  0.00  0.00    +0.000 HD
ENDROOT
BRANCH   1   3
ATOM      3  C   UNL     1      44.716   5.973  11.825  0.00  0.00    +0.000 A 
ATOM      4  C   UNL     1      45.110   5.268  12.954  0.00  0.00    +0.000 A 
ATOM      5  N   UNL     1      46.207   5.536  13.697  0.00  0.00    +0.000 NA
ATOM      6  C   UNL     1      46.974   6.555  13.247  0.00  0.00    +0.000 A 
ATOM      7  N   UNL     1      46.741   7.283  12.139  0.00  0.00    +0.000 NA
ATOM      8  C   UNL     1      45.627   6.953  11.451  0.00  0.00    +0.000 A 
BRANCH   6   9
ATOM      9  C   UNL     1      48.195   6.887  14.072  0.00  0.00    +0.000 C 
ATOM     10  N   UNL     1      47.944   7.505  15.278  0.00  0.00    +0.000 N 
ATOM     11  O   UNL     1      49.345   6.645  13.726  0.00  0.00    +0.000 OA
ATOM     12  H   UNL     1      46.988   7.687  15.562  0.00  0.00    +0.000 HD
ATOM     13  H   UNL     1      48.721   7.744  15.876  0.00  0.00    +0.000 HD
ENDBRANCH   6   9
ENDBRANCH   1   3
BRANCH   1  14
ATOM     14  C   UNL     1      43.306   4.252  10.804  0.00  0.00    +0.000 C 
BRANCH  14  18
ATOM     15  C   UNL     1      45.966   2.717   7.825  0.00  0.00    +0.000 A 
ATOM     16  C   UNL     1      45.421   1.836   8.763  0.00  0.00    +0.000 A 
ATOM     17  C   UNL     1      44.554   2.321   9.741  0.00  0.00    +0.000 A 
ATOM     18  C   UNL     1      44.241   3.680   9.777  0.00  0.00    +0.000 A 
ATOM     19  C   UNL     1      44.811   4.483   8.801  0.00  0.00    +0.000 A 
ATOM     20  N   UNL     1      45.655   4.037   7.844  0.00  0.00    +0.000 NA
BRANCH  15  22
ATOM     21  C   UNL     1      48.290   2.931   6.883  0.00  0.00    +0.000 C 
ATOM     22  C   UNL     1      46.931   2.220   6.742  0.00  0.00    +0.000 C 
ATOM     23  C   UNL     1      46.350   2.502   5.342  0.00  0.00    +0.000 C 
ATOM     24  C   UNL     1      47.169   0.697   6.854  0.00  0.00    +0.000 C 
ENDBRANCH  15  22
ENDBRANCH  14  18
ENDBRANCH   1  14
TORSDOF 5
ENDMDL
MODEL 4
REMARK VINA RESULT:    -6.246      4.597      7.936
REMARK INTER + INTRA:          -8.760
REMARK INTER:                  -8.346
REMARK INTRA:                  -0.414
REMARK UNBOUND:                -0.689
REMARK  Name = 
REMARK  8 active torsions:
REMARK  status: ('A' for Active; 'I' for Inactive)
REMARK    1  A    between atoms: C_1  and  C_2
REMARK    2  A    between atoms: C_2  and  C_3
REMARK    3  A    between atoms: C_2  and  C_4
REMARK    4  A    between atoms: C_2  and  C_5
REMARK    5  A    between atoms: C_8  and  C_9
REMARK    6  A    between atoms: C_9  and  N_10
REMARK    7  A    between atoms: N_10  and  C_11
REMARK    8  A    between atoms: C_14  and  C_15
REMARK                            x       y       z     vdW  Elec       q    Type
REMARK                         _______ _______ _______ _____ _____    ______ ____
ROOT
ATOM      1  N   UNL     1      47.628   4.639  16.381  0.00  0.00    +0.000 N 
ATOM      2  H   UNL     1      46.740   4.139  16.359  0.00  0.00    +0.000 HD
ENDROOT
BRANCH   1   3
ATOM      3  C   UNL     1      48.696   3.805  16.721  0.00  0.00    +0.000 A 
ATOM      4  C   UNL     1      48.819   2.473  16.351  0.00  0.00    +0.000 A 
ATOM      5  N   UNL     1      49.873   1.678  16.639  0.00  0.00    +0.000 NA
ATOM      6  C   UNL     1      50.884   2.279  17.306  0.00  0.00    +0.000 A 
ATOM      7  N   UNL     1      50.922   3.572  17.674  0.00  0.00    +0.000 NA
ATOM      8  C   UNL     1      49.831   4.301  17.350  0.00  0.00    +0.000 A 
BRANCH   6   9
ATOM      9  C   UNL     1      52.066   1.405  17.656  0.00  0.00    +0.000 C 
ATOM     10  N   UNL     1      51.755   0.140  18.104  0.00  0.00    +0.000 N 
ATOM     11  O   UNL     1      53.235   1.761  17.567  0.00  0.00    +0.000 OA
ATOM     12  H   UNL     1      50.785  -0.150  18.159  0.00  0.00    +0.000 HD
ATOM     13  H   UNL     1      52.504  -0.492  18.345  0.00  0.00    +0.000 HD
ENDBRANCH   6   9
ENDBRANCH   1   3
BRANCH   1  14
ATOM     14  C   UNL     1      47.786   5.508  15.216  0.00  0.00    +0.000 C 
BRANCH  14  18
ATOM     15  C   UNL     1      45.243   4.110  12.073  0.00  0.00    +0.000 A 
ATOM     16  C   UNL     1      45.498   5.479  12.177  0.00  0.00    +0.000 A 
ATOM     17  C   UNL     1      46.323   5.951  13.196  0.00  0.00    +0.000 A 
ATOM     18  C   UNL     1      46.884   5.054  14.105  0.00  0.00    +0.000 A 
ATOM     19  C   UNL     1      46.594   3.710  13.923  0.00  0.00    +0.000 A 
ATOM     20  N   UNL     1      45.795   3.229  12.943  0.00  0.00    +0.000 NA
BRANCH  15  22
ATOM     21  C   UNL     1      43.289   2.601  11.581  0.00  0.00    +0.000 C 
ATOM     22  C   UNL     1      44.332   3.558  10.970  0.00  0.00    +0.000 C 
ATOM     23  C   UNL     1      45.167   2.799   9.920  0.00  0.00    +0.000 C 
ATOM     24  C   UNL     1      43.578   4.692  10.240  0.00  0.00    +0.000 C 
ENDBRANCH  15  22
ENDBRANCH  14  18
ENDBRANCH   1  14
TORSDOF 5
ENDMDL
MODEL 5
REMARK VINA RESULT:    -5.646      2.531      4.423
REMARK INTER + INTRA:          -7.986
REMARK INTER:                  -7.499
REMARK INTRA:                  -0.486
REMARK UNBOUND:                -0.689
REMARK  Name = 
REMARK  8 active torsions:
REMARK  status: ('A' for Active; 'I' for Inactive)
REMARK    1  A    between atoms: C_1  and  C_2
REMARK    2  A    between atoms: C_2  and  C_3
REMARK    3  A    between atoms: C_2  and  C_4
REMARK    4  A    between atoms: C_2  and  C_5
REMARK    5  A    between atoms: C_8  and  C_9
REMARK    6  A    between atoms: C_9  and  N_10
REMARK    7  A    between atoms: N_10  and  C_11
REMARK    8  A    between atoms: C_14  and  C_15
REMARK                            x       y       z     vdW  Elec       q    Type
REMARK                         _______ _______ _______ _____ _____    ______ ____
ROOT
ATOM      1  N   UNL     1      45.958   6.490  13.257  0.00  0.00    +0.000 N 
ATOM      2  H   UNL     1      45.344   7.300  13.345  0.00  0.00    +0.000 HD
ENDROOT
BRANCH   1   3
ATOM      3  C   UNL     1      45.584   5.656  12.200  0.00  0.00    +0.000 A 
ATOM      4  C   UNL     1      45.811   5.919  10.856  0.00  0.00    +0.000 A 
ATOM      5  N   UNL     1      45.493   5.093   9.836  0.00  0.00    +0.000 NA
ATOM      6  C   UNL     1      44.948   3.910  10.200  0.00  0.00    +0.000 A 
ATOM      7  N   UNL     1      44.726   3.503  11.463  0.00  0.00    +0.000 NA
ATOM      8  C   UNL     1      45.072   4.385  12.426  0.00  0.00    +0.000 A 
BRANCH   6   9
ATOM      9  C   UNL     1      44.566   2.976   9.074  0.00  0.00    +0.000 C 
ATOM     10  N   UNL     1      44.220   3.588   7.889  0.00  0.00    +0.000 N 
ATOM     11  O   UNL     1      44.547   1.755   9.171  0.00  0.00    +0.000 OA
ATOM     12  H   UNL     1      44.254   4.599   7.816  0.00  0.00    +0.000 HD
ATOM     13  H   UNL     1      43.963   3.015   7.100  0.00  0.00    +0.000 HD
ENDBRANCH   6   9
ENDBRANCH   1   3
BRANCH   1  14
ATOM     14  C   UNL     1      47.366   6.866  13.363  0.00  0.00    +0.000 C 
BRANCH  14  18
ATOM     15  C   UNL     1      49.022   5.048  16.863  0.00  0.00    +0.000 A 
ATOM     16  C   UNL     1      49.485   6.307  16.472  0.00  0.00    +0.000 A 
ATOM     17  C   UNL     1      48.956   6.912  15.333  0.00  0.00    +0.000 A 
ATOM     18  C   UNL     1      47.974   6.256  14.592  0.00  0.00    +0.000 A 
ATOM     19  C   UNL     1      47.558   5.016  15.057  0.00  0.00    +0.000 A 
ATOM     20  N   UNL     1      48.056   4.409  16.158  0.00  0.00    +0.000 NA
BRANCH  15  22
ATOM     21  C   UNL     1      50.882   3.597  17.740  0.00  0.00    +0.000 C 
ATOM     22  C   UNL     1      49.588   4.349  18.105  0.00  0.00    +0.000 C 
ATOM     23  C   UNL     1      48.559   3.349  18.668  0.00  0.00    +0.000 C 
ATOM     24  C   UNL     1      49.917   5.363  19.223  0.00  0.00    +0.000 C 
ENDBRANCH  15  22
ENDBRANCH  14  18
ENDBRANCH   1  14
TORSDOF 5
ENDMDL
MODEL 6
REMARK VINA RESULT:    -5.588      4.034      6.416
REMARK INTER + INTRA:          -7.910
REMARK INTER:                  -7.438
REMARK INTRA:                  -0.471
REMARK UNBOUND:                -0.689
REMARK  Name = 
REMARK  8 active torsions:
REMARK  status: ('A' for Active; 'I' for Inactive)
REMARK    1  A    between atoms: C_1  and  C_2
REMARK    2  A    between atoms: C_2  and  C_3
REMARK    3  A    between atoms: C_2  and  C_4
REMARK    4  A    between atoms: C_2  and  C_5
REMARK    5  A    between atoms: C_8  and  C_9
REMARK    6  A    between atoms: C_9  and  N_10
REMARK    7  A    between atoms: N_10  and  C_11
REMARK    8  A    between atoms: C_14  and  C_15
REMARK                            x       y       z     vdW  Elec       q    Type
REMARK                         _______ _______ _______ _____ _____    ______ ____
ROOT
ATOM      1  N   UNL     1      47.519   5.376  15.029  0.00  0.00    +0.000 N 
ATOM      2  H   UNL     1      48.482   5.530  14.731  0.00  0.00    +0.000 HD
ENDROOT
BRANCH   1   3
ATOM      3  C   UNL     1      46.698   4.968  13.974  0.00  0.00    +0.000 A 
ATOM      4  C   UNL     1      46.471   3.650  13.602  0.00  0.00    +0.000 A 
ATOM      5  N   UNL     1      45.641   3.251  12.613  0.00  0.00    +0.000 NA
ATOM      6  C   UNL     1      44.968   4.244  11.989  0.00  0.00    +0.000 A 
ATOM      7  N   UNL     1      45.049   5.554  12.285  0.00  0.00    +0.000 NA
ATOM      8  C   UNL     1      45.899   5.872  13.286  0.00  0.00    +0.000 A 
BRANCH   6   9
ATOM      9  C   UNL     1      44.048   3.824  10.866  0.00  0.00    +0.000 C 
ATOM     10  N   UNL     1      43.859   4.762   9.874  0.00  0.00    +0.000 N 
ATOM     11  O   UNL     1      43.486   2.738  10.807  0.00  0.00    +0.000 OA
ATOM     12  H   UNL     1      44.341   5.653   9.925  0.00  0.00    +0.000 HD
ATOM     13  H   UNL     1      43.260   4.535   9.094  0.00  0.00    +0.000 HD
ENDBRANCH   6   9
ENDBRANCH   1   3
BRANCH   1  14
ATOM     14  C   UNL     1      47.456   4.614  16.275  0.00  0.00    +0.000 C 
BRANCH  14  18
ATOM     15  C   UNL     1      51.371   3.832  17.812  0.00  0.00    +0.000 A 
ATOM     16  C   UNL     1      51.015   5.148  17.507  0.00  0.00    +0.000 A 
ATOM     17  C   UNL     1      49.744   5.419  17.004  0.00  0.00    +0.000 A 
ATOM     18  C   UNL     1      48.840   4.376  16.806  0.00  0.00    +0.000 A 
ATOM     19  C   UNL     1      49.266   3.101  17.149  0.00  0.00    +0.000 A 
ATOM     20  N   UNL     1      50.493   2.813  17.637  0.00  0.00    +0.000 NA
BRANCH  15  22
ATOM     21  C   UNL     1      53.836   4.281  17.578  0.00  0.00    +0.000 C 
ATOM     22  C   UNL     1      52.764   3.496  18.357  0.00  0.00    +0.000 C 
ATOM     23  C   UNL     1      53.039   1.986  18.221  0.00  0.00    +0.000 C 
ATOM     24  C   UNL     1      52.888   3.863  19.853  0.00  0.00    +0.000 C 
ENDBRANCH  15  22
ENDBRANCH  14  18
ENDBRANCH   1  14
TORSDOF 5
ENDMDL
MODEL 7
REMARK VINA RESULT:    -5.587      4.409      8.246
REMARK INTER + INTRA:          -7.909
REMARK INTER:                  -7.396
REMARK INTRA:                  -0.513
REMARK UNBOUND:                -0.689
REMARK  Name = 
REMARK  8 active torsions:
REMARK  status: ('A' for Active; 'I' for Inactive)
REMARK    1  A    between atoms: C_1  and  C_2
REMARK    2  A    between atoms: C_2  and  C_3
REMARK    3  A    between atoms: C_2  and  C_4
REMARK    4  A    between atoms: C_2  and  C_5
REMARK    5  A    between atoms: C_8  and  C_9
REMARK    6  A    between atoms: C_9  and  N_10
REMARK    7  A    between atoms: N_10  and  C_11
REMARK    8  A    between atoms: C_14  and  C_15
REMARK                            x       y       z     vdW  Elec       q    Type
REMARK                         _______ _______ _______ _____ _____    ______ ____
ROOT
ATOM      1  N   UNL     1      48.143   6.646  15.597  0.00  0.00    +0.000 N 
ATOM      2  H   UNL     1      47.171   6.431  15.820  0.00  0.00    +0.000 HD
ENDROOT
BRANCH   1   3
ATOM      3  C   UNL     1      49.039   5.921  16.387  0.00  0.00    +0.000 A 
ATOM      4  C   UNL     1      48.752   4.722  17.025  0.00  0.00    +0.000 A 
ATOM      5  N   UNL     1      49.631   3.995  17.750  0.00  0.00    +0.000 NA
ATOM      6  C   UNL     1      50.889   4.490  17.798  0.00  0.00    +0.000 A 
ATOM      7  N   UNL     1      51.317   5.606  17.180  0.00  0.00    +0.000 NA
ATOM      8  C   UNL     1      50.379   6.276  16.475  0.00  0.00    +0.000 A 
BRANCH   6   9
ATOM      9  C   UNL     1      51.885   3.704  18.619  0.00  0.00    +0.000 C 
ATOM     10  N   UNL     1      52.078   2.398  18.223  0.00  0.00    +0.000 N 
ATOM     11  O   UNL     1      52.495   4.159  19.578  0.00  0.00    +0.000 OA
ATOM     12  H   UNL     1      51.580   2.037  17.418  0.00  0.00    +0.000 HD
ATOM     13  H   UNL     1      52.738   1.827  18.730  0.00  0.00    +0.000 HD
ENDBRANCH   6   9
ENDBRANCH   1   3
BRANCH   1  14
ATOM     14  C   UNL     1      48.372   6.671  14.154  0.00  0.00    +0.000 C 
BRANCH  14  18
ATOM     15  C   UNL     1      45.008   4.922  12.172  0.00  0.00    +0.000 A 
ATOM     16  C   UNL     1      45.694   5.966  11.547  0.00  0.00    +0.000 A 
ATOM     17  C   UNL     1      46.791   6.547  12.180  0.00  0.00    +0.000 A 
ATOM     18  C   UNL     1      47.193   6.085  13.433  0.00  0.00    +0.000 A 
ATOM     19  C   UNL     1      46.469   5.035  13.978  0.00  0.00    +0.000 A 
ATOM     20  N   UNL     1      45.401   4.456  13.384  0.00  0.00    +0.000 NA
BRANCH  15  22
ATOM     21  C   UNL     1      42.548   5.157  11.696  0.00  0.00    +0.000 C 
ATOM     22  C   UNL     1      43.791   4.266  11.509  0.00  0.00    +0.000 C 
ATOM     23  C   UNL     1      43.526   2.882  12.135  0.00  0.00    +0.000 C 
ATOM     24  C   UNL     1      44.016   4.061   9.994  0.00  0.00    +0.000 C 
ENDBRANCH  15  22
ENDBRANCH  14  18
ENDBRANCH   1  14
TORSDOF 5
ENDMDL
MODEL 8
REMARK VINA RESULT:    -5.524      2.956      5.016
REMARK INTER + INTRA:          -7.827
REMARK INTER:                  -7.426
REMARK INTRA:                  -0.401
REMARK UNBOUND:                -0.689
REMARK  Name = 
REMARK  8 active torsions:
REMARK  status: ('A' for Active; 'I' for Inactive)
REMARK    1  A    between atoms: C_1  and  C_2
REMARK    2  A    between atoms: C_2  and  C_3
REMARK    3  A    between atoms: C_2  and  C_4
REMARK    4  A    between atoms: C_2  and  C_5
REMARK    5  A    between atoms: C_8  and  C_9
REMARK    6  A    between atoms: C_9  and  N_10
REMARK    7  A    between atoms: N_10  and  C_11
REMARK    8  A    between atoms: C_14  and  C_15
REMARK                            x       y       z     vdW  Elec       q    Type
REMARK                         _______ _______ _______ _____ _____    ______ ____
ROOT
ATOM      1  N   UNL     1      46.202   7.395  13.349  0.00  0.00    +0.000 N 
ATOM      2  H   UNL     1      45.722   7.677  14.203  0.00  0.00    +0.000 HD
ENDROOT
BRANCH   1   3
ATOM      3  C   UNL     1      45.678   6.217  12.812  0.00  0.00    +0.000 A 
ATOM      4  C   UNL     1      45.554   5.014  13.493  0.00  0.00    +0.000 A 
ATOM      5  N   UNL     1      45.004   3.886  12.991  0.00  0.00    +0.000 NA
ATOM      6  C   UNL     1      44.512   3.994  11.736  0.00  0.00    +0.000 A 
ATOM      7  N   UNL     1      44.513   5.110  10.985  0.00  0.00    +0.000 NA
ATOM      8  C   UNL     1      45.080   6.195  11.558  0.00  0.00    +0.000 A 
BRANCH   6   9
ATOM      9  C   UNL     1      43.909   2.740  11.145  0.00  0.00    +0.000 C 
ATOM     10  N   UNL     1      44.530   2.263  10.011  0.00  0.00    +0.000 N 
ATOM     11  O   UNL     1      42.934   2.162  11.609  0.00  0.00    +0.000 OA
ATOM     12  H   UNL     1      45.345   2.741   9.645  0.00  0.00    +0.000 HD
ATOM     13  H   UNL     1      44.176   1.424   9.577  0.00  0.00    +0.000 HD
ENDBRANCH   6   9
ENDBRANCH   1   3
BRANCH   1  14
ATOM     14  C   UNL     1      46.402   8.526  12.445  0.00  0.00    +0.000 C 
BRANCH  14  18
ATOM     15  C   UNL     1      50.535   8.708  11.354  0.00  0.00    +0.000 A 
ATOM     16  C   UNL     1      49.815   9.899  11.477  0.00  0.00    +0.000 A 
ATOM     17  C   UNL     1      48.468   9.857  11.830  0.00  0.00    +0.000 A 
ATOM     18  C   UNL     1      47.848   8.627  12.054  0.00  0.00    +0.000 A 
ATOM     19  C   UNL     1      48.637   7.493  11.927  0.00  0.00    +0.000 A 
ATOM     20  N   UNL     1      49.945   7.509  11.584  0.00  0.00    +0.000 NA
BRANCH  15  22
ATOM     21  C   UNL     1      52.292   9.880   9.986  0.00  0.00    +0.000 C 
ATOM     22  C   UNL     1      52.016   8.717  10.957  0.00  0.00    +0.000 C 
ATOM     23  C   UNL     1      52.393   7.386  10.279  0.00  0.00    +0.000 C 
ATOM     24  C   UNL     1      52.930   8.891  12.192  0.00  0.00    +0.000 C 
ENDBRANCH  15  22
ENDBRANCH  14  18
ENDBRANCH   1  14
TORSDOF 5
ENDMDL
MODEL 9
REMARK VINA RESULT:    -5.425      3.465      5.699
REMARK INTER + INTRA:          -7.700
REMARK INTER:                  -7.227
REMARK INTRA:                  -0.472
REMARK UNBOUND:                -0.689
REMARK  Name = 
REMARK  8 active torsions:
REMARK  status: ('A' for Active; 'I' for Inactive)
REMARK    1  A    between atoms: C_1  and  C_2
REMARK    2  A    between atoms: C_2  and  C_3
REMARK    3  A    between atoms: C_2  and  C_4
REMARK    4  A    between atoms: C_2  and  C_5
REMARK    5  A    between atoms: C_8  and  C_9
REMARK    6  A    between atoms: C_9  and  N_10
REMARK    7  A    between atoms: N_10  and  C_11
REMARK    8  A    between atoms: C_14  and  C_15
REMARK                            x       y       z     vdW  Elec       q    Type
REMARK                         _______ _______ _______ _____ _____    ______ ____
ROOT
ATOM      1  N   UNL     1      47.178   6.933  13.987  0.00  0.00    +0.000 N 
ATOM      2  H   UNL     1      47.191   7.852  13.545  0.00  0.00    +0.000 HD
ENDROOT
BRANCH   1   3
ATOM      3  C   UNL     1      46.405   6.015  13.272  0.00  0.00    +0.000 A 
ATOM      4  C   UNL     1      46.020   6.156  11.946  0.00  0.00    +0.000 A 
ATOM      5  N   UNL     1      45.313   5.247  11.238  0.00  0.00    +0.000 NA
ATOM      6  C   UNL     1      45.012   4.108  11.901  0.00  0.00    +0.000 A 
ATOM      7  N   UNL     1      45.370   3.816  13.165  0.00  0.00    +0.000 NA
ATOM      8  C   UNL     1      46.075   4.775  13.804  0.00  0.00    +0.000 A 
BRANCH   6   9
ATOM      9  C   UNL     1      44.204   3.084  11.137  0.00  0.00    +0.000 C 
ATOM     10  N   UNL     1      44.878   2.435  10.125  0.00  0.00    +0.000 N 
ATOM     11  O   UNL     1      43.030   2.824  11.367  0.00  0.00    +0.000 OA
ATOM     12  H   UNL     1      45.854   2.647   9.953  0.00  0.00    +0.000 HD
ATOM     13  H   UNL     1      44.392   1.735   9.584  0.00  0.00    +0.000 HD
ENDBRANCH   6   9
ENDBRANCH   1   3
BRANCH   1  14
ATOM     14  C   UNL     1      48.514   6.517  14.408  0.00  0.00    +0.000 C 
BRANCH  14  18
ATOM     15  C   UNL     1      48.703   6.219  18.672  0.00  0.00    +0.000 A 
ATOM     16  C   UNL     1      48.408   5.075  17.927  0.00  0.00    +0.000 A 
ATOM     17  C   UNL     1      48.341   5.156  16.537  0.00  0.00    +0.000 A 
ATOM     18  C   UNL     1      48.566   6.377  15.902  0.00  0.00    +0.000 A 
ATOM     19  C   UNL     1      48.869   7.461  16.713  0.00  0.00    +0.000 A 
ATOM     20  N   UNL     1      48.939   7.408  18.062  0.00  0.00    +0.000 NA
BRANCH  15  22
ATOM     21  C   UNL     1      48.721   4.706  20.683  0.00  0.00    +0.000 C 
ATOM     22  C   UNL     1      48.775   6.169  20.202  0.00  0.00    +0.000 C 
ATOM     23  C   UNL     1      47.597   6.951  20.816  0.00  0.00    +0.000 C 
ATOM     24  C   UNL     1      50.084   6.802  20.727  0.00  0.00    +0.000 C 
ENDBRANCH  15  22
ENDBRANCH  14  18
ENDBRANCH   1  14
TORSDOF 5
ENDMDL
