MODEL 1
REMARK VINA RESULT:    -9.162      0.000      0.000
REMARK INTER + INTRA:         -13.226
REMARK INTER:                 -12.376
REMARK INTRA:                  -0.850
REMARK UNBOUND:                -0.850
REMARK  Name = 
REMARK  6 active torsions:
REMARK  status: ('A' for Active; 'I' for Inactive)
REMARK    1  A    between atoms: C_2  and  C_4
REMARK    2  A    between atoms: C_7  and  N_8
REMARK    3  A    between atoms: N_8  and  C_9
REMARK    4  A    between atoms: C_9  and  C_10
REMARK    5  A    between atoms: C_10  and  C_13
REMARK    6  A    between atoms: C_15  and  C_16
REMARK                            x       y       z     vdW  Elec       q    Type
REMARK                         _______ _______ _______ _____ _____    ______ ____
ROOT
ATOM      1  C   UNL     1      43.310   4.981  12.585  0.00  0.00    +0.000 C 
ATOM      2  F   UNL     1      42.597   6.115  12.311  0.00  0.00    +0.000 F 
ATOM      3  F   UNL     1      42.654   4.399  13.643  0.00  0.00    +0.000 F 
ENDROOT
BRANCH   1   4
ATOM      4  C   UNL     1      44.766   5.294  12.913  0.00  0.00    +0.000 A 
ATOM      5  C   UNL     1      45.328   6.496  12.478  0.00  0.00    +0.000 A 
ATOM      6  C   UNL     1      46.676   6.786  12.742  0.00  0.00    +0.000 A 
ATOM      7  C   UNL     1      47.407   5.817  13.442  0.00  0.00    +0.000 A 
ATOM      8  C   UNL     1      46.785   4.647  13.843  0.00  0.00    +0.000 A 
ATOM      9  N   UNL     1      45.492   4.368  13.597  0.00  0.00    +0.000 NA
BRANCH   6  10
ATOM     10  C   UNL     1      47.308   8.051  12.296  0.00  0.00    +0.000 A 
ATOM     11  C   UNL     1      48.649   8.096  11.885  0.00  0.00    +0.000 A 
ATOM     12  C   UNL     1      49.193   9.296  11.449  0.00  0.00    +0.000 A 
ATOM     13  N   UNL     1      48.511  10.456  11.404  0.00  0.00    +0.000 NA
ATOM     14  C   UNL     1      47.227  10.411  11.810  0.00  0.00    +0.000 A 
ATOM     15  C   UNL     1      46.594   9.258  12.251  0.00  0.00    +0.000 A 
ENDBRANCH   6  10
ENDBRANCH   1   4
BRANCH   1  16
ATOM     16  C   UNL     1      43.220   4.011  11.385  0.00  0.00    +0.000 C 
BRANCH  16  17
ATOM     17  N   UNL     1      43.710   4.582  10.117  0.00  0.00    +0.000 N 
ATOM     18  H   UNL     1      43.039   5.167   9.622  0.00  0.00    +0.000 HD
BRANCH  17  22
ATOM     19  C   UNL     1      46.442   2.477   7.692  0.00  0.00    +0.000 A 
ATOM     20  C   UNL     1      45.629   1.770   8.579  0.00  0.00    +0.000 A 
ATOM     21  C   UNL     1      44.706   2.456   9.377  0.00  0.00    +0.000 A 
ATOM     22  C   UNL     1      44.550   3.845   9.287  0.00  0.00    +0.000 A 
ATOM     23  C   UNL     1      45.394   4.538   8.408  0.00  0.00    +0.000 A 
ATOM     24  C   UNL     1      46.336   3.867   7.621  0.00  0.00    +0.000 A 
BRANCH  19  26
ATOM     25  N   UNL     1      48.544   2.519   6.467  0.00  0.00    +0.000 N 
ATOM     26  C   UNL     1      47.452   1.790   6.847  0.00  0.00    +0.000 C 
ATOM     27  O   UNL     1      47.339   0.610   6.534  0.00  0.00    +0.000 OA
ATOM     28  H   UNL     1      49.276   2.009   5.989  0.00  0.00    +0.000 HD
ATOM     29  H   UNL     1      48.792   3.390   6.913  0.00  0.00    +0.000 HD
ENDBRANCH  19  26
ENDBRANCH  17  22
ENDBRANCH  16  17
ENDBRANCH   1  16
TORSDOF 6
ENDMDL
MODEL 2
REMARK VINA RESULT:    -8.722      1.501      2.111
REMARK INTER + INTRA:         -12.631
REMARK INTER:                 -11.383
REMARK INTRA:                  -1.247
REMARK UNBOUND:                -0.850
REMARK  Name = 
REMARK  6 active torsions:
REMARK  status: ('A' for Active; 'I' for Inactive)
REMARK    1  A    between atoms: C_2  and  C_4
REMARK    2  A    between atoms: C_7  and  N_8
REMARK    3  A    between atoms: N_8  and  C_9
REMARK    4  A    between atoms: C_9  and  C_10
REMARK    5  A    between atoms: C_10  and  C_13
REMARK    6  A    between atoms: C_15  and  C_16
REMARK                            x       y       z     vdW  Elec       q    Type
REMARK                         _______ _______ _______ _____ _____    ______ ____
ROOT
ATOM      1  C   UNL     1      44.475   4.583  12.411  0.00  0.00    +0.000 C 
ATOM      2  F   UNL     1      43.963   4.430  13.669  0.00  0.00    +0.000 F 
ATOM      3  F   UNL     1      45.417   3.591  12.290  0.00  0.00    +0.000 F 
ENDROOT
BRANCH   1   4
ATOM      4  C   UNL     1      45.071   5.972  12.208  0.00  0.00    +0.000 A 
ATOM      5  C   UNL     1      46.433   6.178  12.441  0.00  0.00    +0.000 A 
ATOM      6  C   UNL     1      46.993   7.457  12.291  0.00  0.00    +0.000 A 
ATOM      7  C   UNL     1      46.123   8.488  11.911  0.00  0.00    +0.000 A 
ATOM      8  C   UNL     1      44.785   8.211  11.696  0.00  0.00    +0.000 A 
ATOM      9  N   UNL     1      44.246   6.986  11.834  0.00  0.00    +0.000 NA
BRANCH   6  10
ATOM     10  C   UNL     1      48.433   7.715  12.530  0.00  0.00    +0.000 A 
ATOM     11  C   UNL     1      49.329   7.912  11.469  0.00  0.00    +0.000 A 
ATOM     12  C   UNL     1      50.664   8.177  11.739  0.00  0.00    +0.000 A 
ATOM     13  N   UNL     1      51.178   8.247  12.981  0.00  0.00    +0.000 NA
ATOM     14  C   UNL     1      50.317   8.046  13.997  0.00  0.00    +0.000 A 
ATOM     15  C   UNL     1      48.965   7.786  13.826  0.00  0.00    +0.000 A 
ENDBRANCH   6  10
ENDBRANCH   1   4
BRANCH   1  16
ATOM     16  C   UNL     1      43.368   4.310  11.366  0.00  0.00    +0.000 C 
BRANCH  16  17
ATOM     17  N   UNL     1      43.720   4.734   9.998  0.00  0.00    +0.000 N 
ATOM     18  H   UNL     1      42.972   5.202   9.489  0.00  0.00    +0.000 HD
BRANCH  17  22
ATOM     19  C   UNL     1      46.423   2.461   7.695  0.00  0.00    +0.000 A 
ATOM     20  C   UNL     1      45.510   1.806   8.525  0.00  0.00    +0.000 A 
ATOM     21  C   UNL     1      44.597   2.549   9.281  0.00  0.00    +0.000 A 
ATOM     22  C   UNL     1      44.549   3.947   9.204  0.00  0.00    +0.000 A 
ATOM     23  C   UNL     1      45.490   4.586   8.386  0.00  0.00    +0.000 A 
ATOM     24  C   UNL     1      46.423   3.855   7.641  0.00  0.00    +0.000 A 
BRANCH  19  26
ATOM     25  N   UNL     1      48.526   2.402   6.475  0.00  0.00    +0.000 N 
ATOM     26  C   UNL     1      47.425   1.710   6.898  0.00  0.00    +0.000 C 
ATOM     27  O   UNL     1      47.299   0.515   6.659  0.00  0.00    +0.000 OA
ATOM     28  H   UNL     1      49.253   1.854   6.031  0.00  0.00    +0.000 HD
ATOM     29  H   UNL     1      48.784   3.296   6.866  0.00  0.00    +0.000 HD
ENDBRANCH  19  26
ENDBRANCH  17  22
ENDBRANCH  16  17
ENDBRANCH   1  16
TORSDOF 6
ENDMDL
MODEL 3
REMARK VINA RESULT:    -8.385      1.861      3.574
REMARK INTER + INTRA:         -12.176
REMARK INTER:                 -11.597
REMARK INTRA:                  -0.579
REMARK UNBOUND:                -0.850
REMARK  Name = 
REMARK  6 active torsions:
REMARK  status: ('A' for Active; 'I' for Inactive)
REMARK    1  A    between atoms: C_2  and  C_4
REMARK    2  A    between atoms: C_7  and  N_8
REMARK    3  A    between atoms: N_8  and  C_9
REMARK    4  A    between atoms: C_9  and  C_10
REMARK    5  A    between atoms: C_10  and  C_13
REMARK    6  A    between atoms: C_15  and  C_16
REMARK                            x       y       z     vdW  Elec       q    Type
REMARK                         _______ _______ _______ _____ _____    ______ ____
ROOT
ATOM      1  C   UNL     1      43.458   4.592  12.329  0.00  0.00    +0.000 C 
ATOM      2  F   UNL     1      42.407   5.028  13.087  0.00  0.00    +0.000 F 
ATOM      3  F   UNL     1      43.486   3.231  12.514  0.00  0.00    +0.000 F 
ENDROOT
BRANCH   1   4
ATOM      4  C   UNL     1      44.768   5.256  12.743  0.00  0.00    +0.000 A 
ATOM      5  C   UNL     1      45.541   4.684  13.756  0.00  0.00    +0.000 A 
ATOM      6  C   UNL     1      46.732   5.299  14.172  0.00  0.00    +0.000 A 
ATOM      7  C   UNL     1      47.084   6.495  13.532  0.00  0.00    +0.000 A 
ATOM      8  C   UNL     1      46.271   7.005  12.535  0.00  0.00    +0.000 A 
ATOM      9  N   UNL     1      45.131   6.415  12.130  0.00  0.00    +0.000 NA
BRANCH   6  10
ATOM     10  C   UNL     1      47.579   4.723  15.244  0.00  0.00    +0.000 A 
ATOM     11  C   UNL     1      47.563   3.350  15.533  0.00  0.00    +0.000 A 
ATOM     12  C   UNL     1      48.391   2.849  16.528  0.00  0.00    +0.000 A 
ATOM     13  N   UNL     1      49.221   3.609  17.265  0.00  0.00    +0.000 NA
ATOM     14  C   UNL     1      49.226   4.928  16.992  0.00  0.00    +0.000 A 
ATOM     15  C   UNL     1      48.443   5.519  16.011  0.00  0.00    +0.000 A 
ENDBRANCH   6  10
ENDBRANCH   1   4
BRANCH   1  16
ATOM     16  C   UNL     1      43.164   4.857  10.835  0.00  0.00    +0.000 C 
BRANCH  16  17
ATOM     17  N   UNL     1      44.360   5.193  10.041  0.00  0.00    +0.000 N 
ATOM     18  H   UNL     1      44.356   6.126   9.632  0.00  0.00    +0.000 HD
BRANCH  17  22
ATOM     19  C   UNL     1      46.459   2.357   7.732  0.00  0.00    +0.000 A 
ATOM     20  C   UNL     1      45.563   1.917   8.708  0.00  0.00    +0.000 A 
ATOM     21  C   UNL     1      44.847   2.849   9.469  0.00  0.00    +0.000 A 
ATOM     22  C   UNL     1      44.982   4.227   9.255  0.00  0.00    +0.000 A 
ATOM     23  C   UNL     1      45.906   4.648   8.289  0.00  0.00    +0.000 A 
ATOM     24  C   UNL     1      46.644   3.727   7.536  0.00  0.00    +0.000 A 
BRANCH  19  26
ATOM     25  N   UNL     1      48.295   1.917   6.198  0.00  0.00    +0.000 N 
ATOM     26  C   UNL     1      47.257   1.402   6.923  0.00  0.00    +0.000 C 
ATOM     27  O   UNL     1      47.026   0.198   6.930  0.00  0.00    +0.000 OA
ATOM     28  H   UNL     1      48.898   1.244   5.742  0.00  0.00    +0.000 HD
ATOM     29  H   UNL     1      48.666   2.840   6.370  0.00  0.00    +0.000 HD
ENDBRANCH  19  26
ENDBRANCH  17  22
ENDBRANCH  16  17
ENDBRANCH   1  16
TORSDOF 6
ENDMDL
MODEL 4
REMARK VINA RESULT:    -8.119      2.132      2.601
REMARK INTER + INTRA:         -11.816
REMARK INTER:                 -11.007
REMARK INTRA:                  -0.809
REMARK UNBOUND:                -0.850
REMARK  Name = 
REMARK  6 active torsions:
REMARK  status: ('A' for Active; 'I' for Inactive)
REMARK    1  A    between atoms: C_2  and  C_4
REMARK    2  A    between atoms: C_7  and  N_8
REMARK    3  A    between atoms: N_8  and  C_9
REMARK    4  A    between atoms: C_9  and  C_10
REMARK    5  A    between atoms: C_10  and  C_13
REMARK    6  A    between atoms: C_15  and  C_16
REMARK                            x       y       z     vdW  Elec       q    Type
REMARK                         _______ _______ _______ _____ _____    ______ ____
ROOT
ATOM      1  C   UNL     1      44.994   6.382  11.469  0.00  0.00    +0.000 C 
ATOM      2  F   UNL     1      45.728   6.647  10.347  0.00  0.00    +0.000 F 
ATOM      3  F   UNL     1      44.327   7.552  11.739  0.00  0.00    +0.000 F 
ENDROOT
BRANCH   1   4
ATOM      4  C   UNL     1      45.877   5.941  12.632  0.00  0.00    +0.000 A 
ATOM      5  C   UNL     1      47.027   6.673  12.940  0.00  0.00    +0.000 A 
ATOM      6  C   UNL     1      47.869   6.264  13.986  0.00  0.00    +0.000 A 
ATOM      7  C   UNL     1      47.501   5.102  14.678  0.00  0.00    +0.000 A 
ATOM      8  C   UNL     1      46.347   4.427  14.319  0.00  0.00    +0.000 A 
ATOM      9  N   UNL     1      45.535   4.819  13.320  0.00  0.00    +0.000 NA
BRANCH   6  10
ATOM     10  C   UNL     1      49.098   7.013  14.343  0.00  0.00    +0.000 A 
ATOM     11  C   UNL     1      49.698   6.880  15.604  0.00  0.00    +0.000 A 
ATOM     12  C   UNL     1      50.862   7.581  15.886  0.00  0.00    +0.000 A 
ATOM     13  N   UNL     1      51.466   8.412  15.017  0.00  0.00    +0.000 NA
ATOM     14  C   UNL     1      50.881   8.546  13.811  0.00  0.00    +0.000 A 
ATOM     15  C   UNL     1      49.724   7.880  13.435  0.00  0.00    +0.000 A 
ENDBRANCH   6  10
ENDBRANCH   1   4
BRANCH   1  16
ATOM     16  C   UNL     1      43.936   5.299  11.151  0.00  0.00    +0.000 C 
BRANCH  16  17
ATOM     17  N   UNL     1      43.791   5.011   9.713  0.00  0.00    +0.000 N 
ATOM     18  H   UNL     1      42.847   5.126   9.346  0.00  0.00    +0.000 HD
BRANCH  17  22
ATOM     19  C   UNL     1      46.187   2.001   7.988  0.00  0.00    +0.000 A 
ATOM     20  C   UNL     1      45.255   1.657   8.969  0.00  0.00    +0.000 A 
ATOM     21  C   UNL     1      44.442   2.644   9.537  0.00  0.00    +0.000 A 
ATOM     22  C   UNL     1      44.514   3.980   9.121  0.00  0.00    +0.000 A 
ATOM     23  C   UNL     1      45.473   4.309   8.153  0.00  0.00    +0.000 A 
ATOM     24  C   UNL     1      46.307   3.335   7.593  0.00  0.00    +0.000 A 
BRANCH  19  26
ATOM     25  N   UNL     1      46.768  -0.326   7.583  0.00  0.00    +0.000 N 
ATOM     26  C   UNL     1      47.086   0.988   7.380  0.00  0.00    +0.000 C 
ATOM     27  O   UNL     1      48.049   1.307   6.693  0.00  0.00    +0.000 OA
ATOM     28  H   UNL     1      47.321  -1.002   7.071  0.00  0.00    +0.000 HD
ATOM     29  H   UNL     1      45.859  -0.616   7.913  0.00  0.00    +0.000 HD
ENDBRANCH  19  26
ENDBRANCH  17  22
ENDBRANCH  16  17
ENDBRANCH   1  16
TORSDOF 6
ENDMDL
MODEL 5
REMARK VINA RESULT:    -7.760      2.401      4.155
REMARK INTER + INTRA:         -11.331
REMARK INTER:                 -10.684
REMARK INTRA:                  -0.647
REMARK UNBOUND:                -0.850
REMARK  Name = 
REMARK  6 active torsions:
REMARK  status: ('A' for Active; 'I' for Inactive)
REMARK    1  A    between atoms: C_2  and  C_4
REMARK    2  A    between atoms: C_7  and  N_8
REMARK    3  A    between atoms: N_8  and  C_9
REMARK    4  A    between atoms: C_9  and  C_10
REMARK    5  A    between atoms: C_10  and  C_13
REMARK    6  A    between atoms: C_15  and  C_16
REMARK                            x       y       z     vdW  Elec       q    Type
REMARK                         _______ _______ _______ _____ _____    ______ ____
ROOT
ATOM      1  C   UNL     1      45.311   6.085  12.055  0.00  0.00    +0.000 C 
ATOM      2  F   UNL     1      45.471   6.666  10.828  0.00  0.00    +0.000 F 
ATOM      3  F   UNL     1      44.181   6.667  12.576  0.00  0.00    +0.000 F 
ENDROOT
BRANCH   1   4
ATOM      4  C   UNL     1      46.532   6.297  12.945  0.00  0.00    +0.000 A 
ATOM      5  C   UNL     1      46.706   5.498  14.077  0.00  0.00    +0.000 A 
ATOM      6  C   UNL     1      47.806   5.702  14.926  0.00  0.00    +0.000 A 
ATOM      7  C   UNL     1      48.689   6.734  14.582  0.00  0.00    +0.000 A 
ATOM      8  C   UNL     1      48.455   7.486  13.444  0.00  0.00    +0.000 A 
ATOM      9  N   UNL     1      47.405   7.291  12.626  0.00  0.00    +0.000 NA
BRANCH   6  10
ATOM     10  C   UNL     1      48.025   4.875  16.138  0.00  0.00    +0.000 A 
ATOM     11  C   UNL     1      48.864   5.305  17.177  0.00  0.00    +0.000 A 
ATOM     12  C   UNL     1      49.019   4.512  18.305  0.00  0.00    +0.000 A 
ATOM     13  N   UNL     1      48.417   3.319  18.472  0.00  0.00    +0.000 NA
ATOM     14  C   UNL     1      47.621   2.905  17.467  0.00  0.00    +0.000 A 
ATOM     15  C   UNL     1      47.396   3.633  16.308  0.00  0.00    +0.000 A 
ENDBRANCH   6  10
ENDBRANCH   1   4
BRANCH   1  16
ATOM     16  C   UNL     1      45.025   4.576  11.879  0.00  0.00    +0.000 C 
BRANCH  16  17
ATOM     17  N   UNL     1      44.300   4.246  10.638  0.00  0.00    +0.000 N 
ATOM     18  H   UNL     1      43.357   3.884  10.775  0.00  0.00    +0.000 HD
BRANCH  17  22
ATOM     19  C   UNL     1      46.537   2.700   7.416  0.00  0.00    +0.000 A 
ATOM     20  C   UNL     1      45.935   1.819   8.316  0.00  0.00    +0.000 A 
ATOM     21  C   UNL     1      45.175   2.319   9.380  0.00  0.00    +0.000 A 
ATOM     22  C   UNL     1      44.973   3.695   9.551  0.00  0.00    +0.000 A 
ATOM     23  C   UNL     1      45.607   4.563   8.651  0.00  0.00    +0.000 A 
ATOM     24  C   UNL     1      46.387   4.076   7.596  0.00  0.00    +0.000 A 
BRANCH  19  26
ATOM     25  N   UNL     1      47.442   3.002   5.178  0.00  0.00    +0.000 N 
ATOM     26  C   UNL     1      47.372   2.210   6.290  0.00  0.00    +0.000 C 
ATOM     27  O   UNL     1      48.006   1.163   6.363  0.00  0.00    +0.000 OA
ATOM     28  H   UNL     1      48.101   2.713   4.466  0.00  0.00    +0.000 HD
ATOM     29  H   UNL     1      47.152   3.969   5.186  0.00  0.00    +0.000 HD
ENDBRANCH  19  26
ENDBRANCH  17  22
ENDBRANCH  16  17
ENDBRANCH   1  16
TORSDOF 6
ENDMDL
MODEL 6
REMARK VINA RESULT:    -7.648      2.702      6.729
REMARK INTER + INTRA:         -11.181
REMARK INTER:                 -10.413
REMARK INTRA:                  -0.768
REMARK UNBOUND:                -0.850
REMARK  Name = 
REMARK  6 active torsions:
REMARK  status: ('A' for Active; 'I' for Inactive)
REMARK    1  A    between atoms: C_2  and  C_4
REMARK    2  A    between atoms: C_7  and  N_8
REMARK    3  A    between atoms: N_8  and  C_9
REMARK    4  A    between atoms: C_9  and  C_10
REMARK    5  A    between atoms: C_10  and  C_13
REMARK    6  A    between atoms: C_15  and  C_16
REMARK                            x       y       z     vdW  Elec       q    Type
REMARK                         _______ _______ _______ _____ _____    ______ ____
ROOT
ATOM      1  C   UNL     1      44.414   6.421  11.416  0.00  0.00    +0.000 C 
ATOM      2  F   UNL     1      43.192   7.031  11.354  0.00  0.00    +0.000 F 
ATOM      3  F   UNL     1      45.222   7.165  10.590  0.00  0.00    +0.000 F 
ENDROOT
BRANCH   1   4
ATOM      4  C   UNL     1      44.340   4.960  10.986  0.00  0.00    +0.000 A 
ATOM      5  C   UNL     1      45.085   4.527   9.886  0.00  0.00    +0.000 A 
ATOM      6  C   UNL     1      45.004   3.193   9.456  0.00  0.00    +0.000 A 
ATOM      7  C   UNL     1      44.146   2.347  10.173  0.00  0.00    +0.000 A 
ATOM      8  C   UNL     1      43.439   2.845  11.253  0.00  0.00    +0.000 A 
ATOM      9  N   UNL     1      43.518   4.121  11.671  0.00  0.00    +0.000 NA
BRANCH   6  10
ATOM     10  C   UNL     1      45.778   2.696   8.293  0.00  0.00    +0.000 A 
ATOM     11  C   UNL     1      46.071   3.526   7.199  0.00  0.00    +0.000 A 
ATOM     12  C   UNL     1      46.821   3.028   6.143  0.00  0.00    +0.000 A 
ATOM     13  N   UNL     1      47.288   1.767   6.084  0.00  0.00    +0.000 NA
ATOM     14  C   UNL     1      46.996   0.971   7.131  0.00  0.00    +0.000 A 
ATOM     15  C   UNL     1      46.263   1.382   8.234  0.00  0.00    +0.000 A 
ENDBRANCH   6  10
ENDBRANCH   1   4
BRANCH   1  16
ATOM     16  C   UNL     1      44.977   6.536  12.852  0.00  0.00    +0.000 C 
BRANCH  16  17
ATOM     17  N   UNL     1      45.655   7.817  13.127  0.00  0.00    +0.000 N 
ATOM     18  H   UNL     1      45.061   8.641  13.052  0.00  0.00    +0.000 HD
BRANCH  17  22
ATOM     19  C   UNL     1      49.617   8.252  11.751  0.00  0.00    +0.000 A 
ATOM     20  C   UNL     1      48.744   9.339  11.680  0.00  0.00    +0.000 A 
ATOM     21  C   UNL     1      47.432   9.213  12.150  0.00  0.00    +0.000 A 
ATOM     22  C   UNL     1      46.972   8.021  12.725  0.00  0.00    +0.000 A 
ATOM     23  C   UNL     1      47.856   6.934  12.763  0.00  0.00    +0.000 A 
ATOM     24  C   UNL     1      49.164   7.041  12.277  0.00  0.00    +0.000 A 
BRANCH  19  26
ATOM     25  N   UNL     1      51.645   7.158  10.971  0.00  0.00    +0.000 N 
ATOM     26  C   UNL     1      51.008   8.337  11.239  0.00  0.00    +0.000 C 
ATOM     27  O   UNL     1      51.554   9.414  11.027  0.00  0.00    +0.000 OA
ATOM     28  H   UNL     1      52.547   7.232  10.518  0.00  0.00    +0.000 HD
ATOM     29  H   UNL     1      51.147   6.284  10.887  0.00  0.00    +0.000 HD
ENDBRANCH  19  26
ENDBRANCH  17  22
ENDBRANCH  16  17
ENDBRANCH   1  16
TORSDOF 6
ENDMDL
MODEL 7
REMARK VINA RESULT:    -7.512      3.264      7.356
REMARK INTER + INTRA:         -10.997
REMARK INTER:                 -10.247
REMARK INTRA:                  -0.750
REMARK UNBOUND:                -0.850
REMARK  Name = 
REMARK  6 active torsions:
REMARK  status: ('A' for Active; 'I' for Inactive)
REMARK    1  A    between atoms: C_2  and  C_4
REMARK    2  A    between atoms: C_7  and  N_8
REMARK    3  A    between atoms: N_8  and  C_9
REMARK    4  A    between atoms: C_9  and  C_10
REMARK    5  A    between atoms: C_10  and  C_13
REMARK    6  A    between atoms: C_15  and  C_16
REMARK                            x       y       z     vdW  Elec       q    Type
REMARK                         _______ _______ _______ _____ _____    ______ ____
ROOT
ATOM      1  C   UNL     1      44.659   6.621  11.374  0.00  0.00    +0.000 C 
ATOM      2  F   UNL     1      43.457   7.271  11.347  0.00  0.00    +0.000 F 
ATOM      3  F   UNL     1      45.457   7.319  10.501  0.00  0.00    +0.000 F 
ENDROOT
BRANCH   1   4
ATOM      4  C   UNL     1      44.517   5.154  10.979  0.00  0.00    +0.000 A 
ATOM      5  C   UNL     1      45.227   4.665   9.880  0.00  0.00    +0.000 A 
ATOM      6  C   UNL     1      45.084   3.326   9.482  0.00  0.00    +0.000 A 
ATOM      7  C   UNL     1      44.202   2.535  10.229  0.00  0.00    +0.000 A 
ATOM      8  C   UNL     1      43.531   3.086  11.307  0.00  0.00    +0.000 A 
ATOM      9  N   UNL     1      43.670   4.367  11.694  0.00  0.00    +0.000 NA
BRANCH   6  10
ATOM     10  C   UNL     1      45.820   2.771   8.321  0.00  0.00    +0.000 A 
ATOM     11  C   UNL     1      46.139   3.564   7.208  0.00  0.00    +0.000 A 
ATOM     12  C   UNL     1      46.852   3.011   6.154  0.00  0.00    +0.000 A 
ATOM     13  N   UNL     1      47.259   1.728   6.115  0.00  0.00    +0.000 NA
ATOM     14  C   UNL     1      46.941   0.967   7.181  0.00  0.00    +0.000 A 
ATOM     15  C   UNL     1      46.241   1.434   8.284  0.00  0.00    +0.000 A 
ENDBRANCH   6  10
ENDBRANCH   1   4
BRANCH   1  16
ATOM     16  C   UNL     1      45.282   6.745  12.783  0.00  0.00    +0.000 C 
BRANCH  16  17
ATOM     17  N   UNL     1      46.655   6.216  12.877  0.00  0.00    +0.000 N 
ATOM     18  H   UNL     1      46.964   5.677  12.069  0.00  0.00    +0.000 HD
BRANCH  17  22
ATOM     19  C   UNL     1      48.253   4.640  16.447  0.00  0.00    +0.000 A 
ATOM     20  C   UNL     1      48.689   5.886  15.993  0.00  0.00    +0.000 A 
ATOM     21  C   UNL     1      48.154   6.428  14.819  0.00  0.00    +0.000 A 
ATOM     22  C   UNL     1      47.157   5.762  14.094  0.00  0.00    +0.000 A 
ATOM     23  C   UNL     1      46.751   4.501  14.553  0.00  0.00    +0.000 A 
ATOM     24  C   UNL     1      47.294   3.939  15.713  0.00  0.00    +0.000 A 
BRANCH  19  26
ATOM     25  N   UNL     1      47.928   3.656  18.648  0.00  0.00    +0.000 N 
ATOM     26  C   UNL     1      48.815   4.019  17.673  0.00  0.00    +0.000 C 
ATOM     27  O   UNL     1      50.015   3.801  17.796  0.00  0.00    +0.000 OA
ATOM     28  H   UNL     1      48.311   3.134  19.426  0.00  0.00    +0.000 HD
ATOM     29  H   UNL     1      46.937   3.582  18.474  0.00  0.00    +0.000 HD
ENDBRANCH  19  26
ENDBRANCH  17  22
ENDBRANCH  16  17
ENDBRANCH   1  16
TORSDOF 6
ENDMDL
MODEL 8
REMARK VINA RESULT:    -7.194      1.973      2.498
REMARK INTER + INTRA:         -10.567
REMARK INTER:                  -9.761
REMARK INTRA:                  -0.806
REMARK UNBOUND:                -0.850
REMARK  Name = 
REMARK  6 active torsions:
REMARK  status: ('A' for Active; 'I' for Inactive)
REMARK    1  A    between atoms: C_2  and  C_4
REMARK    2  A    between atoms: C_7  and  N_8
REMARK    3  A    between atoms: N_8  and  C_9
REMARK    4  A    between atoms: C_9  and  C_10
REMARK    5  A    between atoms: C_10  and  C_13
REMARK    6  A    between atoms: C_15  and  C_16
REMARK                            x       y       z     vdW  Elec       q    Type
REMARK                         _______ _______ _______ _____ _____    ______ ____
ROOT
ATOM      1  C   UNL     1      44.870   4.129  12.349  0.00  0.00    +0.000 C 
ATOM      2  F   UNL     1      44.312   3.682  13.514  0.00  0.00    +0.000 F 
ATOM      3  F   UNL     1      45.747   3.140  11.975  0.00  0.00    +0.000 F 
ENDROOT
BRANCH   1   4
ATOM      4  C   UNL     1      45.564   5.474  12.534  0.00  0.00    +0.000 A 
ATOM      5  C   UNL     1      44.967   6.633  12.031  0.00  0.00    +0.000 A 
ATOM      6  C   UNL     1      45.608   7.875  12.164  0.00  0.00    +0.000 A 
ATOM      7  C   UNL     1      46.853   7.880  12.806  0.00  0.00    +0.000 A 
ATOM      8  C   UNL     1      47.384   6.694  13.281  0.00  0.00    +0.000 A 
ATOM      9  N   UNL     1      46.771   5.502  13.160  0.00  0.00    +0.000 NA
BRANCH   6  10
ATOM     10  C   UNL     1      45.007   9.126  11.642  0.00  0.00    +0.000 A 
ATOM     11  C   UNL     1      43.782   9.121  10.957  0.00  0.00    +0.000 A 
ATOM     12  C   UNL     1      43.242  10.318  10.508  0.00  0.00    +0.000 A 
ATOM     13  N   UNL     1      43.833  11.516  10.676  0.00  0.00    +0.000 NA
ATOM     14  C   UNL     1      45.014  11.516  11.324  0.00  0.00    +0.000 A 
ATOM     15  C   UNL     1      45.625  10.372  11.817  0.00  0.00    +0.000 A 
ENDBRANCH   6  10
ENDBRANCH   1   4
BRANCH   1  16
ATOM     16  C   UNL     1      43.779   4.227  11.257  0.00  0.00    +0.000 C 
BRANCH  16  17
ATOM     17  N   UNL     1      43.679   3.029  10.403  0.00  0.00    +0.000 N 
ATOM     18  H   UNL     1      43.445   2.169  10.897  0.00  0.00    +0.000 HD
BRANCH  17  22
ATOM     19  C   UNL     1      46.435   2.671   7.233  0.00  0.00    +0.000 A 
ATOM     20  C   UNL     1      46.134   1.550   8.008  0.00  0.00    +0.000 A 
ATOM     21  C   UNL     1      45.207   1.651   9.052  0.00  0.00    +0.000 A 
ATOM     22  C   UNL     1      44.542   2.854   9.325  0.00  0.00    +0.000 A 
ATOM     23  C   UNL     1      44.877   3.973   8.552  0.00  0.00    +0.000 A 
ATOM     24  C   UNL     1      45.818   3.890   7.519  0.00  0.00    +0.000 A 
BRANCH  19  26
ATOM     25  N   UNL     1      48.667   2.115   6.442  0.00  0.00    +0.000 N 
ATOM     26  C   UNL     1      47.431   2.611   6.134  0.00  0.00    +0.000 C 
ATOM     27  O   UNL     1      47.154   2.952   4.990  0.00  0.00    +0.000 OA
ATOM     28  H   UNL     1      49.298   1.974   5.663  0.00  0.00    +0.000 HD
ATOM     29  H   UNL     1      48.843   1.594   7.289  0.00  0.00    +0.000 HD
ENDBRANCH  19  26
ENDBRANCH  17  22
ENDBRANCH  16  17
ENDBRANCH   1  16
TORSDOF 6
ENDMDL
MODEL 9
REMARK VINA RESULT:    -6.835      3.865      7.621
REMARK INTER + INTRA:         -10.082
REMARK INTER:                  -8.881
REMARK INTRA:                  -1.201
REMARK UNBOUND:                -0.850
REMARK  Name = 
REMARK  6 active torsions:
REMARK  status: ('A' for Active; 'I' for Inactive)
REMARK    1  A    between atoms: C_2  and  C_4
REMARK    2  A    between atoms: C_7  and  N_8
REMARK    3  A    between atoms: N_8  and  C_9
REMARK    4  A    between atoms: C_9  and  C_10
REMARK    5  A    between atoms: C_10  and  C_13
REMARK    6  A    between atoms: C_15  and  C_16
REMARK                            x       y       z     vdW  Elec       q    Type
REMARK                         _______ _______ _______ _____ _____    ______ ____
ROOT
ATOM      1  C   UNL     1      49.204   8.000  11.926  0.00  0.00    +0.000 C 
ATOM      2  F   UNL     1      49.609   9.252  11.555  0.00  0.00    +0.000 F 
ATOM      3  F   UNL     1      49.690   7.167  10.948  0.00  0.00    +0.000 F 
ENDROOT
BRANCH   1   4
ATOM      4  C   UNL     1      47.686   7.912  12.056  0.00  0.00    +0.000 A 
ATOM      5  C   UNL     1      47.038   6.711  11.758  0.00  0.00    +0.000 A 
ATOM      6  C   UNL     1      45.639   6.622  11.840  0.00  0.00    +0.000 A 
ATOM      7  C   UNL     1      44.951   7.782  12.220  0.00  0.00    +0.000 A 
ATOM      8  C   UNL     1      45.659   8.937  12.501  0.00  0.00    +0.000 A 
ATOM      9  N   UNL     1      47.000   9.026  12.428  0.00  0.00    +0.000 NA
BRANCH   6  10
ATOM     10  C   UNL     1      44.915   5.365  11.530  0.00  0.00    +0.000 A 
ATOM     11  C   UNL     1      44.180   4.683  12.511  0.00  0.00    +0.000 A 
ATOM     12  C   UNL     1      43.495   3.524  12.172  0.00  0.00    +0.000 A 
ATOM     13  N   UNL     1      43.497   2.986  10.938  0.00  0.00    +0.000 NA
ATOM     14  C   UNL     1      44.213   3.638  10.002  0.00  0.00    +0.000 A 
ATOM     15  C   UNL     1      44.921   4.807  10.244  0.00  0.00    +0.000 A 
ENDBRANCH   6  10
ENDBRANCH   1   4
BRANCH   1  16
ATOM     16  C   UNL     1      49.885   7.610  13.258  0.00  0.00    +0.000 C 
BRANCH  16  17
ATOM     17  N   UNL     1      49.072   7.901  14.453  0.00  0.00    +0.000 N 
ATOM     18  H   UNL     1      49.283   8.786  14.911  0.00  0.00    +0.000 HD
BRANCH  17  22
ATOM     19  C   UNL     1      48.035   4.647  16.925  0.00  0.00    +0.000 A 
ATOM     20  C   UNL     1      48.923   5.613  17.401  0.00  0.00    +0.000 A 
ATOM     21  C   UNL     1      49.262   6.707  16.597  0.00  0.00    +0.000 A 
ATOM     22  C   UNL     1      48.703   6.880  15.324  0.00  0.00    +0.000 A 
ATOM     23  C   UNL     1      47.834   5.886  14.855  0.00  0.00    +0.000 A 
ATOM     24  C   UNL     1      47.504   4.775  15.641  0.00  0.00    +0.000 A 
BRANCH  19  26
ATOM     25  N   UNL     1      48.476   3.164  18.803  0.00  0.00    +0.000 N 
ATOM     26  C   UNL     1      47.672   3.458  17.737  0.00  0.00    +0.000 C 
ATOM     27  O   UNL     1      46.675   2.788  17.493  0.00  0.00    +0.000 OA
ATOM     28  H   UNL     1      48.154   2.422  19.412  0.00  0.00    +0.000 HD
ATOM     29  H   UNL     1      49.136   3.828  19.179  0.00  0.00    +0.000 HD
ENDBRANCH  19  26
ENDBRANCH  17  22
ENDBRANCH  16  17
ENDBRANCH   1  16
TORSDOF 6
ENDMDL
