MODEL 1
REMARK VINA RESULT:    -9.108      0.000      0.000
REMARK INTER + INTRA:         -12.413
REMARK INTER:                 -11.770
REMARK INTRA:                  -0.643
REMARK UNBOUND:                -0.643
REMARK  Name = 
REMARK  7 active torsions:
REMARK  status: ('A' for Active; 'I' for Inactive)
REMARK    1  A    between atoms: C_1  and  C_2
REMARK    2  A    between atoms: C_6  and  C_7
REMARK    3  A    between atoms: C_11  and  C_12
REMARK    4  A    between atoms: C_12  and  O_13
REMARK    5  A    between atoms: O_13  and  C_14
REMARK    6  A    between atoms: C_17  and  C_18
REMARK    7  A    between atoms: C_21  and  C_22
REMARK                            x       y       z     vdW  Elec       q    Type
REMARK                         _______ _______ _______ _____ _____    ______ ____
ROOT
ATOM      1  C   UNL     1      43.513   4.297  11.058  0.00  0.00    +0.000 C 
ENDROOT
BRANCH   1   6
ATOM      2  C   UNL     1      46.508   6.343  12.319  0.00  0.00    +0.000 A 
ATOM      3  C   UNL     1      47.023   5.445  13.271  0.00  0.00    +0.000 A 
ATOM      4  C   UNL     1      46.440   4.196  13.490  0.00  0.00    +0.000 A 
ATOM      5  C   UNL     1      45.314   3.815  12.763  0.00  0.00    +0.000 A 
ATOM      6  C   UNL     1      44.762   4.683  11.816  0.00  0.00    +0.000 A 
ATOM      7  C   UNL     1      45.380   5.925  11.584  0.00  0.00    +0.000 A 
BRANCH   2  13
ATOM      8  C   UNL     1      50.456   9.330  11.327  0.00  0.00    +0.000 C 
ATOM      9  C   UNL     1      49.009   9.140  11.647  0.00  0.00    +0.000 A 
ATOM     10  C   UNL     1      48.145  10.220  11.769  0.00  0.00    +0.000 A 
ATOM     11  N   UNL     1      46.832  10.107  12.048  0.00  0.00    +0.000 NA
ATOM     12  C   UNL     1      46.356   8.849  12.210  0.00  0.00    +0.000 A 
ATOM     13  C   UNL     1      47.114   7.677  12.122  0.00  0.00    +0.000 A 
ATOM     14  C   UNL     1      48.473   7.858  11.826  0.00  0.00    +0.000 A 
ENDBRANCH   2  13
ENDBRANCH   1   6
BRANCH   1  15
ATOM     15  O   UNL     1      43.745   3.062  10.388  0.00  0.00    +0.000 OA
BRANCH  15  16
ATOM     16  C   UNL     1      44.634   3.070   9.351  0.00  0.00    +0.000 A 
ATOM     17  C   UNL     1      45.078   4.184   8.645  0.00  0.00    +0.000 A 
ATOM     18  C   UNL     1      45.989   4.022   7.595  0.00  0.00    +0.000 A 
ATOM     19  C   UNL     1      46.494   2.758   7.243  0.00  0.00    +0.000 A 
ATOM     20  C   UNL     1      46.109   1.638   8.004  0.00  0.00    +0.000 A 
ATOM     21  C   UNL     1      46.687   0.260   7.846  0.00  0.00    +0.000 C 
ATOM     22  C   UNL     1      45.140   1.811   9.013  0.00  0.00    +0.000 A 
BRANCH  19  23
ATOM     23  C   UNL     1      47.446   2.737   6.093  0.00  0.00    +0.000 C 
ATOM     24  N   UNL     1      48.760   2.448   6.336  0.00  0.00    +0.000 N 
ATOM     25  O   UNL     1      47.059   2.905   4.939  0.00  0.00    +0.000 OA
ATOM     26  H   UNL     1      49.087   2.091   7.222  0.00  0.00    +0.000 HD
ATOM     27  H   UNL     1      49.354   2.332   5.529  0.00  0.00    +0.000 HD
ENDBRANCH  19  23
ENDBRANCH  15  16
ENDBRANCH   1  15
TORSDOF 5
ENDMDL
MODEL 2
REMARK VINA RESULT:    -8.745      2.332      3.721
REMARK INTER + INTRA:         -11.944
REMARK INTER:                 -11.231
REMARK INTRA:                  -0.713
REMARK UNBOUND:                -0.643
REMARK  Name = 
REMARK  7 active torsions:
REMARK  status: ('A' for Active; 'I' for Inactive)
REMARK    1  A    between atoms: C_1  and  C_2
REMARK    2  A    between atoms: C_6  and  C_7
REMARK    3  A    between atoms: C_11  and  C_12
REMARK    4  A    between atoms: C_12  and  O_13
REMARK    5  A    between atoms: O_13  and  C_14
REMARK    6  A    between atoms: C_17  and  C_18
REMARK    7  A    between atoms: C_21  and  C_22
REMARK                            x       y       z     vdW  Elec       q    Type
REMARK                         _______ _______ _______ _____ _____    ______ ____
ROOT
ATOM      1  C   UNL     1      43.488   4.695  10.888  0.00  0.00    +0.000 C 
ENDROOT
BRANCH   1   6
ATOM      2  C   UNL     1      46.245   5.441  13.455  0.00  0.00    +0.000 A 
ATOM      3  C   UNL     1      46.547   6.767  13.098  0.00  0.00    +0.000 A 
ATOM      4  C   UNL     1      45.865   7.423  12.072  0.00  0.00    +0.000 A 
ATOM      5  C   UNL     1      44.862   6.760  11.367  0.00  0.00    +0.000 A 
ATOM      6  C   UNL     1      44.540   5.436  11.679  0.00  0.00    +0.000 A 
ATOM      7  C   UNL     1      45.214   4.800  12.737  0.00  0.00    +0.000 A 
BRANCH   2  13
ATOM      8  C   UNL     1      48.773   5.426  17.825  0.00  0.00    +0.000 C 
ATOM      9  C   UNL     1      48.227   4.716  16.628  0.00  0.00    +0.000 A 
ATOM     10  C   UNL     1      48.396   3.349  16.457  0.00  0.00    +0.000 A 
ATOM     11  N   UNL     1      47.918   2.657  15.404  0.00  0.00    +0.000 NA
ATOM     12  C   UNL     1      47.235   3.368  14.475  0.00  0.00    +0.000 A 
ATOM     13  C   UNL     1      47.000   4.746  14.520  0.00  0.00    +0.000 A 
ATOM     14  C   UNL     1      47.517   5.411  15.641  0.00  0.00    +0.000 A 
ENDBRANCH   2  13
ENDBRANCH   1   6
BRANCH   1  15
ATOM     15  O   UNL     1      43.992   3.408  10.543  0.00  0.00    +0.000 OA
BRANCH  15  16
ATOM     16  C   UNL     1      44.832   3.332   9.468  0.00  0.00    +0.000 A 
ATOM     17  C   UNL     1      45.354   4.399   8.744  0.00  0.00    +0.000 A 
ATOM     18  C   UNL     1      46.197   4.151   7.654  0.00  0.00    +0.000 A 
ATOM     19  C   UNL     1      46.557   2.845   7.280  0.00  0.00    +0.000 A 
ATOM     20  C   UNL     1      46.095   1.766   8.057  0.00  0.00    +0.000 A 
ATOM     21  C   UNL     1      46.524   0.338   7.873  0.00  0.00    +0.000 C 
ATOM     22  C   UNL     1      45.193   2.030   9.108  0.00  0.00    +0.000 A 
BRANCH  19  23
ATOM     23  C   UNL     1      47.450   2.734   6.089  0.00  0.00    +0.000 C 
ATOM     24  N   UNL     1      48.791   2.558   6.291  0.00  0.00    +0.000 N 
ATOM     25  O   UNL     1      46.997   2.731   4.947  0.00  0.00    +0.000 OA
ATOM     26  H   UNL     1      49.184   2.336   7.194  0.00  0.00    +0.000 HD
ATOM     27  H   UNL     1      49.351   2.375   5.472  0.00  0.00    +0.000 HD
ENDBRANCH  19  23
ENDBRANCH  15  16
ENDBRANCH   1  15
TORSDOF 5
ENDMDL
MODEL 3
REMARK VINA RESULT:    -8.069      3.325      7.869
REMARK INTER + INTRA:         -11.070
REMARK INTER:                 -10.189
REMARK INTRA:                  -0.881
REMARK UNBOUND:                -0.643
REMARK  Name = 
REMARK  7 active torsions:
REMARK  status: ('A' for Active; 'I' for Inactive)
REMARK    1  A    between atoms: C_1  and  C_2
REMARK    2  A    between atoms: C_6  and  C_7
REMARK    3  A    between atoms: C_11  and  C_12
REMARK    4  A    between atoms: C_12  and  O_13
REMARK    5  A    between atoms: O_13  and  C_14
REMARK    6  A    between atoms: C_17  and  C_18
REMARK    7  A    between atoms: C_21  and  C_22
REMARK                            x       y       z     vdW  Elec       q    Type
REMARK                         _______ _______ _______ _____ _____    ______ ____
ROOT
ATOM      1  C   UNL     1      46.204   7.310  12.053  0.00  0.00    +0.000 C 
ENDROOT
BRANCH   1   6
ATOM      2  C   UNL     1      44.958   4.471   9.787  0.00  0.00    +0.000 A 
ATOM      3  C   UNL     1      43.589   4.494  10.110  0.00  0.00    +0.000 A 
ATOM      4  C   UNL     1      43.067   5.417  11.017  0.00  0.00    +0.000 A 
ATOM      5  C   UNL     1      43.908   6.341  11.634  0.00  0.00    +0.000 A 
ATOM      6  C   UNL     1      45.278   6.343  11.352  0.00  0.00    +0.000 A 
ATOM      7  C   UNL     1      45.783   5.428  10.412  0.00  0.00    +0.000 A 
BRANCH   2  13
ATOM      8  C   UNL     1      47.114   3.179   5.409  0.00  0.00    +0.000 C 
ATOM      9  C   UNL     1      46.544   2.817   6.741  0.00  0.00    +0.000 A 
ATOM     10  C   UNL     1      46.504   1.500   7.179  0.00  0.00    +0.000 A 
ATOM     11  N   UNL     1      46.009   1.118   8.373  0.00  0.00    +0.000 NA
ATOM     12  C   UNL     1      45.532   2.102   9.171  0.00  0.00    +0.000 A 
ATOM     13  C   UNL     1      45.504   3.465   8.852  0.00  0.00    +0.000 A 
ATOM     14  C   UNL     1      46.036   3.801   7.599  0.00  0.00    +0.000 A 
ENDBRANCH   2  13
ENDBRANCH   1   6
BRANCH   1  15
ATOM     15  O   UNL     1      47.426   6.642  12.351  0.00  0.00    +0.000 OA
BRANCH  15  16
ATOM     16  C   UNL     1      47.532   6.045  13.576  0.00  0.00    +0.000 A 
ATOM     17  C   UNL     1      46.909   4.870  13.984  0.00  0.00    +0.000 A 
ATOM     18  C   UNL     1      47.112   4.392  15.284  0.00  0.00    +0.000 A 
ATOM     19  C   UNL     1      47.954   5.057  16.192  0.00  0.00    +0.000 A 
ATOM     20  C   UNL     1      48.649   6.202  15.759  0.00  0.00    +0.000 A 
ATOM     21  C   UNL     1      49.697   6.918  16.562  0.00  0.00    +0.000 C 
ATOM     22  C   UNL     1      48.379   6.706  14.469  0.00  0.00    +0.000 A 
BRANCH  19  23
ATOM     23  C   UNL     1      48.062   4.440  17.547  0.00  0.00    +0.000 C 
ATOM     24  N   UNL     1      47.127   4.766  18.490  0.00  0.00    +0.000 N 
ATOM     25  O   UNL     1      48.925   3.605  17.803  0.00  0.00    +0.000 OA
ATOM     26  H   UNL     1      46.280   5.271  18.270  0.00  0.00    +0.000 HD
ATOM     27  H   UNL     1      47.160   4.250  19.357  0.00  0.00    +0.000 HD
ENDBRANCH  19  23
ENDBRANCH  15  16
ENDBRANCH   1  15
TORSDOF 5
ENDMDL
MODEL 4
REMARK VINA RESULT:    -7.985      1.831      2.346
REMARK INTER + INTRA:         -10.962
REMARK INTER:                 -10.188
REMARK INTRA:                  -0.774
REMARK UNBOUND:                -0.643
REMARK  Name = 
REMARK  7 active torsions:
REMARK  status: ('A' for Active; 'I' for Inactive)
REMARK    1  A    between atoms: C_1  and  C_2
REMARK    2  A    between atoms: C_6  and  C_7
REMARK    3  A    between atoms: C_11  and  C_12
REMARK    4  A    between atoms: C_12  and  O_13
REMARK    5  A    between atoms: O_13  and  C_14
REMARK    6  A    between atoms: C_17  and  C_18
REMARK    7  A    between atoms: C_21  and  C_22
REMARK                            x       y       z     vdW  Elec       q    Type
REMARK                         _______ _______ _______ _____ _____    ______ ____
ROOT
ATOM      1  C   UNL     1      44.659   3.810  11.818  0.00  0.00    +0.000 C 
ENDROOT
BRANCH   1   6
ATOM      2  C   UNL     1      46.319   7.094  12.916  0.00  0.00    +0.000 A 
ATOM      3  C   UNL     1      45.404   8.015  12.375  0.00  0.00    +0.000 A 
ATOM      4  C   UNL     1      44.260   7.594  11.692  0.00  0.00    +0.000 A 
ATOM      5  C   UNL     1      44.008   6.234  11.526  0.00  0.00    +0.000 A 
ATOM      6  C   UNL     1      44.900   5.286  12.036  0.00  0.00    +0.000 A 
ATOM      7  C   UNL     1      46.030   5.725  12.749  0.00  0.00    +0.000 A 
BRANCH   2  13
ATOM      8  C   UNL     1      48.968  10.588  15.420  0.00  0.00    +0.000 C 
ATOM      9  C   UNL     1      48.843   9.227  14.815  0.00  0.00    +0.000 A 
ATOM     10  C   UNL     1      49.882   8.308  14.877  0.00  0.00    +0.000 A 
ATOM     11  N   UNL     1      49.822   7.067  14.357  0.00  0.00    +0.000 NA
ATOM     12  C   UNL     1      48.663   6.725  13.746  0.00  0.00    +0.000 A 
ATOM     13  C   UNL     1      47.544   7.553  13.606  0.00  0.00    +0.000 A 
ATOM     14  C   UNL     1      47.665   8.830  14.170  0.00  0.00    +0.000 A 
ENDBRANCH   2  13
ENDBRANCH   1   6
BRANCH   1  15
ATOM     15  O   UNL     1      44.040   3.628  10.548  0.00  0.00    +0.000 OA
BRANCH  15  16
ATOM     16  C   UNL     1      44.862   3.491   9.465  0.00  0.00    +0.000 A 
ATOM     17  C   UNL     1      45.447   4.517   8.730  0.00  0.00    +0.000 A 
ATOM     18  C   UNL     1      46.261   4.209   7.634  0.00  0.00    +0.000 A 
ATOM     19  C   UNL     1      46.529   2.880   7.263  0.00  0.00    +0.000 A 
ATOM     20  C   UNL     1      46.004   1.837   8.050  0.00  0.00    +0.000 A 
ATOM     21  C   UNL     1      46.334   0.383   7.870  0.00  0.00    +0.000 C 
ATOM     22  C   UNL     1      45.132   2.167   9.109  0.00  0.00    +0.000 A 
BRANCH  19  23
ATOM     23  C   UNL     1      47.401   2.704   6.064  0.00  0.00    +0.000 C 
ATOM     24  N   UNL     1      48.728   2.432   6.254  0.00  0.00    +0.000 N 
ATOM     25  O   UNL     1      46.938   2.731   4.927  0.00  0.00    +0.000 OA
ATOM     26  H   UNL     1      49.112   2.184   7.155  0.00  0.00    +0.000 HD
ATOM     27  H   UNL     1      49.266   2.209   5.430  0.00  0.00    +0.000 HD
ENDBRANCH  19  23
ENDBRANCH  15  16
ENDBRANCH   1  15
TORSDOF 5
ENDMDL
MODEL 5
REMARK VINA RESULT:    -7.780      1.796      2.394
REMARK INTER + INTRA:         -10.697
REMARK INTER:                 -10.345
REMARK INTRA:                  -0.352
REMARK UNBOUND:                -0.643
REMARK  Name = 
REMARK  7 active torsions:
REMARK  status: ('A' for Active; 'I' for Inactive)
REMARK    1  A    between atoms: C_1  and  C_2
REMARK    2  A    between atoms: C_6  and  C_7
REMARK    3  A    between atoms: C_11  and  C_12
REMARK    4  A    between atoms: C_12  and  O_13
REMARK    5  A    between atoms: O_13  and  C_14
REMARK    6  A    between atoms: C_17  and  C_18
REMARK    7  A    between atoms: C_21  and  C_22
REMARK                            x       y       z     vdW  Elec       q    Type
REMARK                         _______ _______ _______ _____ _____    ______ ____
ROOT
ATOM      1  C   UNL     1      44.176   5.856  10.469  0.00  0.00    +0.000 C 
ENDROOT
BRANCH   1   6
ATOM      2  C   UNL     1      47.316   6.222  12.649  0.00  0.00    +0.000 A 
ATOM      3  C   UNL     1      47.000   5.310  13.673  0.00  0.00    +0.000 A 
ATOM      4  C   UNL     1      45.817   4.570  13.655  0.00  0.00    +0.000 A 
ATOM      5  C   UNL     1      44.909   4.732  12.610  0.00  0.00    +0.000 A 
ATOM      6  C   UNL     1      45.177   5.639  11.580  0.00  0.00    +0.000 A 
ATOM      7  C   UNL     1      46.389   6.353  11.596  0.00  0.00    +0.000 A 
BRANCH   2  13
ATOM      8  C   UNL     1      51.308   8.087  15.114  0.00  0.00    +0.000 C 
ATOM      9  C   UNL     1      50.491   7.940  13.871  0.00  0.00    +0.000 A 
ATOM     10  C   UNL     1      50.865   8.550  12.682  0.00  0.00    +0.000 A 
ATOM     11  N   UNL     1      50.172   8.445  11.531  0.00  0.00    +0.000 NA
ATOM     12  C   UNL     1      49.049   7.688  11.570  0.00  0.00    +0.000 A 
ATOM     13  C   UNL     1      48.556   7.025  12.700  0.00  0.00    +0.000 A 
ATOM     14  C   UNL     1      49.321   7.169  13.865  0.00  0.00    +0.000 A 
ENDBRANCH   2  13
ENDBRANCH   1   6
BRANCH   1  15
ATOM     15  O   UNL     1      43.575   4.607  10.141  0.00  0.00    +0.000 OA
BRANCH  15  16
ATOM     16  C   UNL     1      44.362   3.676   9.525  0.00  0.00    +0.000 A 
ATOM     17  C   UNL     1      44.346   2.301   9.739  0.00  0.00    +0.000 A 
ATOM     18  C   UNL     1      45.230   1.478   9.031  0.00  0.00    +0.000 A 
ATOM     19  C   UNL     1      46.126   2.001   8.082  0.00  0.00    +0.000 A 
ATOM     20  C   UNL     1      46.092   3.380   7.805  0.00  0.00    +0.000 A 
ATOM     21  C   UNL     1      46.874   4.049   6.711  0.00  0.00    +0.000 C 
ATOM     22  C   UNL     1      45.243   4.201   8.576  0.00  0.00    +0.000 A 
BRANCH  19  23
ATOM     23  C   UNL     1      47.019   1.006   7.418  0.00  0.00    +0.000 C 
ATOM     24  N   UNL     1      46.788  -0.325   7.631  0.00  0.00    +0.000 N 
ATOM     25  O   UNL     1      47.901   1.357   6.639  0.00  0.00    +0.000 OA
ATOM     26  H   UNL     1      45.952  -0.671   8.080  0.00  0.00    +0.000 HD
ATOM     27  H   UNL     1      47.335  -0.972   7.082  0.00  0.00    +0.000 HD
ENDBRANCH  19  23
ENDBRANCH  15  16
ENDBRANCH   1  15
TORSDOF 5
ENDMDL
MODEL 6
REMARK VINA RESULT:    -7.561      2.624      7.105
REMARK INTER + INTRA:         -10.414
REMARK INTER:                  -9.455
REMARK INTRA:                  -0.959
REMARK UNBOUND:                -0.643
REMARK  Name = 
REMARK  7 active torsions:
REMARK  status: ('A' for Active; 'I' for Inactive)
REMARK    1  A    between atoms: C_1  and  C_2
REMARK    2  A    between atoms: C_6  and  C_7
REMARK    3  A    between atoms: C_11  and  C_12
REMARK    4  A    between atoms: C_12  and  O_13
REMARK    5  A    between atoms: O_13  and  C_14
REMARK    6  A    between atoms: C_17  and  C_18
REMARK    7  A    between atoms: C_21  and  C_22
REMARK                            x       y       z     vdW  Elec       q    Type
REMARK                         _______ _______ _______ _____ _____    ______ ____
ROOT
ATOM      1  C   UNL     1      44.733   7.498  11.755  0.00  0.00    +0.000 C 
ENDROOT
BRANCH   1   6
ATOM      2  C   UNL     1      44.831   4.119   9.933  0.00  0.00    +0.000 A 
ATOM      3  C   UNL     1      43.888   3.410  10.699  0.00  0.00    +0.000 A 
ATOM      4  C   UNL     1      43.213   4.008  11.764  0.00  0.00    +0.000 A 
ATOM      5  C   UNL     1      43.471   5.336  12.097  0.00  0.00    +0.000 A 
ATOM      6  C   UNL     1      44.411   6.073  11.370  0.00  0.00    +0.000 A 
ATOM      7  C   UNL     1      45.060   5.466  10.280  0.00  0.00    +0.000 A 
BRANCH   2  13
ATOM      8  C   UNL     1      46.727   0.023   7.671  0.00  0.00    +0.000 C 
ATOM      9  C   UNL     1      46.492   1.498   7.720  0.00  0.00    +0.000 A 
ATOM     10  C   UNL     1      46.951   2.339   6.715  0.00  0.00    +0.000 A 
ATOM     11  N   UNL     1      46.761   3.672   6.705  0.00  0.00    +0.000 NA
ATOM     12  C   UNL     1      46.076   4.193   7.750  0.00  0.00    +0.000 A 
ATOM     13  C   UNL     1      45.566   3.464   8.830  0.00  0.00    +0.000 A 
ATOM     14  C   UNL     1      45.791   2.081   8.784  0.00  0.00    +0.000 A 
ENDBRANCH   2  13
ENDBRANCH   1   6
BRANCH   1  15
ATOM     15  O   UNL     1      45.640   7.485  12.854  0.00  0.00    +0.000 OA
BRANCH  15  16
ATOM     16  C   UNL     1      46.968   7.638  12.570  0.00  0.00    +0.000 A 
ATOM     17  C   UNL     1      47.954   6.660  12.654  0.00  0.00    +0.000 A 
ATOM     18  C   UNL     1      49.279   6.981  12.337  0.00  0.00    +0.000 A 
ATOM     19  C   UNL     1      49.644   8.270  11.909  0.00  0.00    +0.000 A 
ATOM     20  C   UNL     1      48.639   9.241  11.748  0.00  0.00    +0.000 A 
ATOM     21  C   UNL     1      48.856  10.603  11.151  0.00  0.00    +0.000 C 
ATOM     22  C   UNL     1      47.322   8.918  12.136  0.00  0.00    +0.000 A 
BRANCH  19  23
ATOM     23  C   UNL     1      51.096   8.470  11.623  0.00  0.00    +0.000 C 
ATOM     24  N   UNL     1      51.790   9.383  12.369  0.00  0.00    +0.000 N 
ATOM     25  O   UNL     1      51.683   7.790  10.786  0.00  0.00    +0.000 OA
ATOM     26  H   UNL     1      51.413   9.806  13.205  0.00  0.00    +0.000 HD
ATOM     27  H   UNL     1      52.788   9.415  12.229  0.00  0.00    +0.000 HD
ENDBRANCH  19  23
ENDBRANCH  15  16
ENDBRANCH   1  15
TORSDOF 5
ENDMDL
MODEL 7
REMARK VINA RESULT:    -7.336      4.323      8.444
REMARK INTER + INTRA:         -10.123
REMARK INTER:                  -9.231
REMARK INTRA:                  -0.892
REMARK UNBOUND:                -0.643
REMARK  Name = 
REMARK  7 active torsions:
REMARK  status: ('A' for Active; 'I' for Inactive)
REMARK    1  A    between atoms: C_1  and  C_2
REMARK    2  A    between atoms: C_6  and  C_7
REMARK    3  A    between atoms: C_11  and  C_12
REMARK    4  A    between atoms: C_12  and  O_13
REMARK    5  A    between atoms: O_13  and  C_14
REMARK    6  A    between atoms: C_17  and  C_18
REMARK    7  A    between atoms: C_21  and  C_22
REMARK                            x       y       z     vdW  Elec       q    Type
REMARK                         _______ _______ _______ _____ _____    ______ ____
ROOT
ATOM      1  C   UNL     1      48.316   7.583  13.537  0.00  0.00    +0.000 C 
ENDROOT
BRANCH   1   6
ATOM      2  C   UNL     1      45.516   6.308  11.239  0.00  0.00    +0.000 A 
ATOM      3  C   UNL     1      44.635   7.402  11.312  0.00  0.00    +0.000 A 
ATOM      4  C   UNL     1      44.940   8.540  12.060  0.00  0.00    +0.000 A 
ATOM      5  C   UNL     1      46.139   8.608  12.767  0.00  0.00    +0.000 A 
ATOM      6  C   UNL     1      47.037   7.536  12.734  0.00  0.00    +0.000 A 
ATOM      7  C   UNL     1      46.729   6.410  11.949  0.00  0.00    +0.000 A 
BRANCH   2  13
ATOM      8  C   UNL     1      45.889   3.370   7.151  0.00  0.00    +0.000 C 
ATOM      9  C   UNL     1      45.327   3.660   8.505  0.00  0.00    +0.000 A 
ATOM     10  C   UNL     1      44.440   2.789   9.123  0.00  0.00    +0.000 A 
ATOM     11  N   UNL     1      43.910   2.996  10.344  0.00  0.00    +0.000 NA
ATOM     12  C   UNL     1      44.286   4.130  10.981  0.00  0.00    +0.000 A 
ATOM     13  C   UNL     1      45.164   5.094  10.472  0.00  0.00    +0.000 A 
ATOM     14  C   UNL     1      45.686   4.822   9.200  0.00  0.00    +0.000 A 
ENDBRANCH   2  13
ENDBRANCH   1   6
BRANCH   1  15
ATOM     15  O   UNL     1      48.588   6.281  14.047  0.00  0.00    +0.000 OA
BRANCH  15  16
ATOM     16  C   UNL     1      48.509   6.109  15.400  0.00  0.00    +0.000 A 
ATOM     17  C   UNL     1      48.856   7.037  16.377  0.00  0.00    +0.000 A 
ATOM     18  C   UNL     1      48.726   6.702  17.730  0.00  0.00    +0.000 A 
ATOM     19  C   UNL     1      48.227   5.452  18.137  0.00  0.00    +0.000 A 
ATOM     20  C   UNL     1      47.801   4.540  17.154  0.00  0.00    +0.000 A 
ATOM     21  C   UNL     1      47.104   3.240  17.441  0.00  0.00    +0.000 C 
ATOM     22  C   UNL     1      48.002   4.869  15.797  0.00  0.00    +0.000 A 
BRANCH  19  23
ATOM     23  C   UNL     1      48.159   5.230  19.611  0.00  0.00    +0.000 C 
ATOM     24  N   UNL     1      47.132   5.798  20.312  0.00  0.00    +0.000 N 
ATOM     25  O   UNL     1      48.962   4.499  20.186  0.00  0.00    +0.000 OA
ATOM     26  H   UNL     1      46.331   6.221  19.864  0.00  0.00    +0.000 HD
ATOM     27  H   UNL     1      47.050   5.539  21.284  0.00  0.00    +0.000 HD
ENDBRANCH  19  23
ENDBRANCH  15  16
ENDBRANCH   1  15
TORSDOF 5
ENDMDL
MODEL 8
REMARK VINA RESULT:    -7.239      2.659      7.185
REMARK INTER + INTRA:          -9.998
REMARK INTER:                  -9.169
REMARK INTRA:                  -0.829
REMARK UNBOUND:                -0.643
REMARK  Name = 
REMARK  7 active torsions:
REMARK  status: ('A' for Active; 'I' for Inactive)
REMARK    1  A    between atoms: C_1  and  C_2
REMARK    2  A    between atoms: C_6  and  C_7
REMARK    3  A    between atoms: C_11  and  C_12
REMARK    4  A    between atoms: C_12  and  O_13
REMARK    5  A    between atoms: O_13  and  C_14
REMARK    6  A    between atoms: C_17  and  C_18
REMARK    7  A    between atoms: C_21  and  C_22
REMARK                            x       y       z     vdW  Elec       q    Type
REMARK                         _______ _______ _______ _____ _____    ______ ____
ROOT
ATOM      1  C   UNL     1      45.555   6.087  13.272  0.00  0.00    +0.000 C 
ENDROOT
BRANCH   1   6
ATOM      2  C   UNL     1      44.921   3.636  10.385  0.00  0.00    +0.000 A 
ATOM      3  C   UNL     1      43.798   2.958  10.892  0.00  0.00    +0.000 A 
ATOM      4  C   UNL     1      43.235   3.295  12.125  0.00  0.00    +0.000 A 
ATOM      5  C   UNL     1      43.791   4.319  12.889  0.00  0.00    +0.000 A 
ATOM      6  C   UNL     1      44.917   5.008  12.427  0.00  0.00    +0.000 A 
ATOM      7  C   UNL     1      45.452   4.679  11.169  0.00  0.00    +0.000 A 
BRANCH   2  13
ATOM      8  C   UNL     1      46.879   0.192   7.255  0.00  0.00    +0.000 C 
ATOM      9  C   UNL     1      46.480   1.598   7.566  0.00  0.00    +0.000 A 
ATOM     10  C   UNL     1      46.655   2.622   6.645  0.00  0.00    +0.000 A 
ATOM     11  N   UNL     1      46.306   3.904   6.869  0.00  0.00    +0.000 NA
ATOM     12  C   UNL     1      45.753   4.177   8.075  0.00  0.00    +0.000 A 
ATOM     13  C   UNL     1      45.528   3.245   9.095  0.00  0.00    +0.000 A 
ATOM     14  C   UNL     1      45.907   1.928   8.802  0.00  0.00    +0.000 A 
ENDBRANCH   2  13
ENDBRANCH   1   6
BRANCH   1  15
ATOM     15  O   UNL     1      45.112   7.359  12.805  0.00  0.00    +0.000 OA
BRANCH  15  16
ATOM     16  C   UNL     1      46.072   8.262  12.445  0.00  0.00    +0.000 A 
ATOM     17  C   UNL     1      45.926   9.643  12.367  0.00  0.00    +0.000 A 
ATOM     18  C   UNL     1      47.010  10.434  11.969  0.00  0.00    +0.000 A 
ATOM     19  C   UNL     1      48.263   9.872  11.667  0.00  0.00    +0.000 A 
ATOM     20  C   UNL     1      48.439   8.484  11.820  0.00  0.00    +0.000 A 
ATOM     21  C   UNL     1      49.754   7.771  11.689  0.00  0.00    +0.000 C 
ATOM     22  C   UNL     1      47.317   7.697  12.157  0.00  0.00    +0.000 A 
BRANCH  19  23
ATOM     23  C   UNL     1      49.320  10.836  11.241  0.00  0.00    +0.000 C 
ATOM     24  N   UNL     1      49.164  11.497  10.054  0.00  0.00    +0.000 N 
ATOM     25  O   UNL     1      50.281  11.093  11.962  0.00  0.00    +0.000 OA
ATOM     26  H   UNL     1      48.298  11.489   9.533  0.00  0.00    +0.000 HD
ATOM     27  H   UNL     1      49.835  12.221   9.847  0.00  0.00    +0.000 HD
ENDBRANCH  19  23
ENDBRANCH  15  16
ENDBRANCH   1  15
TORSDOF 5
ENDMDL
MODEL 9
REMARK VINA RESULT:    -7.087      4.039      8.213
REMARK INTER + INTRA:          -9.801
REMARK INTER:                  -9.184
REMARK INTRA:                  -0.617
REMARK UNBOUND:                -0.643
REMARK  Name = 
REMARK  7 active torsions:
REMARK  status: ('A' for Active; 'I' for Inactive)
REMARK    1  A    between atoms: C_1  and  C_2
REMARK    2  A    between atoms: C_6  and  C_7
REMARK    3  A    between atoms: C_11  and  C_12
REMARK    4  A    between atoms: C_12  and  O_13
REMARK    5  A    between atoms: O_13  and  C_14
REMARK    6  A    between atoms: C_17  and  C_18
REMARK    7  A    between atoms: C_21  and  C_22
REMARK                            x       y       z     vdW  Elec       q    Type
REMARK                         _______ _______ _______ _____ _____    ______ ____
ROOT
ATOM      1  C   UNL     1      45.606   4.546  14.025  0.00  0.00    +0.000 C 
ENDROOT
BRANCH   1   6
ATOM      2  C   UNL     1      44.883   4.119  10.278  0.00  0.00    +0.000 A 
ATOM      3  C   UNL     1      43.585   4.660  10.224  0.00  0.00    +0.000 A 
ATOM      4  C   UNL     1      42.961   5.176  11.361  0.00  0.00    +0.000 A 
ATOM      5  C   UNL     1      43.619   5.157  12.588  0.00  0.00    +0.000 A 
ATOM      6  C   UNL     1      44.905   4.615  12.688  0.00  0.00    +0.000 A 
ATOM      7  C   UNL     1      45.533   4.128  11.528  0.00  0.00    +0.000 A 
BRANCH   2  13
ATOM      8  C   UNL     1      46.704   0.210   7.652  0.00  0.00    +0.000 C 
ATOM      9  C   UNL     1      46.406   1.668   7.787  0.00  0.00    +0.000 A 
ATOM     10  C   UNL     1      46.708   2.567   6.774  0.00  0.00    +0.000 A 
ATOM     11  N   UNL     1      46.455   3.889   6.839  0.00  0.00    +0.000 NA
ATOM     12  C   UNL     1      45.868   4.335   7.975  0.00  0.00    +0.000 A 
ATOM     13  C   UNL     1      45.518   3.542   9.074  0.00  0.00    +0.000 A 
ATOM     14  C   UNL     1      45.803   2.176   8.946  0.00  0.00    +0.000 A 
ENDBRANCH   2  13
ENDBRANCH   1   6
BRANCH   1  15
ATOM     15  O   UNL     1      46.765   5.373  13.980  0.00  0.00    +0.000 OA
BRANCH  15  16
ATOM     16  C   UNL     1      47.603   5.336  15.059  0.00  0.00    +0.000 A 
ATOM     17  C   UNL     1      48.559   6.287  15.402  0.00  0.00    +0.000 A 
ATOM     18  C   UNL     1      49.350   6.095  16.540  0.00  0.00    +0.000 A 
ATOM     19  C   UNL     1      49.191   4.972  17.371  0.00  0.00    +0.000 A 
ATOM     20  C   UNL     1      48.173   4.047  17.072  0.00  0.00    +0.000 A 
ATOM     21  C   UNL     1      47.784   2.893  17.951  0.00  0.00    +0.000 C 
ATOM     22  C   UNL     1      47.431   4.222  15.885  0.00  0.00    +0.000 A 
BRANCH  19  23
ATOM     23  C   UNL     1      50.116   4.893  18.540  0.00  0.00    +0.000 C 
ATOM     24  N   UNL     1      51.018   3.867  18.592  0.00  0.00    +0.000 N 
ATOM     25  O   UNL     1      50.125   5.761  19.408  0.00  0.00    +0.000 OA
ATOM     26  H   UNL     1      51.200   3.257  17.807  0.00  0.00    +0.000 HD
ATOM     27  H   UNL     1      51.701   3.903  19.333  0.00  0.00    +0.000 HD
ENDBRANCH  19  23
ENDBRANCH  15  16
ENDBRANCH   1  15
TORSDOF 5
ENDMDL
