MODEL 1
REMARK VINA RESULT:    -7.338      0.000      0.000
REMARK INTER + INTRA:         -10.772
REMARK INTER:                 -10.341
REMARK INTRA:                  -0.430
REMARK UNBOUND:                -0.430
REMARK  Name = 
REMARK  8 active torsions:
REMARK  status: ('A' for Active; 'I' for Inactive)
REMARK    1  A    between atoms: N_1  and  C_2
REMARK    2  A    between atoms: C_2  and  C_3
REMARK    3  A    between atoms: C_2  and  C_6
REMARK    4  A    between atoms: C_3  and  C_4
REMARK    5  A    between atoms: C_4  and  O_5
REMARK    6  A    between atoms: N_9  and  C_10
REMARK    7  A    between atoms: C_10  and  N_11
REMARK    8  A    between atoms: C_16  and  C_17
REMARK                            x       y       z     vdW  Elec       q    Type
REMARK                         _______ _______ _______ _____ _____    ______ ____
ROOT
ATOM      1  C   UNL     1      47.366   7.406  13.341  0.00  0.00    +0.000 C 
ATOM      2  C   UNL     1      46.760   6.024  13.645  0.00  0.00    +0.000 C 
ATOM      3  C   UNL     1      45.813   5.541  12.545  0.00  0.00    +0.000 C 
ATOM      4  N   UNL     1      44.746   6.503  12.221  0.00  0.00    +0.000 NA
ATOM      5  C   UNL     1      45.247   7.874  12.023  0.00  0.00    +0.000 C 
ATOM      6  C   UNL     1      46.165   8.351  13.147  0.00  0.00    +0.000 C 
ENDROOT
BRANCH   1   7
ATOM      7  C   UNL     1      48.372   7.427  12.144  0.00  0.00    +0.000 C 
BRANCH   7   8
ATOM      8  N   UNL     1      49.600   6.695  12.461  0.00  0.00    +0.000 NA
ATOM      9  H   UNL     1      50.406   7.317  12.455  0.00  0.00    +0.000 HD
ATOM     10  H   UNL     1      49.780   5.984  11.753  0.00  0.00    +0.000 HD
ENDBRANCH   7   8
BRANCH   7  11
ATOM     11  C   UNL     1      48.747   8.872  11.748  0.00  0.00    +0.000 C 
BRANCH  11  12
ATOM     12  C   UNL     1      50.196   9.257  12.039  0.00  0.00    +0.000 C 
BRANCH  12  13
ATOM     13  O   UNL     1      51.037   8.771  10.993  0.00  0.00    +0.000 OA
ATOM     14  H   UNL     1      51.952   8.791  11.319  0.00  0.00    +0.000 HD
ENDBRANCH  12  13
ENDBRANCH  11  12
ENDBRANCH   7  11
ENDBRANCH   1   7
BRANCH   4  15
ATOM     15  C   UNL     1      44.036   6.098  10.983  0.00  0.00    +0.000 C 
BRANCH  15  16
ATOM     16  N   UNL     1      44.256   4.686  10.691  0.00  0.00    +0.000 N 
ATOM     17  C   UNL     1      43.611   3.633  11.297  0.00  0.00    +0.000 A 
ATOM     18  C   UNL     1      43.967   2.476  10.637  0.00  0.00    +0.000 A 
ATOM     19  C   UNL     1      44.844   2.837   9.580  0.00  0.00    +0.000 A 
ATOM     20  C   UNL     1      45.496   2.148   8.545  0.00  0.00    +0.000 A 
ATOM     21  C   UNL     1      46.283   2.886   7.651  0.00  0.00    +0.000 A 
ATOM     22  C   UNL     1      46.398   4.257   7.857  0.00  0.00    +0.000 A 
ATOM     23  N   UNL     1      45.791   4.971   8.833  0.00  0.00    +0.000 NA
ATOM     24  C   UNL     1      45.027   4.216   9.649  0.00  0.00    +0.000 A 
BRANCH  21  25
ATOM     25  C   UNL     1      46.968   2.257   6.480  0.00  0.00    +0.000 C 
ATOM     26  F   UNL     1      48.301   2.521   6.420  0.00  0.00    +0.000 F 
ATOM     27  F   UNL     1      46.860   0.898   6.486  0.00  0.00    +0.000 F 
ATOM     28  F   UNL     1      46.452   2.664   5.287  0.00  0.00    +0.000 F 
ENDBRANCH  21  25
ENDBRANCH  15  16
ENDBRANCH   4  15
TORSDOF 8
ENDMDL
MODEL 2
REMARK VINA RESULT:    -6.323      1.972      2.581
REMARK INTER + INTRA:          -9.341
REMARK INTER:                  -9.361
REMARK INTRA:                   0.020
REMARK UNBOUND:                -0.430
REMARK  Name = 
REMARK  8 active torsions:
REMARK  status: ('A' for Active; 'I' for Inactive)
REMARK    1  A    between atoms: N_1  and  C_2
REMARK    2  A    between atoms: C_2  and  C_3
REMARK    3  A    between atoms: C_2  and  C_6
REMARK    4  A    between atoms: C_3  and  C_4
REMARK    5  A    between atoms: C_4  and  O_5
REMARK    6  A    between atoms: N_9  and  C_10
REMARK    7  A    between atoms: C_10  and  N_11
REMARK    8  A    between atoms: C_16  and  C_17
REMARK                            x       y       z     vdW  Elec       q    Type
REMARK                         _______ _______ _______ _____ _____    ______ ____
ROOT
ATOM      1  C   UNL     1      47.838   8.149  12.847  0.00  0.00    +0.000 C 
ATOM      2  C   UNL     1      46.851   9.015  12.043  0.00  0.00    +0.000 C 
ATOM      3  C   UNL     1      45.524   8.303  11.777  0.00  0.00    +0.000 C 
ATOM      4  N   UNL     1      45.679   6.985  11.139  0.00  0.00    +0.000 NA
ATOM      5  C   UNL     1      46.691   6.141  11.797  0.00  0.00    +0.000 C 
ATOM      6  C   UNL     1      48.021   6.859  12.025  0.00  0.00    +0.000 C 
ENDROOT
BRANCH   1   7
ATOM      7  C   UNL     1      47.415   7.886  14.330  0.00  0.00    +0.000 C 
BRANCH   7   8
ATOM      8  N   UNL     1      47.345   9.132  15.098  0.00  0.00    +0.000 NA
ATOM      9  H   UNL     1      46.449   9.216  15.573  0.00  0.00    +0.000 HD
ATOM     10  H   UNL     1      47.418   9.934  14.474  0.00  0.00    +0.000 HD
ENDBRANCH   7   8
BRANCH   7  11
ATOM     11  C   UNL     1      48.399   6.926  15.034  0.00  0.00    +0.000 C 
BRANCH  11  12
ATOM     12  C   UNL     1      48.935   7.432  16.373  0.00  0.00    +0.000 C 
BRANCH  12  13
ATOM     13  O   UNL     1      47.986   7.153  17.401  0.00  0.00    +0.000 OA
ATOM     14  H   UNL     1      48.059   7.856  18.067  0.00  0.00    +0.000 HD
ENDBRANCH  12  13
ENDBRANCH  11  12
ENDBRANCH   7  11
ENDBRANCH   1   7
BRANCH   4  15
ATOM     15  C   UNL     1      44.395   6.243  11.154  0.00  0.00    +0.000 C 
BRANCH  15  16
ATOM     16  N   UNL     1      44.604   4.827  10.871  0.00  0.00    +0.000 N 
ATOM     17  C   UNL     1      44.061   3.780  11.578  0.00  0.00    +0.000 A 
ATOM     18  C   UNL     1      44.355   2.612  10.906  0.00  0.00    +0.000 A 
ATOM     19  C   UNL     1      45.086   2.960   9.740  0.00  0.00    +0.000 A 
ATOM     20  C   UNL     1      45.618   2.255   8.648  0.00  0.00    +0.000 A 
ATOM     21  C   UNL     1      46.272   2.982   7.646  0.00  0.00    +0.000 A 
ATOM     22  C   UNL     1      46.385   4.360   7.803  0.00  0.00    +0.000 A 
ATOM     23  N   UNL     1      45.891   5.088   8.830  0.00  0.00    +0.000 NA
ATOM     24  C   UNL     1      45.249   4.343   9.753  0.00  0.00    +0.000 A 
BRANCH  21  25
ATOM     25  C   UNL     1      46.818   2.333   6.414  0.00  0.00    +0.000 C 
ATOM     26  F   UNL     1      46.178   2.704   5.271  0.00  0.00    +0.000 F 
ATOM     27  F   UNL     1      48.134   2.628   6.213  0.00  0.00    +0.000 F 
ATOM     28  F   UNL     1      46.746   0.974   6.458  0.00  0.00    +0.000 F 
ENDBRANCH  21  25
ENDBRANCH  15  16
ENDBRANCH   4  15
TORSDOF 8
ENDMDL
MODEL 3
REMARK VINA RESULT:    -6.263      5.732      8.675
REMARK INTER + INTRA:          -9.256
REMARK INTER:                  -8.379
REMARK INTRA:                  -0.877
REMARK UNBOUND:                -0.430
REMARK  Name = 
REMARK  8 active torsions:
REMARK  status: ('A' for Active; 'I' for Inactive)
REMARK    1  A    between atoms: N_1  and  C_2
REMARK    2  A    between atoms: C_2  and  C_3
REMARK    3  A    between atoms: C_2  and  C_6
REMARK    4  A    between atoms: C_3  and  C_4
REMARK    5  A    between atoms: C_4  and  O_5
REMARK    6  A    between atoms: N_9  and  C_10
REMARK    7  A    between atoms: C_10  and  N_11
REMARK    8  A    between atoms: C_16  and  C_17
REMARK                            x       y       z     vdW  Elec       q    Type
REMARK                         _______ _______ _______ _____ _____    ______ ____
ROOT
ATOM      1  C   UNL     1      43.875   4.977  11.567  0.00  0.00    +0.000 C 
ATOM      2  C   UNL     1      44.262   6.466  11.643  0.00  0.00    +0.000 C 
ATOM      3  C   UNL     1      45.759   6.675  11.877  0.00  0.00    +0.000 C 
ATOM      4  N   UNL     1      46.278   5.955  13.052  0.00  0.00    +0.000 NA
ATOM      5  C   UNL     1      45.854   4.545  13.098  0.00  0.00    +0.000 C 
ATOM      6  C   UNL     1      44.352   4.358  12.895  0.00  0.00    +0.000 C 
ENDROOT
BRANCH   1   7
ATOM      7  C   UNL     1      44.415   4.229  10.304  0.00  0.00    +0.000 C 
BRANCH   7   8
ATOM      8  N   UNL     1      43.784   4.721   9.077  0.00  0.00    +0.000 NA
ATOM      9  H   UNL     1      43.346   3.959   8.563  0.00  0.00    +0.000 HD
ATOM     10  H   UNL     1      44.486   5.122   8.457  0.00  0.00    +0.000 HD
ENDBRANCH   7   8
BRANCH   7  11
ATOM     11  C   UNL     1      44.173   2.706  10.406  0.00  0.00    +0.000 C 
BRANCH  11  12
ATOM     12  C   UNL     1      44.580   1.912   9.166  0.00  0.00    +0.000 C 
BRANCH  12  13
ATOM     13  O   UNL     1      45.724   2.520   8.566  0.00  0.00    +0.000 OA
ATOM     14  H   UNL     1      45.473   3.421   8.305  0.00  0.00    +0.000 HD
ENDBRANCH  12  13
ENDBRANCH  11  12
ENDBRANCH   7  11
ENDBRANCH   1   7
BRANCH   4  15
ATOM     15  C   UNL     1      47.761   5.981  13.068  0.00  0.00    +0.000 C 
BRANCH  15  16
ATOM     16  N   UNL     1      48.260   6.683  14.246  0.00  0.00    +0.000 N 
ATOM     17  C   UNL     1      48.524   8.030  14.323  0.00  0.00    +0.000 A 
ATOM     18  C   UNL     1      48.816   8.334  15.636  0.00  0.00    +0.000 A 
ATOM     19  C   UNL     1      48.708   7.135  16.389  0.00  0.00    +0.000 A 
ATOM     20  C   UNL     1      48.828   6.793  17.745  0.00  0.00    +0.000 A 
ATOM     21  C   UNL     1      48.614   5.459  18.114  0.00  0.00    +0.000 A 
ATOM     22  C   UNL     1      48.323   4.540  17.111  0.00  0.00    +0.000 A 
ATOM     23  N   UNL     1      48.194   4.814  15.792  0.00  0.00    +0.000 NA
ATOM     24  C   UNL     1      48.385   6.116  15.496  0.00  0.00    +0.000 A 
BRANCH  21  25
ATOM     25  C   UNL     1      48.658   5.006  19.539  0.00  0.00    +0.000 C 
ATOM     26  F   UNL     1      48.548   3.657  19.686  0.00  0.00    +0.000 F 
ATOM     27  F   UNL     1      49.822   5.353  20.157  0.00  0.00    +0.000 F 
ATOM     28  F   UNL     1      47.661   5.546  20.294  0.00  0.00    +0.000 F 
ENDBRANCH  21  25
ENDBRANCH  15  16
ENDBRANCH   4  15
TORSDOF 8
ENDMDL
MODEL 4
REMARK VINA RESULT:    -6.258      4.629      6.809
REMARK INTER + INTRA:          -9.250
REMARK INTER:                  -8.664
REMARK INTRA:                  -0.586
REMARK UNBOUND:                -0.430
REMARK  Name = 
REMARK  8 active torsions:
REMARK  status: ('A' for Active; 'I' for Inactive)
REMARK    1  A    between atoms: N_1  and  C_2
REMARK    2  A    between atoms: C_2  and  C_3
REMARK    3  A    between atoms: C_2  and  C_6
REMARK    4  A    between atoms: C_3  and  C_4
REMARK    5  A    between atoms: C_4  and  O_5
REMARK    6  A    between atoms: N_9  and  C_10
REMARK    7  A    between atoms: C_10  and  N_11
REMARK    8  A    between atoms: C_16  and  C_17
REMARK                            x       y       z     vdW  Elec       q    Type
REMARK                         _______ _______ _______ _____ _____    ______ ____
ROOT
ATOM      1  C   UNL     1      48.804   6.473  18.581  0.00  0.00    +0.000 C 
ATOM      2  C   UNL     1      48.473   7.893  18.088  0.00  0.00    +0.000 C 
ATOM      3  C   UNL     1      48.645   8.048  16.576  0.00  0.00    +0.000 C 
ATOM      4  N   UNL     1      49.972   7.637  16.087  0.00  0.00    +0.000 NA
ATOM      5  C   UNL     1      50.399   6.328  16.611  0.00  0.00    +0.000 C 
ATOM      6  C   UNL     1      50.251   6.204  18.126  0.00  0.00    +0.000 C 
ENDROOT
BRANCH   1   7
ATOM      7  C   UNL     1      47.793   5.372  18.120  0.00  0.00    +0.000 C 
BRANCH   7   8
ATOM      8  N   UNL     1      46.496   5.521  18.785  0.00  0.00    +0.000 NA
ATOM      9  H   UNL     1      46.610   5.566  19.796  0.00  0.00    +0.000 HD
ATOM     10  H   UNL     1      45.909   4.710  18.595  0.00  0.00    +0.000 HD
ENDBRANCH   7   8
BRANCH   7  11
ATOM     11  C   UNL     1      48.335   3.954  18.407  0.00  0.00    +0.000 C 
BRANCH  11  12
ATOM     12  C   UNL     1      47.789   2.865  17.486  0.00  0.00    +0.000 C 
BRANCH  12  13
ATOM     13  O   UNL     1      46.367   2.821  17.593  0.00  0.00    +0.000 OA
ATOM     14  H   UNL     1      46.031   3.712  17.401  0.00  0.00    +0.000 HD
ENDBRANCH  12  13
ENDBRANCH  11  12
ENDBRANCH   7  11
ENDBRANCH   1   7
BRANCH   4  15
ATOM     15  C   UNL     1      49.983   7.557  14.607  0.00  0.00    +0.000 C 
BRANCH  15  16
ATOM     16  N   UNL     1      48.642   7.743  14.063  0.00  0.00    +0.000 N 
ATOM     17  C   UNL     1      48.126   8.928  13.594  0.00  0.00    +0.000 A 
ATOM     18  C   UNL     1      46.903   8.663  13.014  0.00  0.00    +0.000 A 
ATOM     19  C   UNL     1      46.674   7.265  13.116  0.00  0.00    +0.000 A 
ATOM     20  C   UNL     1      45.668   6.384  12.688  0.00  0.00    +0.000 A 
ATOM     21  C   UNL     1      45.819   5.020  12.965  0.00  0.00    +0.000 A 
ATOM     22  C   UNL     1      46.945   4.617  13.676  0.00  0.00    +0.000 A 
ATOM     23  N   UNL     1      47.944   5.419  14.110  0.00  0.00    +0.000 NA
ATOM     24  C   UNL     1      47.760   6.718  13.794  0.00  0.00    +0.000 A 
BRANCH  21  25
ATOM     25  C   UNL     1      44.836   3.994  12.498  0.00  0.00    +0.000 C 
ATOM     26  F   UNL     1      45.336   2.729  12.474  0.00  0.00    +0.000 F 
ATOM     27  F   UNL     1      43.729   3.940  13.291  0.00  0.00    +0.000 F 
ATOM     28  F   UNL     1      44.378   4.239  11.239  0.00  0.00    +0.000 F 
ENDBRANCH  21  25
ENDBRANCH  15  16
ENDBRANCH   4  15
TORSDOF 8
ENDMDL
MODEL 5
REMARK VINA RESULT:    -6.213      4.830      6.510
REMARK INTER + INTRA:          -9.186
REMARK INTER:                  -8.938
REMARK INTRA:                  -0.248
REMARK UNBOUND:                -0.430
REMARK  Name = 
REMARK  8 active torsions:
REMARK  status: ('A' for Active; 'I' for Inactive)
REMARK    1  A    between atoms: N_1  and  C_2
REMARK    2  A    between atoms: C_2  and  C_3
REMARK    3  A    between atoms: C_2  and  C_6
REMARK    4  A    between atoms: C_3  and  C_4
REMARK    5  A    between atoms: C_4  and  O_5
REMARK    6  A    between atoms: N_9  and  C_10
REMARK    7  A    between atoms: C_10  and  N_11
REMARK    8  A    between atoms: C_16  and  C_17
REMARK                            x       y       z     vdW  Elec       q    Type
REMARK                         _______ _______ _______ _____ _____    ______ ____
ROOT
ATOM      1  C   UNL     1      49.297   4.041  17.738  0.00  0.00    +0.000 C 
ATOM      2  C   UNL     1      47.871   4.153  17.167  0.00  0.00    +0.000 C 
ATOM      3  C   UNL     1      47.840   4.805  15.784  0.00  0.00    +0.000 C 
ATOM      4  N   UNL     1      48.511   6.115  15.733  0.00  0.00    +0.000 NA
ATOM      5  C   UNL     1      49.843   6.104  16.362  0.00  0.00    +0.000 C 
ATOM      6  C   UNL     1      49.849   5.479  17.756  0.00  0.00    +0.000 C 
ENDROOT
BRANCH   1   7
ATOM      7  C   UNL     1      50.222   3.030  16.985  0.00  0.00    +0.000 C 
BRANCH   7   8
ATOM      8  N   UNL     1      49.487   1.832  16.574  0.00  0.00    +0.000 NA
ATOM      9  H   UNL     1      48.943   1.456  17.349  0.00  0.00    +0.000 HD
ATOM     10  H   UNL     1      50.137   1.098  16.295  0.00  0.00    +0.000 HD
ENDBRANCH   7   8
BRANCH   7  11
ATOM     11  C   UNL     1      51.418   2.599  17.863  0.00  0.00    +0.000 C 
BRANCH  11  12
ATOM     12  C   UNL     1      52.079   1.288  17.440  0.00  0.00    +0.000 C 
BRANCH  12  13
ATOM     13  O   UNL     1      51.511   0.209  18.180  0.00  0.00    +0.000 OA
ATOM     14  H   UNL     1      52.201  -0.140  18.767  0.00  0.00    +0.000 HD
ENDBRANCH  12  13
ENDBRANCH  11  12
ENDBRANCH   7  11
ENDBRANCH   1   7
BRANCH   4  15
ATOM     15  C   UNL     1      48.679   6.562  14.329  0.00  0.00    +0.000 C 
BRANCH  15  16
ATOM     16  N   UNL     1      47.437   7.120  13.805  0.00  0.00    +0.000 N 
ATOM     17  C   UNL     1      47.150   8.460  13.683  0.00  0.00    +0.000 A 
ATOM     18  C   UNL     1      45.960   8.582  12.998  0.00  0.00    +0.000 A 
ATOM     19  C   UNL     1      45.514   7.273  12.674  0.00  0.00    +0.000 A 
ATOM     20  C   UNL     1      44.430   6.735  11.963  0.00  0.00    +0.000 A 
ATOM     21  C   UNL     1      44.349   5.342  11.833  0.00  0.00    +0.000 A 
ATOM     22  C   UNL     1      45.331   4.569  12.443  0.00  0.00    +0.000 A 
ATOM     23  N   UNL     1      46.395   5.033  13.137  0.00  0.00    +0.000 NA
ATOM     24  C   UNL     1      46.439   6.379  13.209  0.00  0.00    +0.000 A 
BRANCH  21  25
ATOM     25  C   UNL     1      43.269   4.674  11.043  0.00  0.00    +0.000 C 
ATOM     26  F   UNL     1      43.087   3.364  11.365  0.00  0.00    +0.000 F 
ATOM     27  F   UNL     1      42.055   5.270  11.218  0.00  0.00    +0.000 F 
ATOM     28  F   UNL     1      43.504   4.700   9.702  0.00  0.00    +0.000 F 
ENDBRANCH  21  25
ENDBRANCH  15  16
ENDBRANCH   4  15
TORSDOF 8
ENDMDL
MODEL 6
REMARK VINA RESULT:    -5.939      5.836      8.570
REMARK INTER + INTRA:          -8.799
REMARK INTER:                  -8.013
REMARK INTRA:                  -0.786
REMARK UNBOUND:                -0.430
REMARK  Name = 
REMARK  8 active torsions:
REMARK  status: ('A' for Active; 'I' for Inactive)
REMARK    1  A    between atoms: N_1  and  C_2
REMARK    2  A    between atoms: C_2  and  C_3
REMARK    3  A    between atoms: C_2  and  C_6
REMARK    4  A    between atoms: C_3  and  C_4
REMARK    5  A    between atoms: C_4  and  O_5
REMARK    6  A    between atoms: N_9  and  C_10
REMARK    7  A    between atoms: C_10  and  N_11
REMARK    8  A    between atoms: C_16  and  C_17
REMARK                            x       y       z     vdW  Elec       q    Type
REMARK                         _______ _______ _______ _____ _____    ______ ____
ROOT
ATOM      1  C   UNL     1      44.989   6.138  11.308  0.00  0.00    +0.000 C 
ATOM      2  C   UNL     1      46.292   6.812  11.774  0.00  0.00    +0.000 C 
ATOM      3  C   UNL     1      47.146   5.901  12.656  0.00  0.00    +0.000 C 
ATOM      4  N   UNL     1      46.419   5.348  13.811  0.00  0.00    +0.000 NA
ATOM      5  C   UNL     1      45.109   4.779  13.449  0.00  0.00    +0.000 C 
ATOM      6  C   UNL     1      44.257   5.717  12.596  0.00  0.00    +0.000 C 
ENDROOT
BRANCH   1   7
ATOM      7  C   UNL     1      45.192   4.961  10.297  0.00  0.00    +0.000 C 
BRANCH   7   8
ATOM      8  N   UNL     1      45.632   5.448   8.987  0.00  0.00    +0.000 NA
ATOM      9  H   UNL     1      45.002   6.167   8.636  0.00  0.00    +0.000 HD
ATOM     10  H   UNL     1      45.613   4.690   8.305  0.00  0.00    +0.000 HD
ENDBRANCH   7   8
BRANCH   7  11
ATOM     11  C   UNL     1      43.891   4.149  10.110  0.00  0.00    +0.000 C 
BRANCH  11  12
ATOM     12  C   UNL     1      44.101   2.654   9.873  0.00  0.00    +0.000 C 
BRANCH  12  13
ATOM     13  O   UNL     1      45.499   2.375   9.812  0.00  0.00    +0.000 OA
ATOM     14  H   UNL     1      45.894   2.669  10.650  0.00  0.00    +0.000 HD
ENDBRANCH  12  13
ENDBRANCH  11  12
ENDBRANCH   7  11
ENDBRANCH   1   7
BRANCH   4  15
ATOM     15  C   UNL     1      47.211   4.277  14.463  0.00  0.00    +0.000 C 
BRANCH  15  16
ATOM     16  N   UNL     1      47.523   4.624  15.846  0.00  0.00    +0.000 N 
ATOM     17  C   UNL     1      46.997   4.017  16.962  0.00  0.00    +0.000 A 
ATOM     18  C   UNL     1      47.659   4.508  18.068  0.00  0.00    +0.000 A 
ATOM     19  C   UNL     1      48.635   5.432  17.609  0.00  0.00    +0.000 A 
ATOM     20  C   UNL     1      49.635   6.210  18.214  0.00  0.00    +0.000 A 
ATOM     21  C   UNL     1      50.445   7.003  17.392  0.00  0.00    +0.000 A 
ATOM     22  C   UNL     1      50.194   6.998  16.024  0.00  0.00    +0.000 A 
ATOM     23  N   UNL     1      49.249   6.268  15.389  0.00  0.00    +0.000 NA
ATOM     24  C   UNL     1      48.515   5.504  16.224  0.00  0.00    +0.000 A 
BRANCH  21  25
ATOM     25  C   UNL     1      51.577   7.819  17.931  0.00  0.00    +0.000 C 
ATOM     26  F   UNL     1      51.775   8.987  17.262  0.00  0.00    +0.000 F 
ATOM     27  F   UNL     1      51.388   8.167  19.236  0.00  0.00    +0.000 F 
ATOM     28  F   UNL     1      52.767   7.159  17.893  0.00  0.00    +0.000 F 
ENDBRANCH  21  25
ENDBRANCH  15  16
ENDBRANCH   4  15
TORSDOF 8
ENDMDL
MODEL 7
REMARK VINA RESULT:    -5.559      6.356      8.575
REMARK INTER + INTRA:          -8.264
REMARK INTER:                  -7.509
REMARK INTRA:                  -0.755
REMARK UNBOUND:                -0.430
REMARK  Name = 
REMARK  8 active torsions:
REMARK  status: ('A' for Active; 'I' for Inactive)
REMARK    1  A    between atoms: N_1  and  C_2
REMARK    2  A    between atoms: C_2  and  C_3
REMARK    3  A    between atoms: C_2  and  C_6
REMARK    4  A    between atoms: C_3  and  C_4
REMARK    5  A    between atoms: C_4  and  O_5
REMARK    6  A    between atoms: N_9  and  C_10
REMARK    7  A    between atoms: C_10  and  N_11
REMARK    8  A    between atoms: C_16  and  C_17
REMARK                            x       y       z     vdW  Elec       q    Type
REMARK                         _______ _______ _______ _____ _____    ______ ____
ROOT
ATOM      1  C   UNL     1      46.423   6.287  12.185  0.00  0.00    +0.000 C 
ATOM      2  C   UNL     1      46.128   4.846  12.640  0.00  0.00    +0.000 C 
ATOM      3  C   UNL     1      46.310   4.654  14.147  0.00  0.00    +0.000 C 
ATOM      4  N   UNL     1      47.630   5.082  14.641  0.00  0.00    +0.000 NA
ATOM      5  C   UNL     1      48.023   6.416  14.153  0.00  0.00    +0.000 C 
ATOM      6  C   UNL     1      47.865   6.578  12.642  0.00  0.00    +0.000 C 
ENDROOT
BRANCH   1   7
ATOM      7  C   UNL     1      45.389   7.350  12.681  0.00  0.00    +0.000 C 
BRANCH   7   8
ATOM      8  N   UNL     1      44.166   7.327  11.874  0.00  0.00    +0.000 NA
ATOM      9  H   UNL     1      44.153   8.101  11.213  0.00  0.00    +0.000 HD
ATOM     10  H   UNL     1      43.348   7.444  12.471  0.00  0.00    +0.000 HD
ENDBRANCH   7   8
BRANCH   7  11
ATOM     11  C   UNL     1      45.982   8.776  12.637  0.00  0.00    +0.000 C 
BRANCH  11  12
ATOM     12  C   UNL     1      45.184   9.773  11.799  0.00  0.00    +0.000 C 
BRANCH  12  13
ATOM     13  O   UNL     1      44.075  10.253  12.560  0.00  0.00    +0.000 OA
ATOM     14  H   UNL     1      44.081  11.223  12.507  0.00  0.00    +0.000 HD
ENDBRANCH  12  13
ENDBRANCH  11  12
ENDBRANCH   7  11
ENDBRANCH   1   7
BRANCH   4  15
ATOM     15  C   UNL     1      47.646   5.122  16.123  0.00  0.00    +0.000 C 
BRANCH  15  16
ATOM     16  N   UNL     1      48.463   4.043  16.667  0.00  0.00    +0.000 N 
ATOM     17  C   UNL     1      48.110   2.714  16.711  0.00  0.00    +0.000 A 
ATOM     18  C   UNL     1      49.206   1.994  17.138  0.00  0.00    +0.000 A 
ATOM     19  C   UNL     1      50.269   2.913  17.345  0.00  0.00    +0.000 A 
ATOM     20  C   UNL     1      51.618   2.810  17.720  0.00  0.00    +0.000 A 
ATOM     21  C   UNL     1      52.378   3.984  17.788  0.00  0.00    +0.000 A 
ATOM     22  C   UNL     1      51.746   5.191  17.510  0.00  0.00    +0.000 A 
ATOM     23  N   UNL     1      50.453   5.348  17.142  0.00  0.00    +0.000 NA
ATOM     24  C   UNL     1      49.775   4.185  17.068  0.00  0.00    +0.000 A 
BRANCH  21  25
ATOM     25  C   UNL     1      53.837   3.975  18.117  0.00  0.00    +0.000 C 
ATOM     26  F   UNL     1      54.285   2.777  18.582  0.00  0.00    +0.000 F 
ATOM     27  F   UNL     1      54.614   4.266  17.035  0.00  0.00    +0.000 F 
ATOM     28  F   UNL     1      54.169   4.892  19.068  0.00  0.00    +0.000 F 
ENDBRANCH  21  25
ENDBRANCH  15  16
ENDBRANCH   4  15
TORSDOF 8
ENDMDL
MODEL 8
REMARK VINA RESULT:    -5.223      4.333      5.742
REMARK INTER + INTRA:          -7.791
REMARK INTER:                  -8.793
REMARK INTRA:                   1.002
REMARK UNBOUND:                -0.430
REMARK  Name = 
REMARK  8 active torsions:
REMARK  status: ('A' for Active; 'I' for Inactive)
REMARK    1  A    between atoms: N_1  and  C_2
REMARK    2  A    between atoms: C_2  and  C_3
REMARK    3  A    between atoms: C_2  and  C_6
REMARK    4  A    between atoms: C_3  and  C_4
REMARK    5  A    between atoms: C_4  and  O_5
REMARK    6  A    between atoms: N_9  and  C_10
REMARK    7  A    between atoms: C_10  and  N_11
REMARK    8  A    between atoms: C_16  and  C_17
REMARK                            x       y       z     vdW  Elec       q    Type
REMARK                         _______ _______ _______ _____ _____    ______ ____
ROOT
ATOM      1  C   UNL     1      49.750   5.351  18.638  0.00  0.00    +0.000 C 
ATOM      2  C   UNL     1      48.261   5.074  18.914  0.00  0.00    +0.000 C 
ATOM      3  C   UNL     1      47.551   4.429  17.722  0.00  0.00    +0.000 C 
ATOM      4  N   UNL     1      47.704   5.182  16.466  0.00  0.00    +0.000 NA
ATOM      5  C   UNL     1      49.097   5.574  16.195  0.00  0.00    +0.000 C 
ATOM      6  C   UNL     1      49.779   6.246  17.385  0.00  0.00    +0.000 C 
ENDROOT
BRANCH   1   7
ATOM      7  C   UNL     1      50.637   4.069  18.507  0.00  0.00    +0.000 C 
BRANCH   7   8
ATOM      8  N   UNL     1      51.729   4.268  17.550  0.00  0.00    +0.000 NA
ATOM      9  H   UNL     1      51.385   4.228  16.593  0.00  0.00    +0.000 HD
ATOM     10  H   UNL     1      52.417   3.521  17.641  0.00  0.00    +0.000 HD
ENDBRANCH   7   8
BRANCH   7  11
ATOM     11  C   UNL     1      49.802   2.850  18.056  0.00  0.00    +0.000 C 
BRANCH  11  12
ATOM     12  C   UNL     1      50.496   1.941  17.043  0.00  0.00    +0.000 C 
BRANCH  12  13
ATOM     13  O   UNL     1      49.637   1.735  15.922  0.00  0.00    +0.000 OA
ATOM     14  H   UNL     1      49.929   2.334  15.215  0.00  0.00    +0.000 HD
ENDBRANCH  12  13
ENDBRANCH  11  12
ENDBRANCH   7  11
ENDBRANCH   1   7
BRANCH   4  15
ATOM     15  C   UNL     1      47.228   4.378  15.314  0.00  0.00    +0.000 C 
BRANCH  15  16
ATOM     16  N   UNL     1      46.946   5.228  14.163  0.00  0.00    +0.000 N 
ATOM     17  C   UNL     1      47.451   6.491  13.957  0.00  0.00    +0.000 A 
ATOM     18  C   UNL     1      47.089   6.895  12.689  0.00  0.00    +0.000 A 
ATOM     19  C   UNL     1      46.354   5.835  12.094  0.00  0.00    +0.000 A 
ATOM     20  C   UNL     1      45.768   5.609  10.838  0.00  0.00    +0.000 A 
ATOM     21  C   UNL     1      45.131   4.382  10.616  0.00  0.00    +0.000 A 
ATOM     22  C   UNL     1      45.088   3.467  11.663  0.00  0.00    +0.000 A 
ATOM     23  N   UNL     1      45.635   3.631  12.890  0.00  0.00    +0.000 NA
ATOM     24  C   UNL     1      46.258   4.818  13.041  0.00  0.00    +0.000 A 
BRANCH  21  25
ATOM     25  C   UNL     1      44.531   4.019   9.295  0.00  0.00    +0.000 C 
ATOM     26  F   UNL     1      44.167   2.711   9.201  0.00  0.00    +0.000 F 
ATOM     27  F   UNL     1      43.405   4.737   9.023  0.00  0.00    +0.000 F 
ATOM     28  F   UNL     1      45.377   4.247   8.252  0.00  0.00    +0.000 F 
ENDBRANCH  21  25
ENDBRANCH  15  16
ENDBRANCH   4  15
TORSDOF 8
ENDMDL
MODEL 9
REMARK VINA RESULT:    -4.846      5.608      8.522
REMARK INTER + INTRA:          -7.260
REMARK INTER:                  -6.781
REMARK INTRA:                  -0.478
REMARK UNBOUND:                -0.430
REMARK  Name = 
REMARK  8 active torsions:
REMARK  status: ('A' for Active; 'I' for Inactive)
REMARK    1  A    between atoms: N_1  and  C_2
REMARK    2  A    between atoms: C_2  and  C_3
REMARK    3  A    between atoms: C_2  and  C_6
REMARK    4  A    between atoms: C_3  and  C_4
REMARK    5  A    between atoms: C_4  and  O_5
REMARK    6  A    between atoms: N_9  and  C_10
REMARK    7  A    between atoms: C_10  and  N_11
REMARK    8  A    between atoms: C_16  and  C_17
REMARK                            x       y       z     vdW  Elec       q    Type
REMARK                         _______ _______ _______ _____ _____    ______ ____
ROOT
ATOM      1  C   UNL     1      45.411   6.613  11.791  0.00  0.00    +0.000 C 
ATOM      2  C   UNL     1      46.914   6.278  11.780  0.00  0.00    +0.000 C 
ATOM      3  C   UNL     1      47.637   6.775  13.033  0.00  0.00    +0.000 C 
ATOM      4  N   UNL     1      47.438   8.210  13.299  0.00  0.00    +0.000 NA
ATOM      5  C   UNL     1      46.026   8.620  13.219  0.00  0.00    +0.000 C 
ATOM      6  C   UNL     1      45.329   8.143  11.946  0.00  0.00    +0.000 C 
ENDROOT
BRANCH   1   7
ATOM      7  C   UNL     1      44.579   5.835  12.863  0.00  0.00    +0.000 C 
BRANCH   7   8
ATOM      8  N   UNL     1      45.234   4.582  13.246  0.00  0.00    +0.000 NA
ATOM      9  H   UNL     1      45.974   4.752  13.925  0.00  0.00    +0.000 HD
ATOM     10  H   UNL     1      45.678   4.154  12.435  0.00  0.00    +0.000 HD
ENDBRANCH   7   8
BRANCH   7  11
ATOM     11  C   UNL     1      43.158   5.512  12.348  0.00  0.00    +0.000 C 
BRANCH  11  12
ATOM     12  C   UNL     1      43.004   4.123  11.732  0.00  0.00    +0.000 C 
BRANCH  12  13
ATOM     13  O   UNL     1      43.768   4.049  10.528  0.00  0.00    +0.000 OA
ATOM     14  H   UNL     1      43.260   3.521   9.890  0.00  0.00    +0.000 HD
ENDBRANCH  12  13
ENDBRANCH  11  12
ENDBRANCH   7  11
ENDBRANCH   1   7
BRANCH   4  15
ATOM     15  C   UNL     1      47.935   8.564  14.651  0.00  0.00    +0.000 C 
BRANCH  15  16
ATOM     16  N   UNL     1      49.307   8.106  14.842  0.00  0.00    +0.000 N 
ATOM     17  C   UNL     1      50.434   8.733  14.362  0.00  0.00    +0.000 A 
ATOM     18  C   UNL     1      51.536   8.093  14.890  0.00  0.00    +0.000 A 
ATOM     19  C   UNL     1      51.065   7.052  15.734  0.00  0.00    +0.000 A 
ATOM     20  C   UNL     1      51.665   6.101  16.574  0.00  0.00    +0.000 A 
ATOM     21  C   UNL     1      50.832   5.232  17.291  0.00  0.00    +0.000 A 
ATOM     22  C   UNL     1      49.457   5.342  17.108  0.00  0.00    +0.000 A 
ATOM     23  N   UNL     1      48.827   6.239  16.315  0.00  0.00    +0.000 NA
ATOM     24  C   UNL     1      49.674   7.066  15.669  0.00  0.00    +0.000 A 
BRANCH  21  25
ATOM     25  C   UNL     1      51.369   4.226  18.258  0.00  0.00    +0.000 C 
ATOM     26  F   UNL     1      52.710   4.021  18.146  0.00  0.00    +0.000 F 
ATOM     27  F   UNL     1      51.158   4.589  19.555  0.00  0.00    +0.000 F 
ATOM     28  F   UNL     1      50.792   3.000  18.118  0.00  0.00    +0.000 F 
ENDBRANCH  21  25
ENDBRANCH  15  16
ENDBRANCH   4  15
TORSDOF 8
ENDMDL
