MODEL 1
REMARK VINA RESULT:    -7.918      0.000      0.000
REMARK INTER + INTRA:         -10.186
REMARK INTER:                  -9.770
REMARK INTRA:                  -0.416
REMARK UNBOUND:                -0.416
REMARK  Name = 
REMARK  4 active torsions:
REMARK  status: ('A' for Active; 'I' for Inactive)
REMARK    1  A    between atoms: C_2  and  C_4
REMARK    2  A    between atoms: N_8  and  C_9
REMARK    3  A    between atoms: C_9  and  C_10
REMARK    4  A    between atoms: C_13  and  C_14
REMARK                            x       y       z     vdW  Elec       q    Type
REMARK                         _______ _______ _______ _____ _____    ______ ____
ROOT
ATOM      1  C   UNL     1      46.425   2.759   7.585  0.00  0.00    +0.000 A 
ATOM      2  C   UNL     1      46.139   4.050   7.957  0.00  0.00    +0.000 A 
ATOM      3  N   UNL     1      45.387   4.366   9.034  0.00  0.00    +0.000 NA
ATOM      4  C   UNL     1      44.900   3.347   9.765  0.00  0.00    +0.000 A 
ATOM      5  N   UNL     1      44.090   3.586  10.871  0.00  0.00    +0.000 N 
ATOM      6  N   UNL     1      45.130   2.055   9.482  0.00  0.00    +0.000 NA
ATOM      7  C   UNL     1      45.873   1.786   8.384  0.00  0.00    +0.000 A 
ATOM      8  H   UNL     1      44.059   2.745  11.434  0.00  0.00    +0.000 HD
ENDROOT
BRANCH   1  10
ATOM      9  N   UNL     1      47.176   3.238   5.329  0.00  0.00    +0.000 N 
ATOM     10  C   UNL     1      47.219   2.397   6.404  0.00  0.00    +0.000 C 
ATOM     11  O   UNL     1      47.915   1.391   6.398  0.00  0.00    +0.000 OA
ATOM     12  H   UNL     1      47.804   3.016   4.565  0.00  0.00    +0.000 HD
ATOM     13  H   UNL     1      46.828   4.186   5.372  0.00  0.00    +0.000 HD
ENDBRANCH   1  10
BRANCH   5  14
ATOM     14  C   UNL     1      43.953   4.907  11.489  0.00  0.00    +0.000 C 
ATOM     15  C   UNL     1      42.601   5.185  12.128  0.00  0.00    +0.000 C 
ATOM     16  C   UNL     1      43.006   5.936  10.904  0.00  0.00    +0.000 C 
BRANCH  14  17
ATOM     17  C   UNL     1      45.215   5.400  12.182  0.00  0.00    +0.000 A 
ATOM     18  C   UNL     1      45.881   6.569  11.799  0.00  0.00    +0.000 A 
ATOM     19  C   UNL     1      46.984   7.036  12.519  0.00  0.00    +0.000 A 
ATOM     20  C   UNL     1      47.420   6.326  13.637  0.00  0.00    +0.000 A 
ATOM     21  N   UNL     1      46.819   5.164  14.016  0.00  0.00    +0.000 NA
ATOM     22  C   UNL     1      45.752   4.742  13.289  0.00  0.00    +0.000 A 
BRANCH  20  23
ATOM     23  C   UNL     1      48.565   6.870  14.483  0.00  0.00    +0.000 C 
ATOM     24  F   UNL     1      48.297   8.097  15.026  0.00  0.00    +0.000 F 
ATOM     25  F   UNL     1      48.871   6.069  15.545  0.00  0.00    +0.000 F 
ATOM     26  F   UNL     1      49.725   7.032  13.785  0.00  0.00    +0.000 F 
ENDBRANCH  20  23
ENDBRANCH  14  17
ENDBRANCH   5  14
TORSDOF 4
ENDMDL
MODEL 2
REMARK VINA RESULT:    -7.843      4.343      7.180
REMARK INTER + INTRA:         -10.092
REMARK INTER:                 -10.018
REMARK INTRA:                  -0.074
REMARK UNBOUND:                -0.416
REMARK  Name = 
REMARK  4 active torsions:
REMARK  status: ('A' for Active; 'I' for Inactive)
REMARK    1  A    between atoms: C_2  and  C_4
REMARK    2  A    between atoms: N_8  and  C_9
REMARK    3  A    between atoms: C_9  and  C_10
REMARK    4  A    between atoms: C_13  and  C_14
REMARK                            x       y       z     vdW  Elec       q    Type
REMARK                         _______ _______ _______ _____ _____    ______ ____
ROOT
ATOM      1  C   UNL     1      47.533   5.158  15.067  0.00  0.00    +0.000 A 
ATOM      2  C   UNL     1      46.529   4.296  14.699  0.00  0.00    +0.000 A 
ATOM      3  N   UNL     1      45.786   4.452  13.581  0.00  0.00    +0.000 NA
ATOM      4  C   UNL     1      46.058   5.515  12.804  0.00  0.00    +0.000 A 
ATOM      5  N   UNL     1      45.318   5.766  11.653  0.00  0.00    +0.000 N 
ATOM      6  N   UNL     1      47.023   6.408  13.080  0.00  0.00    +0.000 NA
ATOM      7  C   UNL     1      47.729   6.222  14.219  0.00  0.00    +0.000 A 
ATOM      8  H   UNL     1      45.834   6.419  11.075  0.00  0.00    +0.000 HD
ENDROOT
BRANCH   1  10
ATOM      9  N   UNL     1      48.316   6.054  17.181  0.00  0.00    +0.000 N 
ATOM     10  C   UNL     1      48.333   5.018  16.291  0.00  0.00    +0.000 C 
ATOM     11  O   UNL     1      48.968   3.997  16.514  0.00  0.00    +0.000 OA
ATOM     12  H   UNL     1      48.798   5.894  18.059  0.00  0.00    +0.000 HD
ATOM     13  H   UNL     1      47.627   6.793  17.168  0.00  0.00    +0.000 HD
ENDBRANCH   1  10
BRANCH   5  14
ATOM     14  C   UNL     1      44.422   4.777  11.050  0.00  0.00    +0.000 C 
ATOM     15  C   UNL     1      42.953   5.171  11.014  0.00  0.00    +0.000 C 
ATOM     16  C   UNL     1      43.395   4.051  11.895  0.00  0.00    +0.000 C 
BRANCH  14  17
ATOM     17  C   UNL     1      45.021   4.046   9.857  0.00  0.00    +0.000 A 
ATOM     18  C   UNL     1      45.638   4.712   8.793  0.00  0.00    +0.000 A 
ATOM     19  C   UNL     1      46.256   4.000   7.761  0.00  0.00    +0.000 A 
ATOM     20  C   UNL     1      46.259   2.606   7.799  0.00  0.00    +0.000 A 
ATOM     21  N   UNL     1      45.635   1.925   8.801  0.00  0.00    +0.000 NA
ATOM     22  C   UNL     1      45.044   2.653   9.783  0.00  0.00    +0.000 A 
BRANCH  20  23
ATOM     23  C   UNL     1      47.005   1.819   6.728  0.00  0.00    +0.000 C 
ATOM     24  F   UNL     1      46.662   2.185   5.456  0.00  0.00    +0.000 F 
ATOM     25  F   UNL     1      48.359   1.980   6.794  0.00  0.00    +0.000 F 
ATOM     26  F   UNL     1      46.780   0.475   6.789  0.00  0.00    +0.000 F 
ENDBRANCH  20  23
ENDBRANCH  14  17
ENDBRANCH   5  14
TORSDOF 4
ENDMDL
MODEL 3
REMARK VINA RESULT:    -7.598      4.420      7.073
REMARK INTER + INTRA:          -9.790
REMARK INTER:                  -9.865
REMARK INTRA:                   0.075
REMARK UNBOUND:                -0.416
REMARK  Name = 
REMARK  4 active torsions:
REMARK  status: ('A' for Active; 'I' for Inactive)
REMARK    1  A    between atoms: C_2  and  C_4
REMARK    2  A    between atoms: N_8  and  C_9
REMARK    3  A    between atoms: C_9  and  C_10
REMARK    4  A    between atoms: C_13  and  C_14
REMARK                            x       y       z     vdW  Elec       q    Type
REMARK                         _______ _______ _______ _____ _____    ______ ____
ROOT
ATOM      1  C   UNL     1      46.837   7.897  13.096  0.00  0.00    +0.000 A 
ATOM      2  C   UNL     1      46.885   6.531  13.221  0.00  0.00    +0.000 A 
ATOM      3  N   UNL     1      46.016   5.695  12.610  0.00  0.00    +0.000 NA
ATOM      4  C   UNL     1      45.060   6.253  11.846  0.00  0.00    +0.000 A 
ATOM      5  N   UNL     1      44.106   5.465  11.209  0.00  0.00    +0.000 N 
ATOM      6  N   UNL     1      44.937   7.577  11.661  0.00  0.00    +0.000 NA
ATOM      7  C   UNL     1      45.818   8.375  12.306  0.00  0.00    +0.000 A 
ATOM      8  H   UNL     1      43.665   6.018  10.484  0.00  0.00    +0.000 HD
ENDROOT
BRANCH   1  10
ATOM      9  N   UNL     1      47.512   9.112  15.084  0.00  0.00    +0.000 N 
ATOM     10  C   UNL     1      47.756   8.821  13.772  0.00  0.00    +0.000 C 
ATOM     11  O   UNL     1      48.723   9.289  13.185  0.00  0.00    +0.000 OA
ATOM     12  H   UNL     1      48.213   9.675  15.553  0.00  0.00    +0.000 HD
ATOM     13  H   UNL     1      46.894   8.571  15.672  0.00  0.00    +0.000 HD
ENDBRANCH   1  10
BRANCH   5  14
ATOM     14  C   UNL     1      44.235   4.013  11.071  0.00  0.00    +0.000 C 
ATOM     15  C   UNL     1      43.052   3.206  11.588  0.00  0.00    +0.000 C 
ATOM     16  C   UNL     1      44.363   3.130  12.297  0.00  0.00    +0.000 C 
BRANCH  14  17
ATOM     17  C   UNL     1      44.927   3.572   9.790  0.00  0.00    +0.000 A 
ATOM     18  C   UNL     1      45.385   4.478   8.826  0.00  0.00    +0.000 A 
ATOM     19  C   UNL     1      46.097   4.037   7.707  0.00  0.00    +0.000 A 
ATOM     20  C   UNL     1      46.357   2.676   7.555  0.00  0.00    +0.000 A 
ATOM     21  N   UNL     1      45.894   1.763   8.454  0.00  0.00    +0.000 NA
ATOM     22  C   UNL     1      45.204   2.230   9.526  0.00  0.00    +0.000 A 
BRANCH  20  23
ATOM     23  C   UNL     1      47.208   2.191   6.387  0.00  0.00    +0.000 C 
ATOM     24  F   UNL     1      48.535   2.489   6.528  0.00  0.00    +0.000 F 
ATOM     25  F   UNL     1      47.162   0.837   6.220  0.00  0.00    +0.000 F 
ATOM     26  F   UNL     1      46.843   2.732   5.190  0.00  0.00    +0.000 F 
ENDBRANCH  20  23
ENDBRANCH  14  17
ENDBRANCH   5  14
TORSDOF 4
ENDMDL
MODEL 4
REMARK VINA RESULT:    -6.853      4.446      7.079
REMARK INTER + INTRA:          -8.871
REMARK INTER:                  -9.389
REMARK INTRA:                   0.518
REMARK UNBOUND:                -0.416
REMARK  Name = 
REMARK  4 active torsions:
REMARK  status: ('A' for Active; 'I' for Inactive)
REMARK    1  A    between atoms: C_2  and  C_4
REMARK    2  A    between atoms: N_8  and  C_9
REMARK    3  A    between atoms: C_9  and  C_10
REMARK    4  A    between atoms: C_13  and  C_14
REMARK                            x       y       z     vdW  Elec       q    Type
REMARK                         _______ _______ _______ _____ _____    ______ ____
ROOT
ATOM      1  C   UNL     1      47.977   6.254  14.299  0.00  0.00    +0.000 A 
ATOM      2  C   UNL     1      47.597   6.477  12.998  0.00  0.00    +0.000 A 
ATOM      3  N   UNL     1      46.626   5.775  12.374  0.00  0.00    +0.000 NA
ATOM      4  C   UNL     1      46.014   4.809  13.082  0.00  0.00    +0.000 A 
ATOM      5  N   UNL     1      45.026   4.018  12.503  0.00  0.00    +0.000 N 
ATOM      6  N   UNL     1      46.314   4.521  14.358  0.00  0.00    +0.000 NA
ATOM      7  C   UNL     1      47.305   5.238  14.937  0.00  0.00    +0.000 A 
ATOM      8  H   UNL     1      44.508   3.559  13.243  0.00  0.00    +0.000 HD
ENDROOT
BRANCH   1  10
ATOM      9  N   UNL     1      50.205   7.214  14.295  0.00  0.00    +0.000 N 
ATOM     10  C   UNL     1      49.047   6.989  14.984  0.00  0.00    +0.000 C 
ATOM     11  O   UNL     1      48.892   7.411  16.122  0.00  0.00    +0.000 OA
ATOM     12  H   UNL     1      50.889   7.804  14.754  0.00  0.00    +0.000 HD
ATOM     13  H   UNL     1      50.289   7.114  13.293  0.00  0.00    +0.000 HD
ENDBRANCH   1  10
BRANCH   5  14
ATOM     14  C   UNL     1      44.381   4.351  11.231  0.00  0.00    +0.000 C 
ATOM     15  C   UNL     1      43.755   5.736  11.166  0.00  0.00    +0.000 C 
ATOM     16  C   UNL     1      42.877   4.529  11.153  0.00  0.00    +0.000 C 
BRANCH  14  17
ATOM     17  C   UNL     1      45.107   3.809  10.009  0.00  0.00    +0.000 A 
ATOM     18  C   UNL     1      45.188   2.443   9.720  0.00  0.00    +0.000 A 
ATOM     19  C   UNL     1      45.785   1.992   8.540  0.00  0.00    +0.000 A 
ATOM     20  C   UNL     1      46.303   2.921   7.638  0.00  0.00    +0.000 A 
ATOM     21  N   UNL     1      46.277   4.257   7.905  0.00  0.00    +0.000 NA
ATOM     22  C   UNL     1      45.690   4.655   9.063  0.00  0.00    +0.000 A 
BRANCH  20  23
ATOM     23  C   UNL     1      46.878   2.449   6.308  0.00  0.00    +0.000 C 
ATOM     24  F   UNL     1      46.911   1.087   6.189  0.00  0.00    +0.000 F 
ATOM     25  F   UNL     1      46.159   2.884   5.232  0.00  0.00    +0.000 F 
ATOM     26  F   UNL     1      48.161   2.860   6.096  0.00  0.00    +0.000 F 
ENDBRANCH  20  23
ENDBRANCH  14  17
ENDBRANCH   5  14
TORSDOF 4
ENDMDL
MODEL 5
REMARK VINA RESULT:    -5.916      4.671      6.818
REMARK INTER + INTRA:          -7.715
REMARK INTER:                  -8.042
REMARK INTRA:                   0.327
REMARK UNBOUND:                -0.416
REMARK  Name = 
REMARK  4 active torsions:
REMARK  status: ('A' for Active; 'I' for Inactive)
REMARK    1  A    between atoms: C_2  and  C_4
REMARK    2  A    between atoms: N_8  and  C_9
REMARK    3  A    between atoms: C_9  and  C_10
REMARK    4  A    between atoms: C_13  and  C_14
REMARK                            x       y       z     vdW  Elec       q    Type
REMARK                         _______ _______ _______ _____ _____    ______ ____
ROOT
ATOM      1  C   UNL     1      46.110   5.539  12.273  0.00  0.00    +0.000 A 
ATOM      2  C   UNL     1      46.859   6.234  13.192  0.00  0.00    +0.000 A 
ATOM      3  N   UNL     1      47.225   5.728  14.390  0.00  0.00    +0.000 NA
ATOM      4  C   UNL     1      46.823   4.477  14.679  0.00  0.00    +0.000 A 
ATOM      5  N   UNL     1      47.131   3.894  15.904  0.00  0.00    +0.000 N 
ATOM      6  N   UNL     1      46.094   3.721  13.843  0.00  0.00    +0.000 NA
ATOM      7  C   UNL     1      45.735   4.275  12.663  0.00  0.00    +0.000 A 
ATOM      8  H   UNL     1      46.995   2.893  15.827  0.00  0.00    +0.000 HD
ENDROOT
BRANCH   1  10
ATOM      9  N   UNL     1      44.855   7.169  10.989  0.00  0.00    +0.000 N 
ATOM     10  C   UNL     1      45.681   6.082  10.978  0.00  0.00    +0.000 C 
ATOM     11  O   UNL     1      46.076   5.592   9.929  0.00  0.00    +0.000 OA
ATOM     12  H   UNL     1      44.651   7.582  10.085  0.00  0.00    +0.000 HD
ATOM     13  H   UNL     1      44.708   7.754  11.800  0.00  0.00    +0.000 HD
ENDBRANCH   1  10
BRANCH   5  14
ATOM     14  C   UNL     1      48.130   4.447  16.822  0.00  0.00    +0.000 C 
ATOM     15  C   UNL     1      47.565   5.171  18.035  0.00  0.00    +0.000 C 
ATOM     16  C   UNL     1      48.284   5.947  16.982  0.00  0.00    +0.000 C 
BRANCH  14  17
ATOM     17  C   UNL     1      49.365   3.574  16.991  0.00  0.00    +0.000 A 
ATOM     18  C   UNL     1      50.540   4.033  17.595  0.00  0.00    +0.000 A 
ATOM     19  C   UNL     1      51.619   3.173  17.813  0.00  0.00    +0.000 A 
ATOM     20  C   UNL     1      51.518   1.837  17.425  0.00  0.00    +0.000 A 
ATOM     21  N   UNL     1      50.404   1.365  16.799  0.00  0.00    +0.000 NA
ATOM     22  C   UNL     1      49.377   2.233  16.603  0.00  0.00    +0.000 A 
BRANCH  20  23
ATOM     23  C   UNL     1      52.653   0.868  17.735  0.00  0.00    +0.000 C 
ATOM     24  F   UNL     1      52.247  -0.219  18.460  0.00  0.00    +0.000 F 
ATOM     25  F   UNL     1      53.235   0.352  16.614  0.00  0.00    +0.000 F 
ATOM     26  F   UNL     1      53.661   1.429  18.461  0.00  0.00    +0.000 F 
ENDBRANCH  20  23
ENDBRANCH  14  17
ENDBRANCH   5  14
TORSDOF 4
ENDMDL
MODEL 6
REMARK VINA RESULT:    -5.432      3.749      5.431
REMARK INTER + INTRA:          -7.117
REMARK INTER:                  -6.730
REMARK INTRA:                  -0.388
REMARK UNBOUND:                -0.416
REMARK  Name = 
REMARK  4 active torsions:
REMARK  status: ('A' for Active; 'I' for Inactive)
REMARK    1  A    between atoms: C_2  and  C_4
REMARK    2  A    between atoms: N_8  and  C_9
REMARK    3  A    between atoms: C_9  and  C_10
REMARK    4  A    between atoms: C_13  and  C_14
REMARK                            x       y       z     vdW  Elec       q    Type
REMARK                         _______ _______ _______ _____ _____    ______ ____
ROOT
ATOM      1  C   UNL     1      44.654   4.905  12.004  0.00  0.00    +0.000 A 
ATOM      2  C   UNL     1      46.010   4.815  12.203  0.00  0.00    +0.000 A 
ATOM      3  N   UNL     1      46.828   5.888  12.256  0.00  0.00    +0.000 NA
ATOM      4  C   UNL     1      46.266   7.100  12.100  0.00  0.00    +0.000 A 
ATOM      5  N   UNL     1      47.042   8.254  12.109  0.00  0.00    +0.000 N 
ATOM      6  N   UNL     1      44.950   7.287  11.905  0.00  0.00    +0.000 NA
ATOM      7  C   UNL     1      44.172   6.183  11.842  0.00  0.00    +0.000 A 
ATOM      8  H   UNL     1      46.434   9.050  12.257  0.00  0.00    +0.000 HD
ENDROOT
BRANCH   1  10
ATOM      9  N   UNL     1      44.108   2.617  12.596  0.00  0.00    +0.000 N 
ATOM     10  C   UNL     1      43.753   3.749  11.918  0.00  0.00    +0.000 C 
ATOM     11  O   UNL     1      42.708   3.810  11.284  0.00  0.00    +0.000 OA
ATOM     12  H   UNL     1      43.425   1.867  12.599  0.00  0.00    +0.000 HD
ATOM     13  H   UNL     1      44.811   2.596  13.321  0.00  0.00    +0.000 HD
ENDBRANCH   1  10
BRANCH   5  14
ATOM     14  C   UNL     1      48.432   8.276  12.571  0.00  0.00    +0.000 C 
ATOM     15  C   UNL     1      49.354   9.213  11.805  0.00  0.00    +0.000 C 
ATOM     16  C   UNL     1      49.545   7.737  11.695  0.00  0.00    +0.000 C 
BRANCH  14  17
ATOM     17  C   UNL     1      48.583   8.161  14.081  0.00  0.00    +0.000 A 
ATOM     18  C   UNL     1      48.210   9.183  14.960  0.00  0.00    +0.000 A 
ATOM     19  C   UNL     1      48.280   9.002  16.344  0.00  0.00    +0.000 A 
ATOM     20  C   UNL     1      48.725   7.782  16.852  0.00  0.00    +0.000 A 
ATOM     21  N   UNL     1      49.132   6.778  16.025  0.00  0.00    +0.000 NA
ATOM     22  C   UNL     1      49.051   6.994  14.687  0.00  0.00    +0.000 A 
BRANCH  20  23
ATOM     23  C   UNL     1      48.723   7.539  18.357  0.00  0.00    +0.000 C 
ATOM     24  F   UNL     1      49.538   6.508  18.736  0.00  0.00    +0.000 F 
ATOM     25  F   UNL     1      49.158   8.618  19.071  0.00  0.00    +0.000 F 
ATOM     26  F   UNL     1      47.493   7.228  18.854  0.00  0.00    +0.000 F 
ENDBRANCH  20  23
ENDBRANCH  14  17
ENDBRANCH   5  14
TORSDOF 4
ENDMDL
MODEL 7
REMARK VINA RESULT:    -5.384      5.376      8.407
REMARK INTER + INTRA:          -7.058
REMARK INTER:                  -6.693
REMARK INTRA:                  -0.365
REMARK UNBOUND:                -0.416
REMARK  Name = 
REMARK  4 active torsions:
REMARK  status: ('A' for Active; 'I' for Inactive)
REMARK    1  A    between atoms: C_2  and  C_4
REMARK    2  A    between atoms: N_8  and  C_9
REMARK    3  A    between atoms: C_9  and  C_10
REMARK    4  A    between atoms: C_13  and  C_14
REMARK                            x       y       z     vdW  Elec       q    Type
REMARK                         _______ _______ _______ _____ _____    ______ ____
ROOT
ATOM      1  C   UNL     1      49.312   7.591  17.739  0.00  0.00    +0.000 A 
ATOM      2  C   UNL     1      48.631   8.384  16.847  0.00  0.00    +0.000 A 
ATOM      3  N   UNL     1      48.628   8.171  15.513  0.00  0.00    +0.000 NA
ATOM      4  C   UNL     1      49.337   7.124  15.055  0.00  0.00    +0.000 A 
ATOM      5  N   UNL     1      49.413   6.855  13.692  0.00  0.00    +0.000 N 
ATOM      6  N   UNL     1      50.029   6.292  15.850  0.00  0.00    +0.000 NA
ATOM      7  C   UNL     1      50.018   6.554  17.177  0.00  0.00    +0.000 A 
ATOM      8  H   UNL     1      49.741   5.905  13.570  0.00  0.00    +0.000 HD
ENDROOT
BRANCH   1  10
ATOM      9  N   UNL     1      49.901   6.850  19.972  0.00  0.00    +0.000 N 
ATOM     10  C   UNL     1      49.347   7.822  19.189  0.00  0.00    +0.000 C 
ATOM     11  O   UNL     1      48.919   8.862  19.671  0.00  0.00    +0.000 OA
ATOM     12  H   UNL     1      50.000   7.074  20.957  0.00  0.00    +0.000 HD
ATOM     13  H   UNL     1      50.484   6.106  19.615  0.00  0.00    +0.000 HD
ENDBRANCH   1  10
BRANCH   5  14
ATOM     14  C   UNL     1      48.523   7.474  12.707  0.00  0.00    +0.000 C 
ATOM     15  C   UNL     1      49.174   7.825  11.377  0.00  0.00    +0.000 C 
ATOM     16  C   UNL     1      48.722   8.917  12.288  0.00  0.00    +0.000 C 
BRANCH  14  17
ATOM     17  C   UNL     1      47.108   6.913  12.713  0.00  0.00    +0.000 A 
ATOM     18  C   UNL     1      45.988   7.683  12.383  0.00  0.00    +0.000 A 
ATOM     19  C   UNL     1      44.716   7.107  12.312  0.00  0.00    +0.000 A 
ATOM     20  C   UNL     1      44.567   5.745  12.570  0.00  0.00    +0.000 A 
ATOM     21  N   UNL     1      45.631   4.974  12.931  0.00  0.00    +0.000 NA
ATOM     22  C   UNL     1      46.849   5.570  12.991  0.00  0.00    +0.000 A 
BRANCH  20  23
ATOM     23  C   UNL     1      43.202   5.087  12.411  0.00  0.00    +0.000 C 
ATOM     24  F   UNL     1      43.231   3.978  11.610  0.00  0.00    +0.000 F 
ATOM     25  F   UNL     1      42.676   4.658  13.595  0.00  0.00    +0.000 F 
ATOM     26  F   UNL     1      42.266   5.907  11.856  0.00  0.00    +0.000 F 
ENDBRANCH  20  23
ENDBRANCH  14  17
ENDBRANCH   5  14
TORSDOF 4
ENDMDL
MODEL 8
REMARK VINA RESULT:    -5.359      5.488      8.569
REMARK INTER + INTRA:          -7.028
REMARK INTER:                  -6.956
REMARK INTRA:                  -0.072
REMARK UNBOUND:                -0.416
REMARK  Name = 
REMARK  4 active torsions:
REMARK  status: ('A' for Active; 'I' for Inactive)
REMARK    1  A    between atoms: C_2  and  C_4
REMARK    2  A    between atoms: N_8  and  C_9
REMARK    3  A    between atoms: C_9  and  C_10
REMARK    4  A    between atoms: C_13  and  C_14
REMARK                            x       y       z     vdW  Elec       q    Type
REMARK                         _______ _______ _______ _____ _____    ______ ____
ROOT
ATOM      1  C   UNL     1      49.112   5.488  18.753  0.00  0.00    +0.000 A 
ATOM      2  C   UNL     1      48.272   6.436  18.221  0.00  0.00    +0.000 A 
ATOM      3  N   UNL     1      48.343   6.860  16.940  0.00  0.00    +0.000 NA
ATOM      4  C   UNL     1      49.294   6.313  16.162  0.00  0.00    +0.000 A 
ATOM      5  N   UNL     1      49.455   6.717  14.841  0.00  0.00    +0.000 N 
ATOM      6  N   UNL     1      50.156   5.377  16.592  0.00  0.00    +0.000 NA
ATOM      7  C   UNL     1      50.059   4.997  17.887  0.00  0.00    +0.000 A 
ATOM      8  H   UNL     1      50.008   6.020  14.357  0.00  0.00    +0.000 HD
ENDROOT
BRANCH   1  10
ATOM      9  N   UNL     1      48.631   3.762  20.388  0.00  0.00    +0.000 N 
ATOM     10  C   UNL     1      49.066   5.035  20.149  0.00  0.00    +0.000 C 
ATOM     11  O   UNL     1      49.432   5.764  21.060  0.00  0.00    +0.000 OA
ATOM     12  H   UNL     1      48.699   3.441  21.348  0.00  0.00    +0.000 HD
ATOM     13  H   UNL     1      48.560   3.050  19.674  0.00  0.00    +0.000 HD
ENDBRANCH   1  10
BRANCH   5  14
ATOM     14  C   UNL     1      48.457   7.513  14.123  0.00  0.00    +0.000 C 
ATOM     15  C   UNL     1      49.022   8.610  13.233  0.00  0.00    +0.000 C 
ATOM     16  C   UNL     1      48.253   8.978  14.458  0.00  0.00    +0.000 C 
BRANCH  14  17
ATOM     17  C   UNL     1      47.259   6.711  13.638  0.00  0.00    +0.000 A 
ATOM     18  C   UNL     1      47.197   5.316  13.722  0.00  0.00    +0.000 A 
ATOM     19  C   UNL     1      46.042   4.624  13.349  0.00  0.00    +0.000 A 
ATOM     20  C   UNL     1      44.935   5.338  12.892  0.00  0.00    +0.000 A 
ATOM     21  N   UNL     1      44.973   6.694  12.762  0.00  0.00    +0.000 NA
ATOM     22  C   UNL     1      46.115   7.329  13.132  0.00  0.00    +0.000 A 
BRANCH  20  23
ATOM     23  C   UNL     1      43.639   4.605  12.566  0.00  0.00    +0.000 C 
ATOM     24  F   UNL     1      42.607   4.940  13.400  0.00  0.00    +0.000 F 
ATOM     25  F   UNL     1      43.180   4.868  11.308  0.00  0.00    +0.000 F 
ATOM     26  F   UNL     1      43.747   3.249  12.654  0.00  0.00    +0.000 F 
ENDBRANCH  20  23
ENDBRANCH  14  17
ENDBRANCH   5  14
TORSDOF 4
ENDMDL
MODEL 9
REMARK VINA RESULT:    -5.355      4.577      6.839
REMARK INTER + INTRA:          -7.023
REMARK INTER:                  -7.573
REMARK INTRA:                   0.550
REMARK UNBOUND:                -0.416
REMARK  Name = 
REMARK  4 active torsions:
REMARK  status: ('A' for Active; 'I' for Inactive)
REMARK    1  A    between atoms: C_2  and  C_4
REMARK    2  A    between atoms: N_8  and  C_9
REMARK    3  A    between atoms: C_9  and  C_10
REMARK    4  A    between atoms: C_13  and  C_14
REMARK                            x       y       z     vdW  Elec       q    Type
REMARK                         _______ _______ _______ _____ _____    ______ ____
ROOT
ATOM      1  C   UNL     1      48.171   3.838  17.408  0.00  0.00    +0.000 A 
ATOM      2  C   UNL     1      47.459   4.853  16.818  0.00  0.00    +0.000 A 
ATOM      3  N   UNL     1      46.997   4.799  15.549  0.00  0.00    +0.000 NA
ATOM      4  C   UNL     1      47.263   3.685  14.844  0.00  0.00    +0.000 A 
ATOM      5  N   UNL     1      46.851   3.563  13.521  0.00  0.00    +0.000 N 
ATOM      6  N   UNL     1      47.947   2.641  15.338  0.00  0.00    +0.000 NA
ATOM      7  C   UNL     1      48.405   2.746  16.606  0.00  0.00    +0.000 A 
ATOM      8  H   UNL     1      46.892   2.585  13.260  0.00  0.00    +0.000 HD
ENDROOT
BRANCH   1  10
ATOM      9  N   UNL     1      48.241   2.967  19.671  0.00  0.00    +0.000 N 
ATOM     10  C   UNL     1      48.702   3.890  18.776  0.00  0.00    +0.000 C 
ATOM     11  O   UNL     1      49.550   4.714  19.092  0.00  0.00    +0.000 OA
ATOM     12  H   UNL     1      48.692   2.962  20.579  0.00  0.00    +0.000 HD
ATOM     13  H   UNL     1      47.746   2.126  19.405  0.00  0.00    +0.000 HD
ENDBRANCH   1  10
BRANCH   5  14
ATOM     14  C   UNL     1      45.876   4.463  12.903  0.00  0.00    +0.000 C 
ATOM     15  C   UNL     1      44.421   4.177  13.248  0.00  0.00    +0.000 C 
ATOM     16  C   UNL     1      44.907   3.949  11.855  0.00  0.00    +0.000 C 
BRANCH  14  17
ATOM     17  C   UNL     1      46.342   5.908  12.805  0.00  0.00    +0.000 A 
ATOM     18  C   UNL     1      47.670   6.259  12.541  0.00  0.00    +0.000 A 
ATOM     19  C   UNL     1      48.040   7.596  12.369  0.00  0.00    +0.000 A 
ATOM     20  C   UNL     1      47.067   8.590  12.458  0.00  0.00    +0.000 A 
ATOM     21  N   UNL     1      45.771   8.288  12.752  0.00  0.00    +0.000 NA
ATOM     22  C   UNL     1      45.452   6.978  12.914  0.00  0.00    +0.000 A 
BRANCH  20  23
ATOM     23  C   UNL     1      47.439  10.043  12.186  0.00  0.00    +0.000 C 
ATOM     24  F   UNL     1      48.264  10.193  11.105  0.00  0.00    +0.000 F 
ATOM     25  F   UNL     1      46.355  10.830  11.920  0.00  0.00    +0.000 F 
ATOM     26  F   UNL     1      48.092  10.639  13.224  0.00  0.00    +0.000 F 
ENDBRANCH  20  23
ENDBRANCH  14  17
ENDBRANCH   5  14
TORSDOF 4
ENDMDL
