MODEL 1
REMARK VINA RESULT:    -8.024      0.000      0.000
REMARK INTER + INTRA:         -11.671
REMARK INTER:                 -10.838
REMARK INTRA:                  -0.833
REMARK UNBOUND:                -0.833
REMARK  Name = 
REMARK  6 active torsions:
REMARK  status: ('A' for Active; 'I' for Inactive)
REMARK    1  A    between atoms: C_2  and  C_25
REMARK    2  A    between atoms: N_3  and  C_4
REMARK    3  A    between atoms: C_4  and  C_5
REMARK    4  A    between atoms: C_8  and  C_9
REMARK    5  A    between atoms: C_9  and  N_10
REMARK    6  A    between atoms: C_11  and  C_13
REMARK                            x       y       z     vdW  Elec       q    Type
REMARK                         _______ _______ _______ _____ _____    ______ ____
ROOT
ATOM      1  C   UNL     1      46.169   4.536  13.699  0.00  0.00    +0.000 A 
ATOM      2  C   UNL     1      46.628   5.752  13.195  0.00  0.00    +0.000 A 
ATOM      3  C   UNL     1      47.539   6.497  13.944  0.00  0.00    +0.000 A 
ATOM      4  C   UNL     1      47.989   6.007  15.171  0.00  0.00    +0.000 A 
ATOM      5  C   UNL     1      47.463   4.795  15.602  0.00  0.00    +0.000 A 
ATOM      6  N   UNL     1      46.578   4.050  14.897  0.00  0.00    +0.000 NA
ENDROOT
BRANCH   1   7
ATOM      7  C   UNL     1      45.204   3.689  12.899  0.00  0.00    +0.000 C 
BRANCH   7  10
ATOM      8  O   UNL     1      43.557   3.322  10.635  0.00  0.00    +0.000 OA
ATOM      9  C   UNL     1      44.775   3.308  10.498  0.00  0.00    +0.000 C 
ATOM     10  N   UNL     1      45.657   3.459  11.543  0.00  0.00    +0.000 N 
ATOM     11  H   UNL     1      46.643   3.554  11.322  0.00  0.00    +0.000 HD
BRANCH   9  12
ATOM     12  C   UNL     1      45.397   3.121   9.148  0.00  0.00    +0.000 A 
ATOM     13  C   UNL     1      45.704   1.831   8.721  0.00  0.00    +0.000 A 
ATOM     14  C   UNL     1      46.312   1.668   7.478  0.00  0.00    +0.000 A 
ATOM     15  C   UNL     1      46.594   2.791   6.711  0.00  0.00    +0.000 A 
ATOM     16 CL   UNL     1      47.356   2.631   5.181  0.00  0.00    +0.000 Cl
ATOM     17  C   UNL     1      46.249   4.042   7.212  0.00  0.00    +0.000 A 
ATOM     18  N   UNL     1      45.649   4.241   8.414  0.00  0.00    +0.000 NA
ENDBRANCH   9  12
ENDBRANCH   7  10
ENDBRANCH   1   7
BRANCH   4  19
ATOM     19  C   UNL     1      48.978   6.758  16.017  0.00  0.00    +0.000 C 
BRANCH  19  20
ATOM     20  N   UNL     1      50.042   5.901  16.473  0.00  0.00    +0.000 N 
ATOM     21  C   UNL     1      50.159   5.546  17.793  0.00  0.00    +0.000 C 
ATOM     22  O   UNL     1      49.345   5.907  18.640  0.00  0.00    +0.000 OA
ATOM     23  H   UNL     1      50.845   5.794  15.862  0.00  0.00    +0.000 HD
BRANCH  21  24
ATOM     24  C   UNL     1      51.278   4.655  18.132  0.00  0.00    +0.000 A 
ATOM     25  C   UNL     1      52.387   5.158  18.798  0.00  0.00    +0.000 A 
ATOM     26  S   UNL     1      53.560   3.974  19.164  0.00  0.00    +0.000 S 
ATOM     27  C   UNL     1      52.653   2.759  18.393  0.00  0.00    +0.000 A 
ATOM     28  N   UNL     1      53.113   1.480  18.322  0.00  0.00    +0.000 NA
ATOM     29  C   UNL     1      52.338   0.670  17.681  0.00  0.00    +0.000 A 
ATOM     30  N   UNL     1      51.142   1.019  17.109  0.00  0.00    +0.000 N 
ATOM     31  C   UNL     1      50.622   2.290  17.184  0.00  0.00    +0.000 A 
ATOM     32  O   UNL     1      49.524   2.559  16.708  0.00  0.00    +0.000 OA
ATOM     33  C   UNL     1      51.463   3.245  17.883  0.00  0.00    +0.000 A 
ATOM     34  H   UNL     1      50.578   0.335  16.629  0.00  0.00    +0.000 HD
ENDBRANCH  21  24
ENDBRANCH  19  20
ENDBRANCH   4  19
TORSDOF 6
ENDMDL
MODEL 2
REMARK VINA RESULT:    -7.464      2.704      3.109
REMARK INTER + INTRA:         -10.915
REMARK INTER:                 -10.051
REMARK INTRA:                  -0.864
REMARK UNBOUND:                -0.833
REMARK  Name = 
REMARK  6 active torsions:
REMARK  status: ('A' for Active; 'I' for Inactive)
REMARK    1  A    between atoms: C_2  and  C_25
REMARK    2  A    between atoms: N_3  and  C_4
REMARK    3  A    between atoms: C_4  and  C_5
REMARK    4  A    between atoms: C_8  and  C_9
REMARK    5  A    between atoms: C_9  and  N_10
REMARK    6  A    between atoms: C_11  and  C_13
REMARK                            x       y       z     vdW  Elec       q    Type
REMARK                         _______ _______ _______ _____ _____    ______ ____
ROOT
ATOM      1  C   UNL     1      45.110   6.994  11.996  0.00  0.00    +0.000 A 
ATOM      2  C   UNL     1      44.936   8.372  12.112  0.00  0.00    +0.000 A 
ATOM      3  C   UNL     1      45.824   9.104  12.901  0.00  0.00    +0.000 A 
ATOM      4  C   UNL     1      46.877   8.452  13.544  0.00  0.00    +0.000 A 
ATOM      5  C   UNL     1      46.961   7.074  13.385  0.00  0.00    +0.000 A 
ATOM      6  N   UNL     1      46.115   6.337  12.626  0.00  0.00    +0.000 NA
ENDROOT
BRANCH   1   7
ATOM      7  C   UNL     1      44.184   6.175  11.124  0.00  0.00    +0.000 C 
BRANCH   7  10
ATOM      8  O   UNL     1      43.986   3.403  10.622  0.00  0.00    +0.000 OA
ATOM      9  C   UNL     1      44.717   4.089   9.916  0.00  0.00    +0.000 C 
ATOM     10  N   UNL     1      44.892   5.441  10.096  0.00  0.00    +0.000 N 
ATOM     11  H   UNL     1      45.421   5.949   9.393  0.00  0.00    +0.000 HD
BRANCH   9  12
ATOM     12  C   UNL     1      45.485   3.481   8.783  0.00  0.00    +0.000 A 
ATOM     13  C   UNL     1      45.748   2.113   8.805  0.00  0.00    +0.000 A 
ATOM     14  C   UNL     1      46.490   1.560   7.764  0.00  0.00    +0.000 A 
ATOM     15  C   UNL     1      46.945   2.388   6.744  0.00  0.00    +0.000 A 
ATOM     16 CL   UNL     1      47.877   1.745   5.454  0.00  0.00    +0.000 Cl
ATOM     17  C   UNL     1      46.633   3.742   6.799  0.00  0.00    +0.000 A 
ATOM     18  N   UNL     1      45.906   4.316   7.792  0.00  0.00    +0.000 NA
ENDBRANCH   9  12
ENDBRANCH   7  10
ENDBRANCH   1   7
BRANCH   4  19
ATOM     19  C   UNL     1      47.870   9.187  14.398  0.00  0.00    +0.000 C 
BRANCH  19  20
ATOM     20  N   UNL     1      48.084   8.517  15.655  0.00  0.00    +0.000 N 
ATOM     21  C   UNL     1      49.215   7.775  15.887  0.00  0.00    +0.000 C 
ATOM     22  O   UNL     1      50.113   7.678  15.054  0.00  0.00    +0.000 OA
ATOM     23  H   UNL     1      47.275   8.378  16.250  0.00  0.00    +0.000 HD
BRANCH  21  24
ATOM     24  C   UNL     1      49.326   7.153  17.213  0.00  0.00    +0.000 A 
ATOM     25  C   UNL     1      49.861   7.873  18.274  0.00  0.00    +0.000 A 
ATOM     26  S   UNL     1      49.858   7.019  19.751  0.00  0.00    +0.000 S 
ATOM     27  C   UNL     1      49.195   5.636  19.013  0.00  0.00    +0.000 A 
ATOM     28  N   UNL     1      48.956   4.505  19.730  0.00  0.00    +0.000 NA
ATOM     29  C   UNL     1      48.483   3.524  19.037  0.00  0.00    +0.000 A 
ATOM     30  N   UNL     1      48.220   3.571  17.692  0.00  0.00    +0.000 N 
ATOM     31  C   UNL     1      48.413   4.702  16.934  0.00  0.00    +0.000 A 
ATOM     32  O   UNL     1      48.118   4.729  15.743  0.00  0.00    +0.000 OA
ATOM     33  C   UNL     1      48.960   5.831  17.663  0.00  0.00    +0.000 A 
ATOM     34  H   UNL     1      47.841   2.771  17.210  0.00  0.00    +0.000 HD
ENDBRANCH  21  24
ENDBRANCH  19  20
ENDBRANCH   4  19
TORSDOF 6
ENDMDL
MODEL 3
REMARK VINA RESULT:    -7.157      3.862      9.458
REMARK INTER + INTRA:         -10.501
REMARK INTER:                  -9.653
REMARK INTRA:                  -0.848
REMARK UNBOUND:                -0.833
REMARK  Name = 
REMARK  6 active torsions:
REMARK  status: ('A' for Active; 'I' for Inactive)
REMARK    1  A    between atoms: C_2  and  C_25
REMARK    2  A    between atoms: N_3  and  C_4
REMARK    3  A    between atoms: C_4  and  C_5
REMARK    4  A    between atoms: C_8  and  C_9
REMARK    5  A    between atoms: C_9  and  N_10
REMARK    6  A    between atoms: C_11  and  C_13
REMARK                            x       y       z     vdW  Elec       q    Type
REMARK                         _______ _______ _______ _____ _____    ______ ____
ROOT
ATOM      1  C   UNL     1      49.067   7.494  15.845  0.00  0.00    +0.000 A 
ATOM      2  C   UNL     1      48.758   8.761  15.355  0.00  0.00    +0.000 A 
ATOM      3  C   UNL     1      48.078   8.872  14.142  0.00  0.00    +0.000 A 
ATOM      4  C   UNL     1      47.703   7.719  13.451  0.00  0.00    +0.000 A 
ATOM      5  C   UNL     1      48.070   6.499  14.007  0.00  0.00    +0.000 A 
ATOM      6  N   UNL     1      48.730   6.360  15.182  0.00  0.00    +0.000 NA
ENDROOT
BRANCH   1   7
ATOM      7  C   UNL     1      49.778   7.336  17.171  0.00  0.00    +0.000 C 
BRANCH   7  10
ATOM      8  O   UNL     1      48.903   4.892  18.282  0.00  0.00    +0.000 OA
ATOM      9  C   UNL     1      50.026   4.960  17.795  0.00  0.00    +0.000 C 
ATOM     10  N   UNL     1      50.546   6.111  17.249  0.00  0.00    +0.000 N 
ATOM     11  H   UNL     1      51.435   6.046  16.762  0.00  0.00    +0.000 HD
BRANCH   9  12
ATOM     12  C   UNL     1      50.926   3.764  17.762  0.00  0.00    +0.000 A 
ATOM     13  C   UNL     1      52.249   3.905  18.174  0.00  0.00    +0.000 A 
ATOM     14  C   UNL     1      53.090   2.796  18.110  0.00  0.00    +0.000 A 
ATOM     15  C   UNL     1      52.584   1.591  17.637  0.00  0.00    +0.000 A 
ATOM     16 CL   UNL     1      53.593   0.207  17.529  0.00  0.00    +0.000 Cl
ATOM     17  C   UNL     1      51.249   1.538  17.251  0.00  0.00    +0.000 A 
ATOM     18  N   UNL     1      50.397   2.593  17.306  0.00  0.00    +0.000 NA
ENDBRANCH   9  12
ENDBRANCH   7  10
ENDBRANCH   1   7
BRANCH   4  19
ATOM     19  C   UNL     1      46.960   7.774  12.147  0.00  0.00    +0.000 C 
BRANCH  19  20
ATOM     20  N   UNL     1      46.419   6.487  11.792  0.00  0.00    +0.000 N 
ATOM     21  C   UNL     1      45.069   6.298  11.631  0.00  0.00    +0.000 C 
ATOM     22  O   UNL     1      44.264   7.220  11.741  0.00  0.00    +0.000 OA
ATOM     23  H   UNL     1      47.015   5.679  11.933  0.00  0.00    +0.000 HD
BRANCH  21  24
ATOM     24  C   UNL     1      44.641   4.944  11.253  0.00  0.00    +0.000 A 
ATOM     25  C   UNL     1      43.860   4.196  12.125  0.00  0.00    +0.000 A 
ATOM     26  S   UNL     1      43.405   2.675  11.501  0.00  0.00    +0.000 S 
ATOM     27  C   UNL     1      44.284   2.938  10.068  0.00  0.00    +0.000 A 
ATOM     28  N   UNL     1      44.335   1.991   9.093  0.00  0.00    +0.000 NA
ATOM     29  C   UNL     1      45.064   2.310   8.077  0.00  0.00    +0.000 A 
ATOM     30  N   UNL     1      45.743   3.494   7.942  0.00  0.00    +0.000 N 
ATOM     31  C   UNL     1      45.693   4.493   8.885  0.00  0.00    +0.000 A 
ATOM     32  O   UNL     1      46.268   5.563   8.711  0.00  0.00    +0.000 OA
ATOM     33  C   UNL     1      44.898   4.178  10.057  0.00  0.00    +0.000 A 
ATOM     34  H   UNL     1      46.289   3.687   7.116  0.00  0.00    +0.000 HD
ENDBRANCH  21  24
ENDBRANCH  19  20
ENDBRANCH   4  19
TORSDOF 6
ENDMDL
MODEL 4
REMARK VINA RESULT:    -6.803      4.330      9.705
REMARK INTER + INTRA:         -10.022
REMARK INTER:                  -8.937
REMARK INTRA:                  -1.085
REMARK UNBOUND:                -0.833
REMARK  Name = 
REMARK  6 active torsions:
REMARK  status: ('A' for Active; 'I' for Inactive)
REMARK    1  A    between atoms: C_2  and  C_25
REMARK    2  A    between atoms: N_3  and  C_4
REMARK    3  A    between atoms: C_4  and  C_5
REMARK    4  A    between atoms: C_8  and  C_9
REMARK    5  A    between atoms: C_9  and  N_10
REMARK    6  A    between atoms: C_11  and  C_13
REMARK                            x       y       z     vdW  Elec       q    Type
REMARK                         _______ _______ _______ _____ _____    ______ ____
ROOT
ATOM      1  C   UNL     1      49.213   5.313  17.583  0.00  0.00    +0.000 A 
ATOM      2  C   UNL     1      48.265   4.664  16.795  0.00  0.00    +0.000 A 
ATOM      3  C   UNL     1      47.890   5.233  15.577  0.00  0.00    +0.000 A 
ATOM      4  C   UNL     1      48.479   6.428  15.161  0.00  0.00    +0.000 A 
ATOM      5  C   UNL     1      49.401   7.013  16.021  0.00  0.00    +0.000 A 
ATOM      6  N   UNL     1      49.785   6.485  17.208  0.00  0.00    +0.000 NA
ENDROOT
BRANCH   1   7
ATOM      7  C   UNL     1      49.665   4.709  18.894  0.00  0.00    +0.000 C 
BRANCH   7  10
ATOM      8  O   UNL     1      52.472   5.006  18.808  0.00  0.00    +0.000 OA
ATOM      9  C   UNL     1      51.985   3.886  18.701  0.00  0.00    +0.000 C 
ATOM     10  N   UNL     1      50.631   3.645  18.713  0.00  0.00    +0.000 N 
ATOM     11  H   UNL     1      50.321   2.678  18.740  0.00  0.00    +0.000 HD
BRANCH   9  12
ATOM     12  C   UNL     1      52.857   2.678  18.550  0.00  0.00    +0.000 A 
ATOM     13  C   UNL     1      52.436   1.644  17.717  0.00  0.00    +0.000 A 
ATOM     14  C   UNL     1      53.236   0.509  17.606  0.00  0.00    +0.000 A 
ATOM     15  C   UNL     1      54.421   0.445  18.329  0.00  0.00    +0.000 A 
ATOM     16 CL   UNL     1      55.425  -0.944  18.231  0.00  0.00    +0.000 Cl
ATOM     17  C   UNL     1      54.767   1.525  19.134  0.00  0.00    +0.000 A 
ATOM     18  N   UNL     1      54.019   2.650  19.262  0.00  0.00    +0.000 NA
ENDBRANCH   9  12
ENDBRANCH   7  10
ENDBRANCH   1   7
BRANCH   4  19
ATOM     19  C   UNL     1      48.124   7.083  13.857  0.00  0.00    +0.000 C 
BRANCH  19  20
ATOM     20  N   UNL     1      47.368   6.197  13.010  0.00  0.00    +0.000 N 
ATOM     21  C   UNL     1      46.546   6.679  12.023  0.00  0.00    +0.000 C 
ATOM     22  O   UNL     1      46.444   7.881  11.788  0.00  0.00    +0.000 OA
ATOM     23  H   UNL     1      47.243   5.242  13.331  0.00  0.00    +0.000 HD
BRANCH  21  24
ATOM     24  C   UNL     1      45.839   5.676  11.214  0.00  0.00    +0.000 A 
ATOM     25  C   UNL     1      45.949   5.699   9.830  0.00  0.00    +0.000 A 
ATOM     26  S   UNL     1      45.115   4.428   9.056  0.00  0.00    +0.000 S 
ATOM     27  C   UNL     1      44.531   3.835  10.540  0.00  0.00    +0.000 A 
ATOM     28  N   UNL     1      43.712   2.749  10.588  0.00  0.00    +0.000 NA
ATOM     29  C   UNL     1      43.319   2.430  11.775  0.00  0.00    +0.000 A 
ATOM     30  N   UNL     1      43.672   3.094  12.922  0.00  0.00    +0.000 N 
ATOM     31  C   UNL     1      44.522   4.174  12.926  0.00  0.00    +0.000 A 
ATOM     32  O   UNL     1      44.863   4.714  13.974  0.00  0.00    +0.000 OA
ATOM     33  C   UNL     1      44.982   4.584  11.612  0.00  0.00    +0.000 A 
ATOM     34  H   UNL     1      43.337   2.786  13.822  0.00  0.00    +0.000 HD
ENDBRANCH  21  24
ENDBRANCH  19  20
ENDBRANCH   4  19
TORSDOF 6
ENDMDL
MODEL 5
REMARK VINA RESULT:    -6.781      1.856      2.530
REMARK INTER + INTRA:          -9.993
REMARK INTER:                  -9.061
REMARK INTRA:                  -0.932
REMARK UNBOUND:                -0.833
REMARK  Name = 
REMARK  6 active torsions:
REMARK  status: ('A' for Active; 'I' for Inactive)
REMARK    1  A    between atoms: C_2  and  C_25
REMARK    2  A    between atoms: N_3  and  C_4
REMARK    3  A    between atoms: C_4  and  C_5
REMARK    4  A    between atoms: C_8  and  C_9
REMARK    5  A    between atoms: C_9  and  N_10
REMARK    6  A    between atoms: C_11  and  C_13
REMARK                            x       y       z     vdW  Elec       q    Type
REMARK                         _______ _______ _______ _____ _____    ______ ____
ROOT
ATOM      1  C   UNL     1      46.150   7.152  12.608  0.00  0.00    +0.000 A 
ATOM      2  C   UNL     1      46.759   6.040  13.188  0.00  0.00    +0.000 A 
ATOM      3  C   UNL     1      47.688   6.231  14.212  0.00  0.00    +0.000 A 
ATOM      4  C   UNL     1      47.978   7.524  14.650  0.00  0.00    +0.000 A 
ATOM      5  C   UNL     1      47.336   8.573  14.000  0.00  0.00    +0.000 A 
ATOM      6  N   UNL     1      46.431   8.418  13.005  0.00  0.00    +0.000 NA
ENDROOT
BRANCH   1   7
ATOM      7  C   UNL     1      45.117   6.980  11.517  0.00  0.00    +0.000 C 
BRANCH   7  10
ATOM      8  O   UNL     1      43.950   4.468  10.967  0.00  0.00    +0.000 OA
ATOM      9  C   UNL     1      44.896   4.850  10.287  0.00  0.00    +0.000 C 
ATOM     10  N   UNL     1      45.540   6.048  10.492  0.00  0.00    +0.000 N 
ATOM     11  H   UNL     1      46.233   6.337   9.808  0.00  0.00    +0.000 HD
BRANCH   9  12
ATOM     12  C   UNL     1      45.422   4.016   9.160  0.00  0.00    +0.000 A 
ATOM     13  C   UNL     1      45.298   2.630   9.234  0.00  0.00    +0.000 A 
ATOM     14  C   UNL     1      45.819   1.858   8.197  0.00  0.00    +0.000 A 
ATOM     15  C   UNL     1      46.447   2.493   7.132  0.00  0.00    +0.000 A 
ATOM     16 CL   UNL     1      47.115   1.574   5.845  0.00  0.00    +0.000 Cl
ATOM     17  C   UNL     1      46.523   3.881   7.137  0.00  0.00    +0.000 A 
ATOM     18  N   UNL     1      46.021   4.668   8.124  0.00  0.00    +0.000 NA
ENDBRANCH   9  12
ENDBRANCH   7  10
ENDBRANCH   1   7
BRANCH   4  19
ATOM     19  C   UNL     1      48.960   7.793  15.754  0.00  0.00    +0.000 C 
BRANCH  19  20
ATOM     20  N   UNL     1      49.723   6.615  16.080  0.00  0.00    +0.000 N 
ATOM     21  C   UNL     1      49.423   5.850  17.178  0.00  0.00    +0.000 C 
ATOM     22  O   UNL     1      48.470   6.106  17.911  0.00  0.00    +0.000 OA
ATOM     23  H   UNL     1      50.638   6.522  15.651  0.00  0.00    +0.000 HD
BRANCH  21  24
ATOM     24  C   UNL     1      50.264   4.665  17.397  0.00  0.00    +0.000 A 
ATOM     25  C   UNL     1      49.699   3.397  17.354  0.00  0.00    +0.000 A 
ATOM     26  S   UNL     1      50.830   2.137  17.568  0.00  0.00    +0.000 S 
ATOM     27  C   UNL     1      52.104   3.244  17.783  0.00  0.00    +0.000 A 
ATOM     28  N   UNL     1      53.370   2.814  18.037  0.00  0.00    +0.000 NA
ATOM     29  C   UNL     1      54.230   3.761  18.210  0.00  0.00    +0.000 A 
ATOM     30  N   UNL     1      53.942   5.100  18.148  0.00  0.00    +0.000 N 
ATOM     31  C   UNL     1      52.686   5.580  17.861  0.00  0.00    +0.000 A 
ATOM     32  O   UNL     1      52.471   6.784  17.759  0.00  0.00    +0.000 OA
ATOM     33  C   UNL     1      51.677   4.554  17.672  0.00  0.00    +0.000 A 
ATOM     34  H   UNL     1      54.663   5.792  18.284  0.00  0.00    +0.000 HD
ENDBRANCH  21  24
ENDBRANCH  19  20
ENDBRANCH   4  19
TORSDOF 6
ENDMDL
MODEL 6
REMARK VINA RESULT:    -6.611      2.148      3.014
REMARK INTER + INTRA:          -9.763
REMARK INTER:                  -8.827
REMARK INTRA:                  -0.937
REMARK UNBOUND:                -0.833
REMARK  Name = 
REMARK  6 active torsions:
REMARK  status: ('A' for Active; 'I' for Inactive)
REMARK    1  A    between atoms: C_2  and  C_25
REMARK    2  A    between atoms: N_3  and  C_4
REMARK    3  A    between atoms: C_4  and  C_5
REMARK    4  A    between atoms: C_8  and  C_9
REMARK    5  A    between atoms: C_9  and  N_10
REMARK    6  A    between atoms: C_11  and  C_13
REMARK                            x       y       z     vdW  Elec       q    Type
REMARK                         _______ _______ _______ _____ _____    ______ ____
ROOT
ATOM      1  C   UNL     1      48.350   8.273  13.496  0.00  0.00    +0.000 A 
ATOM      2  C   UNL     1      49.275   7.291  13.845  0.00  0.00    +0.000 A 
ATOM      3  C   UNL     1      49.687   7.187  15.174  0.00  0.00    +0.000 A 
ATOM      4  C   UNL     1      49.156   8.052  16.132  0.00  0.00    +0.000 A 
ATOM      5  C   UNL     1      48.253   9.011  15.689  0.00  0.00    +0.000 A 
ATOM      6  N   UNL     1      47.834   9.136  14.407  0.00  0.00    +0.000 NA
ENDROOT
BRANCH   1   7
ATOM      7  C   UNL     1      47.859   8.394  12.071  0.00  0.00    +0.000 C 
BRANCH   7  10
ATOM      8  O   UNL     1      45.145   7.624  11.935  0.00  0.00    +0.000 OA
ATOM      9  C   UNL     1      46.006   6.862  11.508  0.00  0.00    +0.000 C 
ATOM     10  N   UNL     1      47.352   7.141  11.549  0.00  0.00    +0.000 N 
ATOM     11  H   UNL     1      47.983   6.509  11.066  0.00  0.00    +0.000 HD
BRANCH   9  12
ATOM     12  C   UNL     1      45.635   5.545  10.899  0.00  0.00    +0.000 A 
ATOM     13  C   UNL     1      45.717   5.397   9.516  0.00  0.00    +0.000 A 
ATOM     14  C   UNL     1      45.340   4.179   8.953  0.00  0.00    +0.000 A 
ATOM     15  C   UNL     1      44.892   3.160   9.784  0.00  0.00    +0.000 A 
ATOM     16 CL   UNL     1      44.404   1.652   9.126  0.00  0.00    +0.000 Cl
ATOM     17  C   UNL     1      44.847   3.393  11.155  0.00  0.00    +0.000 A 
ATOM     18  N   UNL     1      45.213   4.561  11.742  0.00  0.00    +0.000 NA
ENDBRANCH   9  12
ENDBRANCH   7  10
ENDBRANCH   1   7
BRANCH   4  19
ATOM     19  C   UNL     1      49.553   7.982  17.579  0.00  0.00    +0.000 C 
BRANCH  19  20
ATOM     20  N   UNL     1      50.510   6.932  17.814  0.00  0.00    +0.000 N 
ATOM     21  C   UNL     1      50.193   5.830  18.569  0.00  0.00    +0.000 C 
ATOM     22  O   UNL     1      49.072   5.666  19.044  0.00  0.00    +0.000 OA
ATOM     23  H   UNL     1      51.487   7.150  17.649  0.00  0.00    +0.000 HD
BRANCH  21  24
ATOM     24  C   UNL     1      51.249   4.820  18.724  0.00  0.00    +0.000 A 
ATOM     25  C   UNL     1      52.373   5.106  19.488  0.00  0.00    +0.000 A 
ATOM     26  S   UNL     1      53.466   3.802  19.611  0.00  0.00    +0.000 S 
ATOM     27  C   UNL     1      52.504   2.829  18.600  0.00  0.00    +0.000 A 
ATOM     28  N   UNL     1      52.888   1.566  18.270  0.00  0.00    +0.000 NA
ATOM     29  C   UNL     1      52.080   0.955  17.470  0.00  0.00    +0.000 A 
ATOM     30  N   UNL     1      50.918   1.488  16.973  0.00  0.00    +0.000 N 
ATOM     31  C   UNL     1      50.473   2.746  17.306  0.00  0.00    +0.000 A 
ATOM     32  O   UNL     1      49.402   3.175  16.888  0.00  0.00    +0.000 OA
ATOM     33  C   UNL     1      51.355   3.483  18.192  0.00  0.00    +0.000 A 
ATOM     34  H   UNL     1      50.323   0.953  16.359  0.00  0.00    +0.000 HD
ENDBRANCH  21  24
ENDBRANCH  19  20
ENDBRANCH   4  19
TORSDOF 6
ENDMDL
MODEL 7
REMARK VINA RESULT:    -6.574      5.563      8.709
REMARK INTER + INTRA:          -9.714
REMARK INTER:                  -8.769
REMARK INTRA:                  -0.945
REMARK UNBOUND:                -0.833
REMARK  Name = 
REMARK  6 active torsions:
REMARK  status: ('A' for Active; 'I' for Inactive)
REMARK    1  A    between atoms: C_2  and  C_25
REMARK    2  A    between atoms: N_3  and  C_4
REMARK    3  A    between atoms: C_4  and  C_5
REMARK    4  A    between atoms: C_8  and  C_9
REMARK    5  A    between atoms: C_9  and  N_10
REMARK    6  A    between atoms: C_11  and  C_13
REMARK                            x       y       z     vdW  Elec       q    Type
REMARK                         _______ _______ _______ _____ _____    ______ ____
ROOT
ATOM      1  C   UNL     1      50.579   8.431  12.261  0.00  0.00    +0.000 A 
ATOM      2  C   UNL     1      49.693   9.239  11.550  0.00  0.00    +0.000 A 
ATOM      3  C   UNL     1      48.327   9.147  11.818  0.00  0.00    +0.000 A 
ATOM      4  C   UNL     1      47.872   8.266  12.801  0.00  0.00    +0.000 A 
ATOM      5  C   UNL     1      48.827   7.487  13.445  0.00  0.00    +0.000 A 
ATOM      6  N   UNL     1      50.159   7.554  13.207  0.00  0.00    +0.000 NA
ENDROOT
BRANCH   1   7
ATOM      7  C   UNL     1      52.069   8.526  12.017  0.00  0.00    +0.000 C 
BRANCH   7  10
ATOM      8  O   UNL     1      52.509   9.353   9.353  0.00  0.00    +0.000 OA
ATOM      9  C   UNL     1      52.712   8.183   9.658  0.00  0.00    +0.000 C 
ATOM     10  N   UNL     1      52.509   7.684  10.923  0.00  0.00    +0.000 N 
ATOM     11  H   UNL     1      52.817   6.735  11.114  0.00  0.00    +0.000 HD
BRANCH   9  12
ATOM     12  C   UNL     1      53.210   7.199   8.645  0.00  0.00    +0.000 A 
ATOM     13  C   UNL     1      53.338   7.604   7.318  0.00  0.00    +0.000 A 
ATOM     14  C   UNL     1      53.771   6.674   6.376  0.00  0.00    +0.000 A 
ATOM     15  C   UNL     1      54.055   5.377   6.787  0.00  0.00    +0.000 A 
ATOM     16 CL   UNL     1      54.575   4.199   5.652  0.00  0.00    +0.000 Cl
ATOM     17  C   UNL     1      53.904   5.059   8.132  0.00  0.00    +0.000 A 
ATOM     18  N   UNL     1      53.493   5.939   9.081  0.00  0.00    +0.000 NA
ENDBRANCH   9  12
ENDBRANCH   7  10
ENDBRANCH   1   7
BRANCH   4  19
ATOM     19  C   UNL     1      46.416   8.131  13.141  0.00  0.00    +0.000 C 
BRANCH  19  20
ATOM     20  N   UNL     1      45.908   6.832  12.782  0.00  0.00    +0.000 N 
ATOM     21  C   UNL     1      44.947   6.682  11.814  0.00  0.00    +0.000 C 
ATOM     22  O   UNL     1      44.504   7.638  11.181  0.00  0.00    +0.000 OA
ATOM     23  H   UNL     1      46.067   6.074  13.438  0.00  0.00    +0.000 HD
BRANCH  21  24
ATOM     24  C   UNL     1      44.520   5.305  11.526  0.00  0.00    +0.000 A 
ATOM     25  C   UNL     1      43.750   4.612  12.450  0.00  0.00    +0.000 A 
ATOM     26  S   UNL     1      43.295   3.053  11.928  0.00  0.00    +0.000 S 
ATOM     27  C   UNL     1      44.159   3.228  10.473  0.00  0.00    +0.000 A 
ATOM     28  N   UNL     1      44.205   2.221   9.559  0.00  0.00    +0.000 NA
ATOM     29  C   UNL     1      44.923   2.479   8.518  0.00  0.00    +0.000 A 
ATOM     30  N   UNL     1      45.596   3.654   8.302  0.00  0.00    +0.000 N 
ATOM     31  C   UNL     1      45.552   4.710   9.181  0.00  0.00    +0.000 A 
ATOM     32  O   UNL     1      46.121   5.769   8.935  0.00  0.00    +0.000 OA
ATOM     33  C   UNL     1      44.769   4.466  10.378  0.00  0.00    +0.000 A 
ATOM     34  H   UNL     1      46.134   3.796   7.460  0.00  0.00    +0.000 HD
ENDBRANCH  21  24
ENDBRANCH  19  20
ENDBRANCH   4  19
TORSDOF 6
ENDMDL
MODEL 8
REMARK VINA RESULT:    -6.354      4.583      9.806
REMARK INTER + INTRA:          -9.415
REMARK INTER:                  -8.446
REMARK INTRA:                  -0.969
REMARK UNBOUND:                -0.833
REMARK  Name = 
REMARK  6 active torsions:
REMARK  status: ('A' for Active; 'I' for Inactive)
REMARK    1  A    between atoms: C_2  and  C_25
REMARK    2  A    between atoms: N_3  and  C_4
REMARK    3  A    between atoms: C_4  and  C_5
REMARK    4  A    between atoms: C_8  and  C_9
REMARK    5  A    between atoms: C_9  and  N_10
REMARK    6  A    between atoms: C_11  and  C_13
REMARK                            x       y       z     vdW  Elec       q    Type
REMARK                         _______ _______ _______ _____ _____    ______ ____
ROOT
ATOM      1  C   UNL     1      50.323   8.584  13.146  0.00  0.00    +0.000 A 
ATOM      2  C   UNL     1      49.470   9.640  13.462  0.00  0.00    +0.000 A 
ATOM      3  C   UNL     1      48.132   9.572  13.072  0.00  0.00    +0.000 A 
ATOM      4  C   UNL     1      47.666   8.447  12.392  0.00  0.00    +0.000 A 
ATOM      5  C   UNL     1      48.592   7.451  12.104  0.00  0.00    +0.000 A 
ATOM      6  N   UNL     1      49.896   7.489  12.468  0.00  0.00    +0.000 NA
ENDROOT
BRANCH   1   7
ATOM      7  C   UNL     1      51.772   8.611  13.578  0.00  0.00    +0.000 C 
BRANCH   7  10
ATOM      8  O   UNL     1      51.539   8.521  16.391  0.00  0.00    +0.000 OA
ATOM      9  C   UNL     1      51.955   7.535  15.793  0.00  0.00    +0.000 C 
ATOM     10  N   UNL     1      52.120   7.491  14.428  0.00  0.00    +0.000 N 
ATOM     11  H   UNL     1      52.354   6.597  14.007  0.00  0.00    +0.000 HD
BRANCH   9  12
ATOM     12  C   UNL     1      52.317   6.283  16.530  0.00  0.00    +0.000 A 
ATOM     13  C   UNL     1      51.297   5.476  17.029  0.00  0.00    +0.000 A 
ATOM     14  C   UNL     1      51.642   4.329  17.742  0.00  0.00    +0.000 A 
ATOM     15  C   UNL     1      52.986   4.033  17.935  0.00  0.00    +0.000 A 
ATOM     16 CL   UNL     1      53.449   2.638  18.822  0.00  0.00    +0.000 Cl
ATOM     17  C   UNL     1      53.939   4.891  17.399  0.00  0.00    +0.000 A 
ATOM     18  N   UNL     1      53.643   6.012  16.692  0.00  0.00    +0.000 NA
ENDBRANCH   9  12
ENDBRANCH   7  10
ENDBRANCH   1   7
BRANCH   4  19
ATOM     19  C   UNL     1      46.235   8.311  11.956  0.00  0.00    +0.000 C 
BRANCH  19  20
ATOM     20  N   UNL     1      45.879   6.934  11.731  0.00  0.00    +0.000 N 
ATOM     21  C   UNL     1      44.597   6.571  11.403  0.00  0.00    +0.000 C 
ATOM     22  O   UNL     1      43.704   7.400  11.247  0.00  0.00    +0.000 OA
ATOM     23  H   UNL     1      46.515   6.227  12.084  0.00  0.00    +0.000 HD
BRANCH  21  24
ATOM     24  C   UNL     1      44.361   5.137  11.182  0.00  0.00    +0.000 A 
ATOM     25  C   UNL     1      43.609   4.411  12.096  0.00  0.00    +0.000 A 
ATOM     26  S   UNL     1      43.386   2.778  11.653  0.00  0.00    +0.000 S 
ATOM     27  C   UNL     1      44.335   2.971  10.254  0.00  0.00    +0.000 A 
ATOM     28  N   UNL     1      44.572   1.924   9.418  0.00  0.00    +0.000 NA
ATOM     29  C   UNL     1      45.334   2.205   8.415  0.00  0.00    +0.000 A 
ATOM     30  N   UNL     1      45.878   3.439   8.166  0.00  0.00    +0.000 N 
ATOM     31  C   UNL     1      45.638   4.533   8.963  0.00  0.00    +0.000 A 
ATOM     32  O   UNL     1      46.095   5.638   8.685  0.00  0.00    +0.000 OA
ATOM     33  C   UNL     1      44.798   4.267  10.116  0.00  0.00    +0.000 A 
ATOM     34  H   UNL     1      46.459   3.596   7.357  0.00  0.00    +0.000 HD
ENDBRANCH  21  24
ENDBRANCH  19  20
ENDBRANCH   4  19
TORSDOF 6
ENDMDL
MODEL 9
REMARK VINA RESULT:    -6.112      6.333      8.695
REMARK INTER + INTRA:          -9.089
REMARK INTER:                  -8.056
REMARK INTRA:                  -1.032
REMARK UNBOUND:                -0.833
REMARK  Name = 
REMARK  6 active torsions:
REMARK  status: ('A' for Active; 'I' for Inactive)
REMARK    1  A    between atoms: C_2  and  C_25
REMARK    2  A    between atoms: N_3  and  C_4
REMARK    3  A    between atoms: C_4  and  C_5
REMARK    4  A    between atoms: C_8  and  C_9
REMARK    5  A    between atoms: C_9  and  N_10
REMARK    6  A    between atoms: C_11  and  C_13
REMARK                            x       y       z     vdW  Elec       q    Type
REMARK                         _______ _______ _______ _____ _____    ______ ____
ROOT
ATOM      1  C   UNL     1      52.385   9.152   9.816  0.00  0.00    +0.000 A 
ATOM      2  C   UNL     1      51.968   7.950  10.384  0.00  0.00    +0.000 A 
ATOM      3  C   UNL     1      50.891   7.956  11.272  0.00  0.00    +0.000 A 
ATOM      4  C   UNL     1      50.240   9.157  11.562  0.00  0.00    +0.000 A 
ATOM      5  C   UNL     1      50.738  10.308  10.962  0.00  0.00    +0.000 A 
ATOM      6  N   UNL     1      51.780  10.333  10.098  0.00  0.00    +0.000 NA
ENDROOT
BRANCH   1   7
ATOM      7  C   UNL     1      53.529   9.178   8.828  0.00  0.00    +0.000 C 
BRANCH   7  10
ATOM      8  O   UNL     1      52.601   8.258   6.325  0.00  0.00    +0.000 OA
ATOM      9  C   UNL     1      53.307   7.525   7.007  0.00  0.00    +0.000 C 
ATOM     10  N   UNL     1      53.791   7.877   8.246  0.00  0.00    +0.000 N 
ATOM     11  H   UNL     1      54.465   7.258   8.686  0.00  0.00    +0.000 HD
BRANCH   9  12
ATOM     12  C   UNL     1      53.700   6.163   6.522  0.00  0.00    +0.000 A 
ATOM     13  C   UNL     1      53.467   5.063   7.343  0.00  0.00    +0.000 A 
ATOM     14  C   UNL     1      53.864   3.803   6.899  0.00  0.00    +0.000 A 
ATOM     15  C   UNL     1      54.481   3.687   5.659  0.00  0.00    +0.000 A 
ATOM     16 CL   UNL     1      54.999   2.155   5.086  0.00  0.00    +0.000 Cl
ATOM     17  C   UNL     1      54.671   4.838   4.902  0.00  0.00    +0.000 A 
ATOM     18  N   UNL     1      54.291   6.081   5.296  0.00  0.00    +0.000 NA
ENDBRANCH   9  12
ENDBRANCH   7  10
ENDBRANCH   1   7
BRANCH   4  19
ATOM     19  C   UNL     1      49.070   9.225  12.500  0.00  0.00    +0.000 C 
BRANCH  19  20
ATOM     20  N   UNL     1      48.166   8.121  12.299  0.00  0.00    +0.000 N 
ATOM     21  C   UNL     1      47.667   7.403  13.356  0.00  0.00    +0.000 C 
ATOM     22  O   UNL     1      47.933   7.688  14.521  0.00  0.00    +0.000 OA
ATOM     23  H   UNL     1      48.126   7.718  11.368  0.00  0.00    +0.000 HD
BRANCH  21  24
ATOM     24  C   UNL     1      46.742   6.310  13.024  0.00  0.00    +0.000 A 
ATOM     25  C   UNL     1      47.065   5.003  13.363  0.00  0.00    +0.000 A 
ATOM     26  S   UNL     1      45.853   3.873  12.957  0.00  0.00    +0.000 S 
ATOM     27  C   UNL     1      44.881   5.083  12.261  0.00  0.00    +0.000 A 
ATOM     28  N   UNL     1      43.684   4.778  11.691  0.00  0.00    +0.000 NA
ATOM     29  C   UNL     1      43.068   5.787  11.173  0.00  0.00    +0.000 A 
ATOM     30  N   UNL     1      43.535   7.076  11.177  0.00  0.00    +0.000 N 
ATOM     31  C   UNL     1      44.722   7.437  11.771  0.00  0.00    +0.000 A 
ATOM     32  O   UNL     1      45.088   8.607  11.806  0.00  0.00    +0.000 OA
ATOM     33  C   UNL     1      45.463   6.334  12.356  0.00  0.00    +0.000 A 
ATOM     34  H   UNL     1      42.999   7.824  10.763  0.00  0.00    +0.000 HD
ENDBRANCH  21  24
ENDBRANCH  19  20
ENDBRANCH   4  19
TORSDOF 6
ENDMDL
