MODEL 1
REMARK VINA RESULT:    -8.461      0.000      0.000
REMARK INTER + INTRA:         -13.345
REMARK INTER:                 -12.418
REMARK INTRA:                  -0.927
REMARK UNBOUND:                -0.927
REMARK  Name = 
REMARK  8 active torsions:
REMARK  status: ('A' for Active; 'I' for Inactive)
REMARK    1  A    between atoms: C_2  and  C_3
REMARK    2  A    between atoms: C_6  and  C_7
REMARK    3  A    between atoms: C_7  and  O_8
REMARK    4  A    between atoms: O_8  and  C_9
REMARK    5  A    between atoms: C_9  and  C_10
REMARK    6  A    between atoms: C_13  and  C_14
REMARK    7  A    between atoms: C_14  and  N_15
REMARK    8  A    between atoms: C_16  and  C_18
REMARK                            x       y       z     vdW  Elec       q    Type
REMARK                         _______ _______ _______ _____ _____    ______ ____
ROOT
ATOM      1  C   UNL     1      44.400   5.745  12.005  0.00  0.00    +0.000 A 
ATOM      2  C   UNL     1      45.255   6.724  11.479  0.00  0.00    +0.000 A 
ATOM      3  C   UNL     1      46.508   6.963  12.053  0.00  0.00    +0.000 A 
ATOM      4  C   UNL     1      46.936   6.220  13.160  0.00  0.00    +0.000 A 
ATOM      5  C   UNL     1      46.068   5.265  13.706  0.00  0.00    +0.000 A 
ATOM      6  C   UNL     1      44.816   5.025  13.131  0.00  0.00    +0.000 A 
ENDROOT
BRANCH   1   7
ATOM      7  C   UNL     1      43.062   5.482  11.363  0.00  0.00    +0.000 C 
BRANCH   7   8
ATOM      8  O   UNL     1      43.288   4.800  10.135  0.00  0.00    +0.000 OA
BRANCH   8   9
ATOM      9  C   UNL     1      43.796   3.480  10.337  0.00  0.00    +0.000 C 
BRANCH   9  13
ATOM     10  C   UNL     1      46.700   2.462   7.376  0.00  0.00    +0.000 A 
ATOM     11  C   UNL     1      46.347   3.800   7.533  0.00  0.00    +0.000 A 
ATOM     12  C   UNL     1      45.404   4.147   8.500  0.00  0.00    +0.000 A 
ATOM     13  C   UNL     1      44.827   3.144   9.280  0.00  0.00    +0.000 A 
ATOM     14  N   UNL     1      45.182   1.839   9.155  0.00  0.00    +0.000 NA
ATOM     15  C   UNL     1      46.101   1.529   8.207  0.00  0.00    +0.000 A 
BRANCH  10  17
ATOM     16  N   UNL     1      48.411   1.723   5.582  0.00  0.00    +0.000 NA
ATOM     17  C   UNL     1      47.647   2.054   6.387  0.00  0.00    +0.000 C 
ENDBRANCH  10  17
ENDBRANCH   9  13
ENDBRANCH   8   9
ENDBRANCH   7   8
ENDBRANCH   1   7
BRANCH   4  18
ATOM     18  C   UNL     1      48.291   6.455  13.777  0.00  0.00    +0.000 C 
BRANCH  18  19
ATOM     19  N   UNL     1      48.196   6.582  15.209  0.00  0.00    +0.000 N 
ATOM     20  C   UNL     1      49.314   6.654  15.999  0.00  0.00    +0.000 C 
ATOM     21  O   UNL     1      50.449   6.645  15.529  0.00  0.00    +0.000 OA
ATOM     22  H   UNL     1      47.303   6.347  15.630  0.00  0.00    +0.000 HD
BRANCH  20  23
ATOM     23  C   UNL     1      49.082   6.809  17.440  0.00  0.00    +0.000 A 
ATOM     24  C   UNL     1      49.028   8.079  18.001  0.00  0.00    +0.000 A 
ATOM     25  S   UNL     1      48.703   8.073  19.675  0.00  0.00    +0.000 S 
ATOM     26  C   UNL     1      48.672   6.372  19.720  0.00  0.00    +0.000 A 
ATOM     27  N   UNL     1      48.465   5.705  20.887  0.00  0.00    +0.000 NA
ATOM     28  C   UNL     1      48.497   4.419  20.779  0.00  0.00    +0.000 A 
ATOM     29  N   UNL     1      48.710   3.738  19.609  0.00  0.00    +0.000 N 
ATOM     30  C   UNL     1      48.890   4.368  18.401  0.00  0.00    +0.000 A 
ATOM     31  O   UNL     1      49.023   3.728  17.364  0.00  0.00    +0.000 OA
ATOM     32  C   UNL     1      48.883   5.816  18.470  0.00  0.00    +0.000 A 
ATOM     33  H   UNL     1      48.709   2.729  19.587  0.00  0.00    +0.000 HD
ENDBRANCH  20  23
ENDBRANCH  18  19
ENDBRANCH   4  18
TORSDOF 8
ENDMDL
MODEL 2
REMARK VINA RESULT:    -8.082      1.325      1.955
REMARK INTER + INTRA:         -12.789
REMARK INTER:                 -11.917
REMARK INTRA:                  -0.871
REMARK UNBOUND:                -0.927
REMARK  Name = 
REMARK  8 active torsions:
REMARK  status: ('A' for Active; 'I' for Inactive)
REMARK    1  A    between atoms: C_2  and  C_3
REMARK    2  A    between atoms: C_6  and  C_7
REMARK    3  A    between atoms: C_7  and  O_8
REMARK    4  A    between atoms: O_8  and  C_9
REMARK    5  A    between atoms: C_9  and  C_10
REMARK    6  A    between atoms: C_13  and  C_14
REMARK    7  A    between atoms: C_14  and  N_15
REMARK    8  A    between atoms: C_16  and  C_18
REMARK                            x       y       z     vdW  Elec       q    Type
REMARK                         _______ _______ _______ _____ _____    ______ ____
ROOT
ATOM      1  C   UNL     1      44.326   5.590  12.214  0.00  0.00    +0.000 A 
ATOM      2  C   UNL     1      45.086   6.720  11.879  0.00  0.00    +0.000 A 
ATOM      3  C   UNL     1      46.318   6.962  12.495  0.00  0.00    +0.000 A 
ATOM      4  C   UNL     1      46.821   6.073  13.453  0.00  0.00    +0.000 A 
ATOM      5  C   UNL     1      46.045   4.961  13.811  0.00  0.00    +0.000 A 
ATOM      6  C   UNL     1      44.815   4.718  13.194  0.00  0.00    +0.000 A 
ENDROOT
BRANCH   1   7
ATOM      7  C   UNL     1      43.010   5.329  11.526  0.00  0.00    +0.000 C 
BRANCH   7   8
ATOM      8  O   UNL     1      43.282   4.704  10.277  0.00  0.00    +0.000 OA
BRANCH   8   9
ATOM      9  C   UNL     1      43.811   3.388  10.436  0.00  0.00    +0.000 C 
BRANCH   9  13
ATOM     10  C   UNL     1      46.690   2.492   7.412  0.00  0.00    +0.000 A 
ATOM     11  C   UNL     1      46.336   3.822   7.624  0.00  0.00    +0.000 A 
ATOM     12  C   UNL     1      45.402   4.129   8.613  0.00  0.00    +0.000 A 
ATOM     13  C   UNL     1      44.833   3.095   9.358  0.00  0.00    +0.000 A 
ATOM     14  N   UNL     1      45.189   1.796   9.179  0.00  0.00    +0.000 NA
ATOM     15  C   UNL     1      46.100   1.526   8.211  0.00  0.00    +0.000 A 
BRANCH  10  17
ATOM     16  N   UNL     1      48.392   1.831   5.580  0.00  0.00    +0.000 NA
ATOM     17  C   UNL     1      47.629   2.125   6.399  0.00  0.00    +0.000 C 
ENDBRANCH  10  17
ENDBRANCH   9  13
ENDBRANCH   8   9
ENDBRANCH   7   8
ENDBRANCH   1   7
BRANCH   4  18
ATOM     18  C   UNL     1      48.155   6.312  14.112  0.00  0.00    +0.000 C 
BRANCH  18  19
ATOM     19  N   UNL     1      48.062   6.172  15.542  0.00  0.00    +0.000 N 
ATOM     20  C   UNL     1      49.178   6.195  16.340  0.00  0.00    +0.000 C 
ATOM     21  O   UNL     1      50.305   6.365  15.883  0.00  0.00    +0.000 OA
ATOM     22  H   UNL     1      47.196   5.791  15.909  0.00  0.00    +0.000 HD
BRANCH  20  23
ATOM     23  C   UNL     1      48.945   6.069  17.783  0.00  0.00    +0.000 A 
ATOM     24  C   UNL     1      49.268   4.887  18.437  0.00  0.00    +0.000 A 
ATOM     25  S   UNL     1      48.977   4.935  20.118  0.00  0.00    +0.000 S 
ATOM     26  C   UNL     1      48.362   6.518  20.023  0.00  0.00    +0.000 A 
ATOM     27  N   UNL     1      47.898   7.157  21.130  0.00  0.00    +0.000 NA
ATOM     28  C   UNL     1      47.434   8.341  20.906  0.00  0.00    +0.000 A 
ATOM     29  N   UNL     1      47.397   8.947  19.678  0.00  0.00    +0.000 N 
ATOM     30  C   UNL     1      47.885   8.354  18.539  0.00  0.00    +0.000 A 
ATOM     31  O   UNL     1      47.887   8.947  17.466  0.00  0.00    +0.000 OA
ATOM     32  C   UNL     1      48.401   7.013  18.731  0.00  0.00    +0.000 A 
ATOM     33  H   UNL     1      47.034   9.883  19.571  0.00  0.00    +0.000 HD
ENDBRANCH  20  23
ENDBRANCH  18  19
ENDBRANCH   4  18
TORSDOF 8
ENDMDL
MODEL 3
REMARK VINA RESULT:    -7.699      1.740      2.137
REMARK INTER + INTRA:         -12.226
REMARK INTER:                 -11.231
REMARK INTRA:                  -0.995
REMARK UNBOUND:                -0.927
REMARK  Name = 
REMARK  8 active torsions:
REMARK  status: ('A' for Active; 'I' for Inactive)
REMARK    1  A    between atoms: C_2  and  C_3
REMARK    2  A    between atoms: C_6  and  C_7
REMARK    3  A    between atoms: C_7  and  O_8
REMARK    4  A    between atoms: O_8  and  C_9
REMARK    5  A    between atoms: C_9  and  C_10
REMARK    6  A    between atoms: C_13  and  C_14
REMARK    7  A    between atoms: C_14  and  N_15
REMARK    8  A    between atoms: C_16  and  C_18
REMARK                            x       y       z     vdW  Elec       q    Type
REMARK                         _______ _______ _______ _____ _____    ______ ____
ROOT
ATOM      1  C   UNL     1      45.685   5.084  12.600  0.00  0.00    +0.000 A 
ATOM      2  C   UNL     1      45.088   6.313  12.285  0.00  0.00    +0.000 A 
ATOM      3  C   UNL     1      45.674   7.517  12.687  0.00  0.00    +0.000 A 
ATOM      4  C   UNL     1      46.876   7.518  13.404  0.00  0.00    +0.000 A 
ATOM      5  C   UNL     1      47.456   6.289  13.747  0.00  0.00    +0.000 A 
ATOM      6  C   UNL     1      46.871   5.085  13.344  0.00  0.00    +0.000 A 
ENDROOT
BRANCH   1   7
ATOM      7  C   UNL     1      45.056   3.794  12.141  0.00  0.00    +0.000 C 
BRANCH   7   8
ATOM      8  O   UNL     1      44.199   4.086  11.044  0.00  0.00    +0.000 OA
BRANCH   8   9
ATOM      9  C   UNL     1      43.906   2.927  10.264  0.00  0.00    +0.000 C 
BRANCH   9  13
ATOM     10  C   UNL     1      46.801   2.383   7.172  0.00  0.00    +0.000 A 
ATOM     11  C   UNL     1      46.301   3.662   7.401  0.00  0.00    +0.000 A 
ATOM     12  C   UNL     1      45.359   3.854   8.411  0.00  0.00    +0.000 A 
ATOM     13  C   UNL     1      44.931   2.759   9.162  0.00  0.00    +0.000 A 
ATOM     14  N   UNL     1      45.431   1.511   8.966  0.00  0.00    +0.000 NA
ATOM     15  C   UNL     1      46.346   1.352   7.977  0.00  0.00    +0.000 A 
BRANCH  10  17
ATOM     16  N   UNL     1      48.524   1.923   5.298  0.00  0.00    +0.000 NA
ATOM     17  C   UNL     1      47.754   2.131   6.137  0.00  0.00    +0.000 C 
ENDBRANCH  10  17
ENDBRANCH   9  13
ENDBRANCH   8   9
ENDBRANCH   7   8
ENDBRANCH   1   7
BRANCH   4  18
ATOM     18  C   UNL     1      47.528   8.810  13.828  0.00  0.00    +0.000 C 
BRANCH  18  19
ATOM     19  N   UNL     1      47.319   9.063  15.230  0.00  0.00    +0.000 N 
ATOM     20  C   UNL     1      48.369   9.156  16.108  0.00  0.00    +0.000 C 
ATOM     21  O   UNL     1      49.537   9.060  15.742  0.00  0.00    +0.000 OA
ATOM     22  H   UNL     1      46.383   8.902  15.589  0.00  0.00    +0.000 HD
BRANCH  20  23
ATOM     23  C   UNL     1      48.023   9.443  17.504  0.00  0.00    +0.000 A 
ATOM     24  C   UNL     1      47.791  10.753  17.906  0.00  0.00    +0.000 A 
ATOM     25  S   UNL     1      47.355  10.896  19.549  0.00  0.00    +0.000 S 
ATOM     26  C   UNL     1      47.510   9.220  19.795  0.00  0.00    +0.000 A 
ATOM     27  N   UNL     1      47.300   8.669  21.020  0.00  0.00    +0.000 NA
ATOM     28  C   UNL     1      47.482   7.391  21.068  0.00  0.00    +0.000 A 
ATOM     29  N   UNL     1      47.848   6.614  20.001  0.00  0.00    +0.000 N 
ATOM     30  C   UNL     1      48.038   7.121  18.739  0.00  0.00    +0.000 A 
ATOM     31  O   UNL     1      48.312   6.388  17.794  0.00  0.00    +0.000 OA
ATOM     32  C   UNL     1      47.866   8.556  18.634  0.00  0.00    +0.000 A 
ATOM     33  H   UNL     1      47.960   5.615  20.100  0.00  0.00    +0.000 HD
ENDBRANCH  20  23
ENDBRANCH  18  19
ENDBRANCH   4  18
TORSDOF 8
ENDMDL
MODEL 4
REMARK VINA RESULT:    -7.561      2.336      2.944
REMARK INTER + INTRA:         -12.023
REMARK INTER:                 -11.749
REMARK INTRA:                  -0.275
REMARK UNBOUND:                -0.927
REMARK  Name = 
REMARK  8 active torsions:
REMARK  status: ('A' for Active; 'I' for Inactive)
REMARK    1  A    between atoms: C_2  and  C_3
REMARK    2  A    between atoms: C_6  and  C_7
REMARK    3  A    between atoms: C_7  and  O_8
REMARK    4  A    between atoms: O_8  and  C_9
REMARK    5  A    between atoms: C_9  and  C_10
REMARK    6  A    between atoms: C_13  and  C_14
REMARK    7  A    between atoms: C_14  and  N_15
REMARK    8  A    between atoms: C_16  and  C_18
REMARK                            x       y       z     vdW  Elec       q    Type
REMARK                         _______ _______ _______ _____ _____    ______ ____
ROOT
ATOM      1  C   UNL     1      46.618   6.075  12.146  0.00  0.00    +0.000 A 
ATOM      2  C   UNL     1      47.114   7.387  12.168  0.00  0.00    +0.000 A 
ATOM      3  C   UNL     1      47.793   7.877  13.288  0.00  0.00    +0.000 A 
ATOM      4  C   UNL     1      47.999   7.062  14.408  0.00  0.00    +0.000 A 
ATOM      5  C   UNL     1      47.474   5.763  14.399  0.00  0.00    +0.000 A 
ATOM      6  C   UNL     1      46.797   5.271  13.278  0.00  0.00    +0.000 A 
ENDROOT
BRANCH   1   7
ATOM      7  C   UNL     1      45.909   5.551  10.924  0.00  0.00    +0.000 C 
BRANCH   7   8
ATOM      8  O   UNL     1      44.688   4.954  11.345  0.00  0.00    +0.000 OA
BRANCH   8   9
ATOM      9  C   UNL     1      43.961   4.388  10.255  0.00  0.00    +0.000 C 
BRANCH   9  13
ATOM     10  C   UNL     1      46.643   2.579   7.467  0.00  0.00    +0.000 A 
ATOM     11  C   UNL     1      45.986   1.765   8.387  0.00  0.00    +0.000 A 
ATOM     12  C   UNL     1      45.103   2.342   9.299  0.00  0.00    +0.000 A 
ATOM     13  C   UNL     1      44.907   3.724   9.278  0.00  0.00    +0.000 A 
ATOM     14  N   UNL     1      45.522   4.525   8.369  0.00  0.00    +0.000 NA
ATOM     15  C   UNL     1      46.375   3.938   7.493  0.00  0.00    +0.000 A 
BRANCH  10  17
ATOM     16  N   UNL     1      48.323   1.595   5.765  0.00  0.00    +0.000 NA
ATOM     17  C   UNL     1      47.571   2.038   6.525  0.00  0.00    +0.000 C 
ENDBRANCH  10  17
ENDBRANCH   9  13
ENDBRANCH   8   9
ENDBRANCH   7   8
ENDBRANCH   1   7
BRANCH   4  18
ATOM     18  C   UNL     1      48.744   7.572  15.614  0.00  0.00    +0.000 C 
BRANCH  18  19
ATOM     19  N   UNL     1      49.791   6.662  16.002  0.00  0.00    +0.000 N 
ATOM     20  C   UNL     1      49.801   6.063  17.236  0.00  0.00    +0.000 C 
ATOM     21  O   UNL     1      48.907   6.244  18.058  0.00  0.00    +0.000 OA
ATOM     22  H   UNL     1      50.645   6.688  15.455  0.00  0.00    +0.000 HD
BRANCH  20  23
ATOM     23  C   UNL     1      50.908   5.136  17.497  0.00  0.00    +0.000 A 
ATOM     24  C   UNL     1      52.149   5.629  17.881  0.00  0.00    +0.000 A 
ATOM     25  S   UNL     1      53.302   4.410  18.190  0.00  0.00    +0.000 S 
ATOM     26  C   UNL     1      52.200   3.183  17.774  0.00  0.00    +0.000 A 
ATOM     27  N   UNL     1      52.567   1.874  17.796  0.00  0.00    +0.000 NA
ATOM     28  C   UNL     1      51.639   1.054  17.428  0.00  0.00    +0.000 A 
ATOM     29  N   UNL     1      50.376   1.423  17.047  0.00  0.00    +0.000 N 
ATOM     30  C   UNL     1      49.950   2.729  17.042  0.00  0.00    +0.000 A 
ATOM     31  O   UNL     1      48.796   3.019  16.747  0.00  0.00    +0.000 OA
ATOM     32  C   UNL     1      50.961   3.694  17.427  0.00  0.00    +0.000 A 
ATOM     33  H   UNL     1      49.690   0.731  16.784  0.00  0.00    +0.000 HD
ENDBRANCH  20  23
ENDBRANCH  18  19
ENDBRANCH   4  18
TORSDOF 8
ENDMDL
MODEL 5
REMARK VINA RESULT:    -7.548      1.977      2.286
REMARK INTER + INTRA:         -12.004
REMARK INTER:                 -10.727
REMARK INTRA:                  -1.277
REMARK UNBOUND:                -0.927
REMARK  Name = 
REMARK  8 active torsions:
REMARK  status: ('A' for Active; 'I' for Inactive)
REMARK    1  A    between atoms: C_2  and  C_3
REMARK    2  A    between atoms: C_6  and  C_7
REMARK    3  A    between atoms: C_7  and  O_8
REMARK    4  A    between atoms: O_8  and  C_9
REMARK    5  A    between atoms: C_9  and  C_10
REMARK    6  A    between atoms: C_13  and  C_14
REMARK    7  A    between atoms: C_14  and  N_15
REMARK    8  A    between atoms: C_16  and  C_18
REMARK                            x       y       z     vdW  Elec       q    Type
REMARK                         _______ _______ _______ _____ _____    ______ ____
ROOT
ATOM      1  C   UNL     1      45.472   5.018  12.435  0.00  0.00    +0.000 A 
ATOM      2  C   UNL     1      45.701   6.097  11.569  0.00  0.00    +0.000 A 
ATOM      3  C   UNL     1      46.823   6.917  11.729  0.00  0.00    +0.000 A 
ATOM      4  C   UNL     1      47.744   6.669  12.753  0.00  0.00    +0.000 A 
ATOM      5  C   UNL     1      47.497   5.611  13.639  0.00  0.00    +0.000 A 
ATOM      6  C   UNL     1      46.377   4.790  13.477  0.00  0.00    +0.000 A 
ENDROOT
BRANCH   1   7
ATOM      7  C   UNL     1      44.272   4.128  12.238  0.00  0.00    +0.000 C 
BRANCH   7   8
ATOM      8  O   UNL     1      43.908   4.176  10.863  0.00  0.00    +0.000 OA
BRANCH   8   9
ATOM      9  C   UNL     1      43.835   2.875  10.279  0.00  0.00    +0.000 C 
BRANCH   9  13
ATOM     10  C   UNL     1      46.776   2.386   7.222  0.00  0.00    +0.000 A 
ATOM     11  C   UNL     1      46.253   3.657   7.449  0.00  0.00    +0.000 A 
ATOM     12  C   UNL     1      45.297   3.832   8.448  0.00  0.00    +0.000 A 
ATOM     13  C   UNL     1      44.875   2.727   9.190  0.00  0.00    +0.000 A 
ATOM     14  N   UNL     1      45.396   1.487   8.995  0.00  0.00    +0.000 NA
ATOM     15  C   UNL     1      46.325   1.346   8.017  0.00  0.00    +0.000 A 
BRANCH  10  17
ATOM     16  N   UNL     1      48.531   1.961   5.370  0.00  0.00    +0.000 NA
ATOM     17  C   UNL     1      47.745   2.153   6.197  0.00  0.00    +0.000 C 
ENDBRANCH  10  17
ENDBRANCH   9  13
ENDBRANCH   8   9
ENDBRANCH   7   8
ENDBRANCH   1   7
BRANCH   4  18
ATOM     18  C   UNL     1      48.967   7.534  12.926  0.00  0.00    +0.000 C 
BRANCH  18  19
ATOM     19  N   UNL     1      49.842   7.001  13.939  0.00  0.00    +0.000 N 
ATOM     20  C   UNL     1      50.598   7.821  14.737  0.00  0.00    +0.000 C 
ATOM     21  O   UNL     1      50.546   9.045  14.653  0.00  0.00    +0.000 OA
ATOM     22  H   UNL     1      50.085   6.019  13.863  0.00  0.00    +0.000 HD
BRANCH  20  23
ATOM     23  C   UNL     1      51.428   7.156  15.748  0.00  0.00    +0.000 A 
ATOM     24  C   UNL     1      52.807   7.321  15.731  0.00  0.00    +0.000 A 
ATOM     25  S   UNL     1      53.608   6.517  17.005  0.00  0.00    +0.000 S 
ATOM     26  C   UNL     1      52.145   5.878  17.595  0.00  0.00    +0.000 A 
ATOM     27  N   UNL     1      52.126   5.057  18.679  0.00  0.00    +0.000 NA
ATOM     28  C   UNL     1      50.952   4.623  18.997  0.00  0.00    +0.000 A 
ATOM     29  N   UNL     1      49.795   4.940  18.335  0.00  0.00    +0.000 N 
ATOM     30  C   UNL     1      49.762   5.791  17.257  0.00  0.00    +0.000 A 
ATOM     31  O   UNL     1      48.702   6.097  16.722  0.00  0.00    +0.000 OA
ATOM     32  C   UNL     1      51.058   6.292  16.845  0.00  0.00    +0.000 A 
ATOM     33  H   UNL     1      48.904   4.579  18.643  0.00  0.00    +0.000 HD
ENDBRANCH  20  23
ENDBRANCH  18  19
ENDBRANCH   4  18
TORSDOF 8
ENDMDL
MODEL 6
REMARK VINA RESULT:    -7.466      2.637      3.423
REMARK INTER + INTRA:         -11.884
REMARK INTER:                 -10.779
REMARK INTRA:                  -1.105
REMARK UNBOUND:                -0.927
REMARK  Name = 
REMARK  8 active torsions:
REMARK  status: ('A' for Active; 'I' for Inactive)
REMARK    1  A    between atoms: C_2  and  C_3
REMARK    2  A    between atoms: C_6  and  C_7
REMARK    3  A    between atoms: C_7  and  O_8
REMARK    4  A    between atoms: O_8  and  C_9
REMARK    5  A    between atoms: C_9  and  C_10
REMARK    6  A    between atoms: C_13  and  C_14
REMARK    7  A    between atoms: C_14  and  N_15
REMARK    8  A    between atoms: C_16  and  C_18
REMARK                            x       y       z     vdW  Elec       q    Type
REMARK                         _______ _______ _______ _____ _____    ______ ____
ROOT
ATOM      1  C   UNL     1      45.203   6.138  12.686  0.00  0.00    +0.000 A 
ATOM      2  C   UNL     1      45.352   7.528  12.583  0.00  0.00    +0.000 A 
ATOM      3  C   UNL     1      46.605   8.128  12.746  0.00  0.00    +0.000 A 
ATOM      4  C   UNL     1      47.738   7.348  13.007  0.00  0.00    +0.000 A 
ATOM      5  C   UNL     1      47.583   5.961  13.143  0.00  0.00    +0.000 A 
ATOM      6  C   UNL     1      46.330   5.362  12.978  0.00  0.00    +0.000 A 
ENDROOT
BRANCH   1   7
ATOM      7  C   UNL     1      43.851   5.502  12.486  0.00  0.00    +0.000 C 
BRANCH   7   8
ATOM      8  O   UNL     1      44.016   4.376  11.632  0.00  0.00    +0.000 OA
BRANCH   8   9
ATOM      9  C   UNL     1      43.772   4.697  10.263  0.00  0.00    +0.000 C 
BRANCH   9  13
ATOM     10  C   UNL     1      46.465   2.603   7.694  0.00  0.00    +0.000 A 
ATOM     11  C   UNL     1      45.723   1.875   8.620  0.00  0.00    +0.000 A 
ATOM     12  C   UNL     1      44.836   2.545   9.461  0.00  0.00    +0.000 A 
ATOM     13  C   UNL     1      44.720   3.933   9.364  0.00  0.00    +0.000 A 
ATOM     14  N   UNL     1      45.420   4.652   8.447  0.00  0.00    +0.000 NA
ATOM     15  C   UNL     1      46.275   3.974   7.642  0.00  0.00    +0.000 A 
BRANCH  10  17
ATOM     16  N   UNL     1      48.161   1.450   6.118  0.00  0.00    +0.000 NA
ATOM     17  C   UNL     1      47.401   1.964   6.824  0.00  0.00    +0.000 C 
ENDBRANCH  10  17
ENDBRANCH   9  13
ENDBRANCH   8   9
ENDBRANCH   7   8
ENDBRANCH   1   7
BRANCH   4  18
ATOM     18  C   UNL     1      49.098   7.979  13.167  0.00  0.00    +0.000 C 
BRANCH  18  19
ATOM     19  N   UNL     1      49.918   7.223  14.079  0.00  0.00    +0.000 N 
ATOM     20  C   UNL     1      49.913   7.477  15.427  0.00  0.00    +0.000 C 
ATOM     21  O   UNL     1      49.191   8.334  15.929  0.00  0.00    +0.000 OA
ATOM     22  H   UNL     1      50.685   6.696  13.674  0.00  0.00    +0.000 HD
BRANCH  20  23
ATOM     23  C   UNL     1      50.773   6.619  16.251  0.00  0.00    +0.000 A 
ATOM     24  C   UNL     1      50.208   5.781  17.203  0.00  0.00    +0.000 A 
ATOM     25  S   UNL     1      51.349   4.822  18.034  0.00  0.00    +0.000 S 
ATOM     26  C   UNL     1      52.644   5.530  17.185  0.00  0.00    +0.000 A 
ATOM     27  N   UNL     1      53.930   5.171  17.442  0.00  0.00    +0.000 NA
ATOM     28  C   UNL     1      54.811   5.810  16.747  0.00  0.00    +0.000 A 
ATOM     29  N   UNL     1      54.522   6.770  15.813  0.00  0.00    +0.000 N 
ATOM     30  C   UNL     1      53.238   7.141  15.496  0.00  0.00    +0.000 A 
ATOM     31  O   UNL     1      53.014   7.965  14.616  0.00  0.00    +0.000 OA
ATOM     32  C   UNL     1      52.210   6.467  16.264  0.00  0.00    +0.000 A 
ATOM     33  H   UNL     1      55.258   7.224  15.290  0.00  0.00    +0.000 HD
ENDBRANCH  20  23
ENDBRANCH  18  19
ENDBRANCH   4  18
TORSDOF 8
ENDMDL
MODEL 7
REMARK VINA RESULT:    -7.143      4.433      6.151
REMARK INTER + INTRA:         -11.410
REMARK INTER:                 -10.158
REMARK INTRA:                  -1.252
REMARK UNBOUND:                -0.927
REMARK  Name = 
REMARK  8 active torsions:
REMARK  status: ('A' for Active; 'I' for Inactive)
REMARK    1  A    between atoms: C_2  and  C_3
REMARK    2  A    between atoms: C_6  and  C_7
REMARK    3  A    between atoms: C_7  and  O_8
REMARK    4  A    between atoms: O_8  and  C_9
REMARK    5  A    between atoms: C_9  and  C_10
REMARK    6  A    between atoms: C_13  and  C_14
REMARK    7  A    between atoms: C_14  and  N_15
REMARK    8  A    between atoms: C_16  and  C_18
REMARK                            x       y       z     vdW  Elec       q    Type
REMARK                         _______ _______ _______ _____ _____    ______ ____
ROOT
ATOM      1  C   UNL     1      46.070   6.081  12.241  0.00  0.00    +0.000 A 
ATOM      2  C   UNL     1      45.656   7.361  11.845  0.00  0.00    +0.000 A 
ATOM      3  C   UNL     1      46.373   8.497  12.235  0.00  0.00    +0.000 A 
ATOM      4  C   UNL     1      47.525   8.376  13.021  0.00  0.00    +0.000 A 
ATOM      5  C   UNL     1      47.919   7.099  13.444  0.00  0.00    +0.000 A 
ATOM      6  C   UNL     1      47.204   5.963  13.053  0.00  0.00    +0.000 A 
ENDROOT
BRANCH   1   7
ATOM      7  C   UNL     1      45.302   4.864  11.795  0.00  0.00    +0.000 C 
BRANCH   7   8
ATOM      8  O   UNL     1      44.347   5.275  10.823  0.00  0.00    +0.000 OA
BRANCH   8   9
ATOM      9  C   UNL     1      43.776   4.168  10.126  0.00  0.00    +0.000 C 
BRANCH   9  13
ATOM     10  C   UNL     1      46.660   2.496   7.456  0.00  0.00    +0.000 A 
ATOM     11  C   UNL     1      46.004   1.650   8.346  0.00  0.00    +0.000 A 
ATOM     12  C   UNL     1      45.056   2.182   9.219  0.00  0.00    +0.000 A 
ATOM     13  C   UNL     1      44.794   3.552   9.190  0.00  0.00    +0.000 A 
ATOM     14  N   UNL     1      45.409   4.384   8.309  0.00  0.00    +0.000 NA
ATOM     15  C   UNL     1      46.326   3.840   7.471  0.00  0.00    +0.000 A 
BRANCH  10  17
ATOM     16  N   UNL     1      48.460   1.603   5.827  0.00  0.00    +0.000 NA
ATOM     17  C   UNL     1      47.652   2.002   6.555  0.00  0.00    +0.000 C 
ENDBRANCH  10  17
ENDBRANCH   9  13
ENDBRANCH   8   9
ENDBRANCH   7   8
ENDBRANCH   1   7
BRANCH   4  18
ATOM     18  C   UNL     1      48.317   9.590  13.433  0.00  0.00    +0.000 C 
BRANCH  18  19
ATOM     19  N   UNL     1      49.614   9.603  12.806  0.00  0.00    +0.000 N 
ATOM     20  C   UNL     1      49.811  10.181  11.578  0.00  0.00    +0.000 C 
ATOM     21  O   UNL     1      48.906  10.742  10.966  0.00  0.00    +0.000 OA
ATOM     22  H   UNL     1      50.302   8.948  13.164  0.00  0.00    +0.000 HD
BRANCH  20  23
ATOM     23  C   UNL     1      51.184  10.151  11.060  0.00  0.00    +0.000 A 
ATOM     24  C   UNL     1      51.878  11.339  10.866  0.00  0.00    +0.000 A 
ATOM     25  S   UNL     1      53.473  11.115  10.306  0.00  0.00    +0.000 S 
ATOM     26  C   UNL     1      53.277   9.425  10.255  0.00  0.00    +0.000 A 
ATOM     27  N   UNL     1      54.282   8.616   9.826  0.00  0.00    +0.000 NA
ATOM     28  C   UNL     1      53.985   7.359   9.811  0.00  0.00    +0.000 A 
ATOM     29  N   UNL     1      52.777   6.838  10.193  0.00  0.00    +0.000 N 
ATOM     30  C   UNL     1      51.745   7.613  10.664  0.00  0.00    +0.000 A 
ATOM     31  O   UNL     1      50.696   7.107  11.049  0.00  0.00    +0.000 OA
ATOM     32  C   UNL     1      52.020   9.036  10.682  0.00  0.00    +0.000 A 
ATOM     33  H   UNL     1      52.611   5.842  10.172  0.00  0.00    +0.000 HD
ENDBRANCH  20  23
ENDBRANCH  18  19
ENDBRANCH   4  18
TORSDOF 8
ENDMDL
MODEL 8
REMARK VINA RESULT:    -6.607      3.538      4.267
REMARK INTER + INTRA:         -10.624
REMARK INTER:                  -9.675
REMARK INTRA:                  -0.948
REMARK UNBOUND:                -0.927
REMARK  Name = 
REMARK  8 active torsions:
REMARK  status: ('A' for Active; 'I' for Inactive)
REMARK    1  A    between atoms: C_2  and  C_3
REMARK    2  A    between atoms: C_6  and  C_7
REMARK    3  A    between atoms: C_7  and  O_8
REMARK    4  A    between atoms: O_8  and  C_9
REMARK    5  A    between atoms: C_9  and  C_10
REMARK    6  A    between atoms: C_13  and  C_14
REMARK    7  A    between atoms: C_14  and  N_15
REMARK    8  A    between atoms: C_16  and  C_18
REMARK                            x       y       z     vdW  Elec       q    Type
REMARK                         _______ _______ _______ _____ _____    ______ ____
ROOT
ATOM      1  C   UNL     1      45.428   5.156  12.575  0.00  0.00    +0.000 A 
ATOM      2  C   UNL     1      44.789   6.386  12.367  0.00  0.00    +0.000 A 
ATOM      3  C   UNL     1      45.438   7.589  12.662  0.00  0.00    +0.000 A 
ATOM      4  C   UNL     1      46.746   7.587  13.164  0.00  0.00    +0.000 A 
ATOM      5  C   UNL     1      47.372   6.356  13.403  0.00  0.00    +0.000 A 
ATOM      6  C   UNL     1      46.724   5.153  13.105  0.00  0.00    +0.000 A 
ENDROOT
BRANCH   1   7
ATOM      7  C   UNL     1      44.726   3.868  12.231  0.00  0.00    +0.000 C 
BRANCH   7   8
ATOM      8  O   UNL     1      43.989   4.074  11.031  0.00  0.00    +0.000 OA
BRANCH   8   9
ATOM      9  C   UNL     1      43.771   2.857  10.317  0.00  0.00    +0.000 C 
BRANCH   9  13
ATOM     10  C   UNL     1      46.731   2.295   7.291  0.00  0.00    +0.000 A 
ATOM     11  C   UNL     1      46.252   3.581   7.526  0.00  0.00    +0.000 A 
ATOM     12  C   UNL     1      45.290   3.779   8.515  0.00  0.00    +0.000 A 
ATOM     13  C   UNL     1      44.819   2.683   9.239  0.00  0.00    +0.000 A 
ATOM     14  N   UNL     1      45.297   1.427   9.037  0.00  0.00    +0.000 NA
ATOM     15  C   UNL     1      46.233   1.263   8.069  0.00  0.00    +0.000 A 
BRANCH  10  17
ATOM     16  N   UNL     1      48.494   1.830   5.456  0.00  0.00    +0.000 NA
ATOM     17  C   UNL     1      47.703   2.037   6.276  0.00  0.00    +0.000 C 
ENDBRANCH  10  17
ENDBRANCH   9  13
ENDBRANCH   8   9
ENDBRANCH   7   8
ENDBRANCH   1   7
BRANCH   4  18
ATOM     18  C   UNL     1      47.465   8.876  13.469  0.00  0.00    +0.000 C 
BRANCH  18  19
ATOM     19  N   UNL     1      48.881   8.748  13.243  0.00  0.00    +0.000 N 
ATOM     20  C   UNL     1      49.786   9.555  13.885  0.00  0.00    +0.000 C 
ATOM     21  O   UNL     1      49.441  10.402  14.704  0.00  0.00    +0.000 OA
ATOM     22  H   UNL     1      49.168   8.243  12.411  0.00  0.00    +0.000 HD
BRANCH  20  23
ATOM     23  C   UNL     1      51.201   9.307  13.588  0.00  0.00    +0.000 A 
ATOM     24  C   UNL     1      51.831  10.014  12.571  0.00  0.00    +0.000 A 
ATOM     25  S   UNL     1      53.485   9.632  12.397  0.00  0.00    +0.000 S 
ATOM     26  C   UNL     1      53.406   8.473  13.640  0.00  0.00    +0.000 A 
ATOM     27  N   UNL     1      54.498   7.741  13.986  0.00  0.00    +0.000 NA
ATOM     28  C   UNL     1      54.287   6.878  14.924  0.00  0.00    +0.000 A 
ATOM     29  N   UNL     1      53.084   6.686  15.551  0.00  0.00    +0.000 N 
ATOM     30  C   UNL     1      51.964   7.424  15.259  0.00  0.00    +0.000 A 
ATOM     31  O   UNL     1      50.918   7.263  15.878  0.00  0.00    +0.000 OA
ATOM     32  C   UNL     1      52.141   8.395  14.197  0.00  0.00    +0.000 A 
ATOM     33  H   UNL     1      52.987   6.003  16.289  0.00  0.00    +0.000 HD
ENDBRANCH  20  23
ENDBRANCH  18  19
ENDBRANCH   4  18
TORSDOF 8
ENDMDL
MODEL 9
REMARK VINA RESULT:    -6.452      4.847      8.364
REMARK INTER + INTRA:         -10.396
REMARK INTER:                  -9.453
REMARK INTRA:                  -0.943
REMARK UNBOUND:                -0.927
REMARK  Name = 
REMARK  8 active torsions:
REMARK  status: ('A' for Active; 'I' for Inactive)
REMARK    1  A    between atoms: C_2  and  C_3
REMARK    2  A    between atoms: C_6  and  C_7
REMARK    3  A    between atoms: C_7  and  O_8
REMARK    4  A    between atoms: O_8  and  C_9
REMARK    5  A    between atoms: C_9  and  C_10
REMARK    6  A    between atoms: C_13  and  C_14
REMARK    7  A    between atoms: C_14  and  N_15
REMARK    8  A    between atoms: C_16  and  C_18
REMARK                            x       y       z     vdW  Elec       q    Type
REMARK                         _______ _______ _______ _____ _____    ______ ____
ROOT
ATOM      1  C   UNL     1      50.295   8.876  11.370  0.00  0.00    +0.000 A 
ATOM      2  C   UNL     1      49.284   9.844  11.440  0.00  0.00    +0.000 A 
ATOM      3  C   UNL     1      48.048   9.548  12.024  0.00  0.00    +0.000 A 
ATOM      4  C   UNL     1      47.801   8.279  12.560  0.00  0.00    +0.000 A 
ATOM      5  C   UNL     1      48.800   7.301  12.461  0.00  0.00    +0.000 A 
ATOM      6  C   UNL     1      50.037   7.598  11.879  0.00  0.00    +0.000 A 
ENDROOT
BRANCH   1   7
ATOM      7  C   UNL     1      51.630   9.215  10.759  0.00  0.00    +0.000 C 
BRANCH   7   8
ATOM      8  O   UNL     1      52.378   8.010  10.637  0.00  0.00    +0.000 OA
BRANCH   8   9
ATOM      9  C   UNL     1      53.483   8.150   9.744  0.00  0.00    +0.000 C 
BRANCH   9  13
ATOM     10  C   UNL     1      53.962   4.623   7.384  0.00  0.00    +0.000 A 
ATOM     11  C   UNL     1      52.986   5.546   7.016  0.00  0.00    +0.000 A 
ATOM     12  C   UNL     1      52.823   6.704   7.774  0.00  0.00    +0.000 A 
ATOM     13  C   UNL     1      53.633   6.908   8.892  0.00  0.00    +0.000 A 
ATOM     14  N   UNL     1      54.606   6.028   9.247  0.00  0.00    +0.000 NA
ATOM     15  C   UNL     1      54.744   4.910   8.491  0.00  0.00    +0.000 A 
BRANCH  10  17
ATOM     16  N   UNL     1      54.308   2.433   6.052  0.00  0.00    +0.000 NA
ATOM     17  C   UNL     1      54.156   3.413   6.649  0.00  0.00    +0.000 C 
ENDBRANCH  10  17
ENDBRANCH   9  13
ENDBRANCH   8   9
ENDBRANCH   7   8
ENDBRANCH   1   7
BRANCH   4  18
ATOM     18  C   UNL     1      46.480   7.951  13.209  0.00  0.00    +0.000 C 
BRANCH  18  19
ATOM     19  N   UNL     1      45.997   6.663  12.783  0.00  0.00    +0.000 N 
ATOM     20  C   UNL     1      44.993   6.544  11.856  0.00  0.00    +0.000 C 
ATOM     21  O   UNL     1      44.478   7.521  11.320  0.00  0.00    +0.000 OA
ATOM     22  H   UNL     1      46.224   5.871  13.375  0.00  0.00    +0.000 HD
BRANCH  20  23
ATOM     23  C   UNL     1      44.610   5.176  11.488  0.00  0.00    +0.000 A 
ATOM     24  C   UNL     1      43.849   4.410  12.362  0.00  0.00    +0.000 A 
ATOM     25  S   UNL     1      43.456   2.865  11.752  0.00  0.00    +0.000 S 
ATOM     26  C   UNL     1      44.331   3.147  10.320  0.00  0.00    +0.000 A 
ATOM     27  N   UNL     1      44.426   2.191   9.358  0.00  0.00    +0.000 NA
ATOM     28  C   UNL     1      45.145   2.529   8.339  0.00  0.00    +0.000 A 
ATOM     29  N   UNL     1      45.771   3.739   8.193  0.00  0.00    +0.000 N 
ATOM     30  C   UNL     1      45.675   4.746   9.122  0.00  0.00    +0.000 A 
ATOM     31  O   UNL     1      46.204   5.836   8.933  0.00  0.00    +0.000 OA
ATOM     32  C   UNL     1      44.895   4.410  10.297  0.00  0.00    +0.000 A 
ATOM     33  H   UNL     1      46.308   3.949   7.364  0.00  0.00    +0.000 HD
ENDBRANCH  20  23
ENDBRANCH  18  19
ENDBRANCH   4  18
TORSDOF 8
ENDMDL
