MODEL 1
REMARK VINA RESULT:    -8.074      0.000      0.000
REMARK INTER + INTRA:         -13.031
REMARK INTER:                 -11.850
REMARK INTRA:                  -1.180
REMARK UNBOUND:                -1.180
REMARK  Name = 
REMARK  9 active torsions:
REMARK  status: ('A' for Active; 'I' for Inactive)
REMARK    1  A    between atoms: C_1  and  O_2
REMARK    2  A    between atoms: O_2  and  C_3
REMARK    3  A    between atoms: C_10  and  C_11
REMARK    4  A    between atoms: N_13  and  C_14
REMARK    5  A    between atoms: C_14  and  C_15
REMARK    6  A    between atoms: C_18  and  C_19
REMARK    7  A    between atoms: C_19  and  S_20
REMARK    8  A    between atoms: S_20  and  C_21
REMARK    9  A    between atoms: C_21  and  C_22
REMARK                            x       y       z     vdW  Elec       q    Type
REMARK                         _______ _______ _______ _____ _____    ______ ____
ROOT
ATOM      1  C   UNL     1      49.077   7.087  15.537  0.00  0.00    +0.000 C 
ENDROOT
BRANCH   1   2
ATOM      2  C   UNL     1      48.228   6.543  14.413  0.00  0.00    +0.000 A 
ATOM      3  C   UNL     1      47.410   5.422  14.616  0.00  0.00    +0.000 A 
ATOM      4  C   UNL     1      46.508   5.001  13.630  0.00  0.00    +0.000 A 
ATOM      5  C   UNL     1      46.390   5.686  12.412  0.00  0.00    +0.000 A 
ATOM      6  C   UNL     1      47.279   6.747  12.172  0.00  0.00    +0.000 A 
ATOM      7  C   UNL     1      48.187   7.168  13.159  0.00  0.00    +0.000 A 
BRANCH   5   8
ATOM      8  C   UNL     1      45.341   5.286  11.386  0.00  0.00    +0.000 C 
BRANCH   8   9
ATOM      9  S   UNL     1      44.895   3.507  11.497  0.00  0.00    +0.000 S 
BRANCH   9  10
ATOM     10  C   UNL     1      44.187   3.246   9.837  0.00  0.00    +0.000 C 
BRANCH  10  11
ATOM     11  C   UNL     1      45.246   2.910   8.804  0.00  0.00    +0.000 A 
ATOM     12  C   UNL     1      45.794   3.913   7.986  0.00  0.00    +0.000 A 
ATOM     13  C   UNL     1      46.790   3.609   7.051  0.00  0.00    +0.000 A 
ATOM     14  C   UNL     1      47.237   2.301   6.926  0.00  0.00    +0.000 A 
ATOM     15  F   UNL     1      48.196   2.011   6.036  0.00  0.00    +0.000 F 
ATOM     16  C   UNL     1      46.701   1.287   7.712  0.00  0.00    +0.000 A 
ATOM     17  C   UNL     1      45.706   1.589   8.647  0.00  0.00    +0.000 A 
ENDBRANCH  10  11
ENDBRANCH   9  10
ENDBRANCH   8   9
ENDBRANCH   5   8
ENDBRANCH   1   2
BRANCH   1  20
ATOM     18  C   UNL     1      50.266   6.092  17.444  0.00  0.00    +0.000 C 
ATOM     19  O   UNL     1      49.772   6.912  18.217  0.00  0.00    +0.000 OA
ATOM     20  N   UNL     1      49.967   6.107  16.106  0.00  0.00    +0.000 N 
ATOM     21  H   UNL     1      50.370   5.418  15.482  0.00  0.00    +0.000 HD
BRANCH  18  29
ATOM     22  C   UNL     1      50.425   2.677  17.153  0.00  0.00    +0.000 A 
ATOM     23  N   UNL     1      50.773   1.378  17.089  0.00  0.00    +0.000 NA
ATOM     24  C   UNL     1      51.933   1.014  17.644  0.00  0.00    +0.000 A 
ATOM     25  N   UNL     1      52.795   1.798  18.287  0.00  0.00    +0.000 NA
ATOM     26  C   UNL     1      52.415   3.086  18.312  0.00  0.00    +0.000 A 
ATOM     27  S   UNL     1      53.378   4.234  19.109  0.00  0.00    +0.000 S 
ATOM     28  C   UNL     1      52.314   5.492  18.688  0.00  0.00    +0.000 A 
ATOM     29  C   UNL     1      51.226   5.078  17.925  0.00  0.00    +0.000 A 
ATOM     30  C   UNL     1      51.266   3.630  17.747  0.00  0.00    +0.000 A 
BRANCH  22  32
ATOM     31  C   UNL     1      48.132   2.956  17.486  0.00  0.00    +0.000 C 
ATOM     32  O   UNL     1      49.230   3.057  16.582  0.00  0.00    +0.000 OA
ENDBRANCH  22  32
ENDBRANCH  18  29
ENDBRANCH   1  20
TORSDOF 8
ENDMDL
MODEL 2
REMARK VINA RESULT:    -7.907      2.440      2.871
REMARK INTER + INTRA:         -12.786
REMARK INTER:                 -11.609
REMARK INTRA:                  -1.177
REMARK UNBOUND:                -1.180
REMARK  Name = 
REMARK  9 active torsions:
REMARK  status: ('A' for Active; 'I' for Inactive)
REMARK    1  A    between atoms: C_1  and  O_2
REMARK    2  A    between atoms: O_2  and  C_3
REMARK    3  A    between atoms: C_10  and  C_11
REMARK    4  A    between atoms: N_13  and  C_14
REMARK    5  A    between atoms: C_14  and  C_15
REMARK    6  A    between atoms: C_18  and  C_19
REMARK    7  A    between atoms: C_19  and  S_20
REMARK    8  A    between atoms: S_20  and  C_21
REMARK    9  A    between atoms: C_21  and  C_22
REMARK                            x       y       z     vdW  Elec       q    Type
REMARK                         _______ _______ _______ _____ _____    ______ ____
ROOT
ATOM      1  C   UNL     1      48.012   7.538  13.793  0.00  0.00    +0.000 C 
ENDROOT
BRANCH   1   2
ATOM      2  C   UNL     1      46.880   6.665  13.305  0.00  0.00    +0.000 A 
ATOM      3  C   UNL     1      46.924   5.276  13.484  0.00  0.00    +0.000 A 
ATOM      4  C   UNL     1      45.817   4.474  13.173  0.00  0.00    +0.000 A 
ATOM      5  C   UNL     1      44.631   5.034  12.676  0.00  0.00    +0.000 A 
ATOM      6  C   UNL     1      44.625   6.411  12.404  0.00  0.00    +0.000 A 
ATOM      7  C   UNL     1      45.735   7.216  12.712  0.00  0.00    +0.000 A 
BRANCH   5   8
ATOM      8  C   UNL     1      43.401   4.174  12.432  0.00  0.00    +0.000 C 
BRANCH   8   9
ATOM      9  S   UNL     1      43.674   2.914  11.124  0.00  0.00    +0.000 S 
BRANCH   9  10
ATOM     10  C   UNL     1      44.216   3.986   9.751  0.00  0.00    +0.000 C 
BRANCH  10  11
ATOM     11  C   UNL     1      45.181   3.281   8.815  0.00  0.00    +0.000 A 
ATOM     12  C   UNL     1      45.886   4.002   7.836  0.00  0.00    +0.000 A 
ATOM     13  C   UNL     1      46.796   3.359   6.990  0.00  0.00    +0.000 A 
ATOM     14  C   UNL     1      46.999   1.991   7.115  0.00  0.00    +0.000 A 
ATOM     15  F   UNL     1      47.877   1.376   6.309  0.00  0.00    +0.000 F 
ATOM     16  C   UNL     1      46.305   1.252   8.066  0.00  0.00    +0.000 A 
ATOM     17  C   UNL     1      45.395   1.894   8.912  0.00  0.00    +0.000 A 
ENDBRANCH  10  11
ENDBRANCH   9  10
ENDBRANCH   8   9
ENDBRANCH   5   8
ENDBRANCH   1   2
BRANCH   1  20
ATOM     18  C   UNL     1      49.164   7.094  15.918  0.00  0.00    +0.000 C 
ATOM     19  O   UNL     1      50.101   6.553  15.330  0.00  0.00    +0.000 OA
ATOM     20  N   UNL     1      48.098   7.612  15.229  0.00  0.00    +0.000 N 
ATOM     21  H   UNL     1      47.340   8.067  15.724  0.00  0.00    +0.000 HD
BRANCH  18  29
ATOM     22  C   UNL     1      48.757   4.758  18.398  0.00  0.00    +0.000 A 
ATOM     23  N   UNL     1      48.736   4.041  19.537  0.00  0.00    +0.000 NA
ATOM     24  C   UNL     1      48.912   4.693  20.689  0.00  0.00    +0.000 A 
ATOM     25  N   UNL     1      49.088   6.002  20.852  0.00  0.00    +0.000 NA
ATOM     26  C   UNL     1      49.117   6.675  19.690  0.00  0.00    +0.000 A 
ATOM     27  S   UNL     1      49.311   8.361  19.697  0.00  0.00    +0.000 S 
ATOM     28  C   UNL     1      49.278   8.421  17.998  0.00  0.00    +0.000 A 
ATOM     29  C   UNL     1      49.140   7.176  17.393  0.00  0.00    +0.000 A 
ATOM     30  C   UNL     1      48.995   6.142  18.411  0.00  0.00    +0.000 A 
BRANCH  22  32
ATOM     31  C   UNL     1      47.202   3.947  16.860  0.00  0.00    +0.000 C 
ATOM     32  O   UNL     1      48.576   4.090  17.207  0.00  0.00    +0.000 OA
ENDBRANCH  22  32
ENDBRANCH  18  29
ENDBRANCH   1  20
TORSDOF 8
ENDMDL
MODEL 3
REMARK VINA RESULT:    -7.565      1.795      2.419
REMARK INTER + INTRA:         -12.284
REMARK INTER:                 -11.162
REMARK INTRA:                  -1.122
REMARK UNBOUND:                -1.180
REMARK  Name = 
REMARK  9 active torsions:
REMARK  status: ('A' for Active; 'I' for Inactive)
REMARK    1  A    between atoms: C_1  and  O_2
REMARK    2  A    between atoms: O_2  and  C_3
REMARK    3  A    between atoms: C_10  and  C_11
REMARK    4  A    between atoms: N_13  and  C_14
REMARK    5  A    between atoms: C_14  and  C_15
REMARK    6  A    between atoms: C_18  and  C_19
REMARK    7  A    between atoms: C_19  and  S_20
REMARK    8  A    between atoms: S_20  and  C_21
REMARK    9  A    between atoms: C_21  and  C_22
REMARK                            x       y       z     vdW  Elec       q    Type
REMARK                         _______ _______ _______ _____ _____    ______ ____
ROOT
ATOM      1  C   UNL     1      48.279   7.581  12.891  0.00  0.00    +0.000 C 
ENDROOT
BRANCH   1   2
ATOM      2  C   UNL     1      46.967   6.839  12.995  0.00  0.00    +0.000 A 
ATOM      3  C   UNL     1      45.779   7.427  12.541  0.00  0.00    +0.000 A 
ATOM      4  C   UNL     1      44.585   6.693  12.493  0.00  0.00    +0.000 A 
ATOM      5  C   UNL     1      44.541   5.350  12.894  0.00  0.00    +0.000 A 
ATOM      6  C   UNL     1      45.709   4.794  13.441  0.00  0.00    +0.000 A 
ATOM      7  C   UNL     1      46.905   5.530  13.493  0.00  0.00    +0.000 A 
BRANCH   5   8
ATOM      8  C   UNL     1      43.268   4.530  12.748  0.00  0.00    +0.000 C 
BRANCH   8   9
ATOM      9  S   UNL     1      43.404   3.254  11.434  0.00  0.00    +0.000 S 
BRANCH   9  10
ATOM     10  C   UNL     1      43.946   4.287  10.033  0.00  0.00    +0.000 C 
BRANCH  10  11
ATOM     11  C   UNL     1      44.896   3.551   9.107  0.00  0.00    +0.000 A 
ATOM     12  C   UNL     1      45.644   4.251   8.143  0.00  0.00    +0.000 A 
ATOM     13  C   UNL     1      46.540   3.578   7.306  0.00  0.00    +0.000 A 
ATOM     14  C   UNL     1      46.688   2.202   7.424  0.00  0.00    +0.000 A 
ATOM     15  F   UNL     1      47.553   1.559   6.627  0.00  0.00    +0.000 F 
ATOM     16  C   UNL     1      45.950   1.484   8.359  0.00  0.00    +0.000 A 
ATOM     17  C   UNL     1      45.054   2.156   9.196  0.00  0.00    +0.000 A 
ENDBRANCH  10  11
ENDBRANCH   9  10
ENDBRANCH   8   9
ENDBRANCH   5   8
ENDBRANCH   1   2
BRANCH   1  20
ATOM     18  C   UNL     1      49.625   7.654  14.946  0.00  0.00    +0.000 C 
ATOM     19  O   UNL     1      49.038   8.666  15.329  0.00  0.00    +0.000 OA
ATOM     20  N   UNL     1      49.304   7.055  13.755  0.00  0.00    +0.000 N 
ATOM     21  H   UNL     1      49.786   6.214  13.458  0.00  0.00    +0.000 HD
BRANCH  18  29
ATOM     22  C   UNL     1      49.783   5.046  17.169  0.00  0.00    +0.000 A 
ATOM     23  N   UNL     1      50.130   4.023  17.972  0.00  0.00    +0.000 NA
ATOM     24  C   UNL     1      51.419   3.893  18.297  0.00  0.00    +0.000 A 
ATOM     25  N   UNL     1      52.423   4.687  17.931  0.00  0.00    +0.000 NA
ATOM     26  C   UNL     1      52.033   5.685  17.120  0.00  0.00    +0.000 A 
ATOM     27  S   UNL     1      53.172   6.815  16.567  0.00  0.00    +0.000 S 
ATOM     28  C   UNL     1      51.990   7.636  15.661  0.00  0.00    +0.000 A 
ATOM     29  C   UNL     1      50.722   7.067  15.741  0.00  0.00    +0.000 A 
ATOM     30  C   UNL     1      50.745   5.930  16.655  0.00  0.00    +0.000 A 
BRANCH  22  32
ATOM     31  C   UNL     1      47.578   4.903  17.919  0.00  0.00    +0.000 C 
ATOM     32  O   UNL     1      48.455   5.184  16.831  0.00  0.00    +0.000 OA
ENDBRANCH  22  32
ENDBRANCH  18  29
ENDBRANCH   1  20
TORSDOF 8
ENDMDL
MODEL 4
REMARK VINA RESULT:    -7.139      4.071      9.031
REMARK INTER + INTRA:         -11.659
REMARK INTER:                  -9.289
REMARK INTRA:                  -2.370
REMARK UNBOUND:                -1.180
REMARK  Name = 
REMARK  9 active torsions:
REMARK  status: ('A' for Active; 'I' for Inactive)
REMARK    1  A    between atoms: C_1  and  O_2
REMARK    2  A    between atoms: O_2  and  C_3
REMARK    3  A    between atoms: C_10  and  C_11
REMARK    4  A    between atoms: N_13  and  C_14
REMARK    5  A    between atoms: C_14  and  C_15
REMARK    6  A    between atoms: C_18  and  C_19
REMARK    7  A    between atoms: C_19  and  S_20
REMARK    8  A    between atoms: S_20  and  C_21
REMARK    9  A    between atoms: C_21  and  C_22
REMARK                            x       y       z     vdW  Elec       q    Type
REMARK                         _______ _______ _______ _____ _____    ______ ____
ROOT
ATOM      1  C   UNL     1      47.437   3.655  16.508  0.00  0.00    +0.000 C 
ENDROOT
BRANCH   1   2
ATOM      2  C   UNL     1      47.916   4.305  17.785  0.00  0.00    +0.000 A 
ATOM      3  C   UNL     1      49.213   4.070  18.261  0.00  0.00    +0.000 A 
ATOM      4  C   UNL     1      49.718   4.781  19.358  0.00  0.00    +0.000 A 
ATOM      5  C   UNL     1      48.945   5.752  20.012  0.00  0.00    +0.000 A 
ATOM      6  C   UNL     1      47.614   5.915  19.597  0.00  0.00    +0.000 A 
ATOM      7  C   UNL     1      47.105   5.199  18.499  0.00  0.00    +0.000 A 
BRANCH   5   8
ATOM      8  C   UNL     1      49.530   6.590  21.138  0.00  0.00    +0.000 C 
BRANCH   8   9
ATOM      9  S   UNL     1      50.935   7.633  20.578  0.00  0.00    +0.000 S 
BRANCH   9  10
ATOM     10  C   UNL     1      50.062   8.777  19.457  0.00  0.00    +0.000 C 
BRANCH  10  11
ATOM     11  C   UNL     1      49.996   8.253  18.035  0.00  0.00    +0.000 A 
ATOM     12  C   UNL     1      48.839   8.432  17.257  0.00  0.00    +0.000 A 
ATOM     13  C   UNL     1      48.786   7.973  15.936  0.00  0.00    +0.000 A 
ATOM     14  C   UNL     1      49.887   7.328  15.390  0.00  0.00    +0.000 A 
ATOM     15  F   UNL     1      49.839   6.895  14.122  0.00  0.00    +0.000 F 
ATOM     16  C   UNL     1      51.039   7.125  16.142  0.00  0.00    +0.000 A 
ATOM     17  C   UNL     1      51.093   7.584  17.462  0.00  0.00    +0.000 A 
ENDBRANCH  10  11
ENDBRANCH   9  10
ENDBRANCH   8   9
ENDBRANCH   5   8
ENDBRANCH   1   2
BRANCH   1  20
ATOM     18  C   UNL     1      46.757   4.312  14.240  0.00  0.00    +0.000 C 
ATOM     19  O   UNL     1      47.171   3.250  13.777  0.00  0.00    +0.000 OA
ATOM     20  N   UNL     1      46.846   4.585  15.581  0.00  0.00    +0.000 N 
ATOM     21  H   UNL     1      46.489   5.458  15.951  0.00  0.00    +0.000 HD
BRANCH  18  29
ATOM     22  C   UNL     1      43.780   4.568  12.554  0.00  0.00    +0.000 A 
ATOM     23  N   UNL     1      42.669   4.956  11.901  0.00  0.00    +0.000 NA
ATOM     24  C   UNL     1      42.661   6.173  11.350  0.00  0.00    +0.000 A 
ATOM     25  N   UNL     1      43.652   7.060  11.351  0.00  0.00    +0.000 NA
ATOM     26  C   UNL     1      44.734   6.638  12.025  0.00  0.00    +0.000 A 
ATOM     27  S   UNL     1      46.110   7.626  12.116  0.00  0.00    +0.000 S 
ATOM     28  C   UNL     1      46.928   6.484  13.075  0.00  0.00    +0.000 A 
ATOM     29  C   UNL     1      46.177   5.348  13.361  0.00  0.00    +0.000 A 
ATOM     30  C   UNL     1      44.885   5.424  12.689  0.00  0.00    +0.000 A 
BRANCH  22  32
ATOM     31  C   UNL     1      43.558   2.276  12.175  0.00  0.00    +0.000 C 
ATOM     32  O   UNL     1      43.794   3.314  13.123  0.00  0.00    +0.000 OA
ENDBRANCH  22  32
ENDBRANCH  18  29
ENDBRANCH   1  20
TORSDOF 8
ENDMDL
MODEL 5
REMARK VINA RESULT:    -7.046      3.976      9.039
REMARK INTER + INTRA:         -11.521
REMARK INTER:                  -9.464
REMARK INTRA:                  -2.057
REMARK UNBOUND:                -1.180
REMARK  Name = 
REMARK  9 active torsions:
REMARK  status: ('A' for Active; 'I' for Inactive)
REMARK    1  A    between atoms: C_1  and  O_2
REMARK    2  A    between atoms: O_2  and  C_3
REMARK    3  A    between atoms: C_10  and  C_11
REMARK    4  A    between atoms: N_13  and  C_14
REMARK    5  A    between atoms: C_14  and  C_15
REMARK    6  A    between atoms: C_18  and  C_19
REMARK    7  A    between atoms: C_19  and  S_20
REMARK    8  A    between atoms: S_20  and  C_21
REMARK    9  A    between atoms: C_21  and  C_22
REMARK                            x       y       z     vdW  Elec       q    Type
REMARK                         _______ _______ _______ _____ _____    ______ ____
ROOT
ATOM      1  C   UNL     1      47.283   3.261  17.048  0.00  0.00    +0.000 C 
ENDROOT
BRANCH   1   2
ATOM      2  C   UNL     1      48.695   3.362  17.576  0.00  0.00    +0.000 A 
ATOM      3  C   UNL     1      49.703   2.527  17.074  0.00  0.00    +0.000 A 
ATOM      4  C   UNL     1      51.043   2.712  17.446  0.00  0.00    +0.000 A 
ATOM      5  C   UNL     1      51.417   3.737  18.326  0.00  0.00    +0.000 A 
ATOM      6  C   UNL     1      50.395   4.508  18.903  0.00  0.00    +0.000 A 
ATOM      7  C   UNL     1      49.051   4.321  18.534  0.00  0.00    +0.000 A 
BRANCH   5   8
ATOM      8  C   UNL     1      52.881   3.997  18.649  0.00  0.00    +0.000 C 
BRANCH   8   9
ATOM      9  S   UNL     1      53.150   5.650  19.404  0.00  0.00    +0.000 S 
BRANCH   9  10
ATOM     10  C   UNL     1      53.348   6.664  17.901  0.00  0.00    +0.000 C 
BRANCH  10  11
ATOM     11  C   UNL     1      52.024   7.188  17.379  0.00  0.00    +0.000 A 
ATOM     12  C   UNL     1      51.530   6.774  16.129  0.00  0.00    +0.000 A 
ATOM     13  C   UNL     1      50.296   7.235  15.658  0.00  0.00    +0.000 A 
ATOM     14  C   UNL     1      49.554   8.117  16.431  0.00  0.00    +0.000 A 
ATOM     15  F   UNL     1      48.368   8.553  15.983  0.00  0.00    +0.000 F 
ATOM     16  C   UNL     1      50.025   8.554  17.664  0.00  0.00    +0.000 A 
ATOM     17  C   UNL     1      51.258   8.093  18.137  0.00  0.00    +0.000 A 
ENDBRANCH  10  11
ENDBRANCH   9  10
ENDBRANCH   8   9
ENDBRANCH   5   8
ENDBRANCH   1   2
BRANCH   1  20
ATOM     18  C   UNL     1      47.018   4.075  14.744  0.00  0.00    +0.000 C 
ATOM     19  O   UNL     1      47.350   2.980  14.289  0.00  0.00    +0.000 OA
ATOM     20  N   UNL     1      46.955   4.292  16.096  0.00  0.00    +0.000 N 
ATOM     21  H   UNL     1      46.667   5.193  16.458  0.00  0.00    +0.000 HD
BRANCH  18  29
ATOM     22  C   UNL     1      44.417   4.736  12.607  0.00  0.00    +0.000 A 
ATOM     23  N   UNL     1      43.480   5.274  11.804  0.00  0.00    +0.000 NA
ATOM     24  C   UNL     1      43.692   6.508  11.337  0.00  0.00    +0.000 A 
ATOM     25  N   UNL     1      44.755   7.278  11.558  0.00  0.00    +0.000 NA
ATOM     26  C   UNL     1      45.655   6.708  12.374  0.00  0.00    +0.000 A 
ATOM     27  S   UNL     1      47.090   7.531  12.754  0.00  0.00    +0.000 S 
ATOM     28  C   UNL     1      47.609   6.263  13.762  0.00  0.00    +0.000 A 
ATOM     29  C   UNL     1      46.707   5.207  13.847  0.00  0.00    +0.000 A 
ATOM     30  C   UNL     1      45.564   5.456  12.976  0.00  0.00    +0.000 A 
BRANCH  22  32
ATOM     31  C   UNL     1      43.521   2.629  12.160  0.00  0.00    +0.000 C 
ATOM     32  O   UNL     1      44.204   3.464  13.091  0.00  0.00    +0.000 OA
ENDBRANCH  22  32
ENDBRANCH  18  29
ENDBRANCH   1  20
TORSDOF 8
ENDMDL
MODEL 6
REMARK VINA RESULT:    -6.883      4.052      8.832
REMARK INTER + INTRA:         -11.283
REMARK INTER:                  -9.649
REMARK INTRA:                  -1.634
REMARK UNBOUND:                -1.180
REMARK  Name = 
REMARK  9 active torsions:
REMARK  status: ('A' for Active; 'I' for Inactive)
REMARK    1  A    between atoms: C_1  and  O_2
REMARK    2  A    between atoms: O_2  and  C_3
REMARK    3  A    between atoms: C_10  and  C_11
REMARK    4  A    between atoms: N_13  and  C_14
REMARK    5  A    between atoms: C_14  and  C_15
REMARK    6  A    between atoms: C_18  and  C_19
REMARK    7  A    between atoms: C_19  and  S_20
REMARK    8  A    between atoms: S_20  and  C_21
REMARK    9  A    between atoms: C_21  and  C_22
REMARK                            x       y       z     vdW  Elec       q    Type
REMARK                         _______ _______ _______ _____ _____    ______ ____
ROOT
ATOM      1  C   UNL     1      48.094   8.074  12.422  0.00  0.00    +0.000 C 
ENDROOT
BRANCH   1   2
ATOM      2  C   UNL     1      49.034   7.708  13.548  0.00  0.00    +0.000 A 
ATOM      3  C   UNL     1      50.375   8.113  13.515  0.00  0.00    +0.000 A 
ATOM      4  C   UNL     1      51.216   7.911  14.619  0.00  0.00    +0.000 A 
ATOM      5  C   UNL     1      50.743   7.301  15.790  0.00  0.00    +0.000 A 
ATOM      6  C   UNL     1      49.428   6.808  15.783  0.00  0.00    +0.000 A 
ATOM      7  C   UNL     1      48.586   7.007  14.675  0.00  0.00    +0.000 A 
BRANCH   5   8
ATOM      8  C   UNL     1      51.629   7.173  17.019  0.00  0.00    +0.000 C 
BRANCH   8   9
ATOM      9  S   UNL     1      52.643   5.641  16.994  0.00  0.00    +0.000 S 
BRANCH   9  10
ATOM     10  C   UNL     1      51.982   4.791  18.467  0.00  0.00    +0.000 C 
BRANCH  10  11
ATOM     11  C   UNL     1      50.594   4.225  18.231  0.00  0.00    +0.000 A 
ATOM     12  C   UNL     1      49.471   4.795  18.855  0.00  0.00    +0.000 A 
ATOM     13  C   UNL     1      48.187   4.290  18.618  0.00  0.00    +0.000 A 
ATOM     14  C   UNL     1      48.022   3.210  17.762  0.00  0.00    +0.000 A 
ATOM     15  F   UNL     1      46.792   2.732  17.529  0.00  0.00    +0.000 F 
ATOM     16  C   UNL     1      49.118   2.619  17.142  0.00  0.00    +0.000 A 
ATOM     17  C   UNL     1      50.401   3.122  17.378  0.00  0.00    +0.000 A 
ENDBRANCH  10  11
ENDBRANCH   9  10
ENDBRANCH   8   9
ENDBRANCH   5   8
ENDBRANCH   1   2
BRANCH   1  20
ATOM     18  C   UNL     1      46.165   6.944  11.404  0.00  0.00    +0.000 C 
ATOM     19  O   UNL     1      45.462   7.943  11.558  0.00  0.00    +0.000 OA
ATOM     20  N   UNL     1      47.478   6.932  11.798  0.00  0.00    +0.000 N 
ATOM     21  H   UNL     1      48.050   6.109  11.653  0.00  0.00    +0.000 HD
BRANCH  18  29
ATOM     22  C   UNL     1      44.521   4.240  12.730  0.00  0.00    +0.000 A 
ATOM     23  N   UNL     1      43.777   3.146  12.976  0.00  0.00    +0.000 NA
ATOM     24  C   UNL     1      43.422   2.384  11.937  0.00  0.00    +0.000 A 
ATOM     25  N   UNL     1      43.745   2.570  10.659  0.00  0.00    +0.000 NA
ATOM     26  C   UNL     1      44.475   3.680  10.458  0.00  0.00    +0.000 A 
ATOM     27  S   UNL     1      45.001   4.071   8.893  0.00  0.00    +0.000 S 
ATOM     28  C   UNL     1      45.754   5.492   9.449  0.00  0.00    +0.000 A 
ATOM     29  C   UNL     1      45.609   5.709  10.815  0.00  0.00    +0.000 A 
ATOM     30  C   UNL     1      44.886   4.596  11.422  0.00  0.00    +0.000 A 
BRANCH  22  32
ATOM     31  C   UNL     1      46.160   4.672  14.333  0.00  0.00    +0.000 C 
ATOM     32  O   UNL     1      44.889   5.028  13.798  0.00  0.00    +0.000 OA
ENDBRANCH  22  32
ENDBRANCH  18  29
ENDBRANCH   1  20
TORSDOF 8
ENDMDL
MODEL 7
REMARK VINA RESULT:    -6.736      4.236      8.683
REMARK INTER + INTRA:         -11.067
REMARK INTER:                  -8.999
REMARK INTRA:                  -2.068
REMARK UNBOUND:                -1.180
REMARK  Name = 
REMARK  9 active torsions:
REMARK  status: ('A' for Active; 'I' for Inactive)
REMARK    1  A    between atoms: C_1  and  O_2
REMARK    2  A    between atoms: O_2  and  C_3
REMARK    3  A    between atoms: C_10  and  C_11
REMARK    4  A    between atoms: N_13  and  C_14
REMARK    5  A    between atoms: C_14  and  C_15
REMARK    6  A    between atoms: C_18  and  C_19
REMARK    7  A    between atoms: C_19  and  S_20
REMARK    8  A    between atoms: S_20  and  C_21
REMARK    9  A    between atoms: C_21  and  C_22
REMARK                            x       y       z     vdW  Elec       q    Type
REMARK                         _______ _______ _______ _____ _____    ______ ____
ROOT
ATOM      1  C   UNL     1      48.460   8.650  14.445  0.00  0.00    +0.000 C 
ENDROOT
BRANCH   1   2
ATOM      2  C   UNL     1      48.777   8.679  15.922  0.00  0.00    +0.000 A 
ATOM      3  C   UNL     1      47.940   9.359  16.816  0.00  0.00    +0.000 A 
ATOM      4  C   UNL     1      48.139   9.267  18.201  0.00  0.00    +0.000 A 
ATOM      5  C   UNL     1      49.177   8.490  18.736  0.00  0.00    +0.000 A 
ATOM      6  C   UNL     1      50.073   7.891  17.836  0.00  0.00    +0.000 A 
ATOM      7  C   UNL     1      49.876   7.986  16.447  0.00  0.00    +0.000 A 
BRANCH   5   8
ATOM      8  C   UNL     1      49.329   8.314  20.238  0.00  0.00    +0.000 C 
BRANCH   8   9
ATOM      9  S   UNL     1      49.235   6.552  20.750  0.00  0.00    +0.000 S 
BRANCH   9  10
ATOM     10  C   UNL     1      47.752   6.025  19.828  0.00  0.00    +0.000 C 
BRANCH  10  11
ATOM     11  C   UNL     1      48.059   4.942  18.811  0.00  0.00    +0.000 A 
ATOM     12  C   UNL     1      49.284   4.253  18.845  0.00  0.00    +0.000 A 
ATOM     13  C   UNL     1      49.559   3.236  17.924  0.00  0.00    +0.000 A 
ATOM     14  C   UNL     1      48.613   2.908  16.962  0.00  0.00    +0.000 A 
ATOM     15  F   UNL     1      48.873   1.928  16.085  0.00  0.00    +0.000 F 
ATOM     16  C   UNL     1      47.399   3.583  16.898  0.00  0.00    +0.000 A 
ATOM     17  C   UNL     1      47.123   4.600  17.817  0.00  0.00    +0.000 A 
ENDBRANCH  10  11
ENDBRANCH   9  10
ENDBRANCH   8   9
ENDBRANCH   5   8
ENDBRANCH   1   2
BRANCH   1  20
ATOM     18  C   UNL     1      47.808   6.519  13.410  0.00  0.00    +0.000 C 
ATOM     19  O   UNL     1      48.972   6.288  13.084  0.00  0.00    +0.000 OA
ATOM     20  N   UNL     1      47.474   7.661  14.091  0.00  0.00    +0.000 N 
ATOM     21  H   UNL     1      46.515   7.833  14.366  0.00  0.00    +0.000 HD
BRANCH  18  29
ATOM     22  C   UNL     1      44.724   6.945  11.967  0.00  0.00    +0.000 A 
ATOM     23  N   UNL     1      43.544   6.828  11.330  0.00  0.00    +0.000 NA
ATOM     24  C   UNL     1      43.045   5.601  11.158  0.00  0.00    +0.000 A 
ATOM     25  N   UNL     1      43.578   4.453  11.572  0.00  0.00    +0.000 NA
ATOM     26  C   UNL     1      44.760   4.616  12.188  0.00  0.00    +0.000 A 
ATOM     27  S   UNL     1      45.582   3.265  12.805  0.00  0.00    +0.000 S 
ATOM     28  C   UNL     1      46.872   4.234  13.341  0.00  0.00    +0.000 A 
ATOM     29  C   UNL     1      46.721   5.586  13.051  0.00  0.00    +0.000 A 
ATOM     30  C   UNL     1      45.432   5.814  12.406  0.00  0.00    +0.000 A 
BRANCH  22  32
ATOM     31  C   UNL     1      44.561   9.196  11.379  0.00  0.00    +0.000 C 
ATOM     32  O   UNL     1      45.243   8.208  12.147  0.00  0.00    +0.000 OA
ENDBRANCH  22  32
ENDBRANCH  18  29
ENDBRANCH   1  20
TORSDOF 8
ENDMDL
MODEL 8
REMARK VINA RESULT:    -6.729      4.232      8.929
REMARK INTER + INTRA:         -11.057
REMARK INTER:                  -9.375
REMARK INTRA:                  -1.683
REMARK UNBOUND:                -1.180
REMARK  Name = 
REMARK  9 active torsions:
REMARK  status: ('A' for Active; 'I' for Inactive)
REMARK    1  A    between atoms: C_1  and  O_2
REMARK    2  A    between atoms: O_2  and  C_3
REMARK    3  A    between atoms: C_10  and  C_11
REMARK    4  A    between atoms: N_13  and  C_14
REMARK    5  A    between atoms: C_14  and  C_15
REMARK    6  A    between atoms: C_18  and  C_19
REMARK    7  A    between atoms: C_19  and  S_20
REMARK    8  A    between atoms: S_20  and  C_21
REMARK    9  A    between atoms: C_21  and  C_22
REMARK                            x       y       z     vdW  Elec       q    Type
REMARK                         _______ _______ _______ _____ _____    ______ ____
ROOT
ATOM      1  C   UNL     1      47.984   7.617  12.096  0.00  0.00    +0.000 C 
ENDROOT
BRANCH   1   2
ATOM      2  C   UNL     1      48.446   7.898  13.507  0.00  0.00    +0.000 A 
ATOM      3  C   UNL     1      48.001   9.040  14.187  0.00  0.00    +0.000 A 
ATOM      4  C   UNL     1      48.300   9.232  15.543  0.00  0.00    +0.000 A 
ATOM      5  C   UNL     1      49.050   8.290  16.262  0.00  0.00    +0.000 A 
ATOM      6  C   UNL     1      49.578   7.199  15.555  0.00  0.00    +0.000 A 
ATOM      7  C   UNL     1      49.281   7.007  14.194  0.00  0.00    +0.000 A 
BRANCH   5   8
ATOM      8  C   UNL     1      49.289   8.455  17.755  0.00  0.00    +0.000 C 
BRANCH   8   9
ATOM      9  S   UNL     1      47.804   8.035  18.752  0.00  0.00    +0.000 S 
BRANCH   9  10
ATOM     10  C   UNL     1      48.392   6.525  19.590  0.00  0.00    +0.000 C 
BRANCH  10  11
ATOM     11  C   UNL     1      48.473   5.338  18.649  0.00  0.00    +0.000 A 
ATOM     12  C   UNL     1      49.690   4.664  18.447  0.00  0.00    +0.000 A 
ATOM     13  C   UNL     1      49.760   3.552  17.601  0.00  0.00    +0.000 A 
ATOM     14  C   UNL     1      48.616   3.114  16.947  0.00  0.00    +0.000 A 
ATOM     15  F   UNL     1      48.682   2.044  16.143  0.00  0.00    +0.000 F 
ATOM     16  C   UNL     1      47.403   3.771  17.118  0.00  0.00    +0.000 A 
ATOM     17  C   UNL     1      47.331   4.882  17.964  0.00  0.00    +0.000 A 
ENDBRANCH  10  11
ENDBRANCH   9  10
ENDBRANCH   8   9
ENDBRANCH   5   8
ENDBRANCH   1   2
BRANCH   1  20
ATOM     18  C   UNL     1      45.826   6.537  11.633  0.00  0.00    +0.000 C 
ATOM     19  O   UNL     1      45.306   7.622  11.376  0.00  0.00    +0.000 OA
ATOM     20  N   UNL     1      47.147   6.450  11.990  0.00  0.00    +0.000 N 
ATOM     21  H   UNL     1      47.568   5.549  12.186  0.00  0.00    +0.000 HD
BRANCH  18  29
ATOM     22  C   UNL     1      45.314   4.147   9.225  0.00  0.00    +0.000 A 
ATOM     23  N   UNL     1      45.046   3.039   8.510  0.00  0.00    +0.000 NA
ATOM     24  C   UNL     1      44.315   2.082   9.090  0.00  0.00    +0.000 A 
ATOM     25  N   UNL     1      43.789   2.105  10.312  0.00  0.00    +0.000 NA
ATOM     26  C   UNL     1      44.094   3.221  10.994  0.00  0.00    +0.000 A 
ATOM     27  S   UNL     1      43.492   3.439  12.566  0.00  0.00    +0.000 S 
ATOM     28  C   UNL     1      44.289   4.934  12.715  0.00  0.00    +0.000 A 
ATOM     29  C   UNL     1      45.037   5.289  11.597  0.00  0.00    +0.000 A 
ATOM     30  C   UNL     1      44.876   4.284  10.552  0.00  0.00    +0.000 A 
BRANCH  22  32
ATOM     31  C   UNL     1      46.915   4.637   7.601  0.00  0.00    +0.000 C 
ATOM     32  O   UNL     1      46.067   5.136   8.632  0.00  0.00    +0.000 OA
ENDBRANCH  22  32
ENDBRANCH  18  29
ENDBRANCH   1  20
TORSDOF 8
ENDMDL
MODEL 9
REMARK VINA RESULT:    -6.369      4.076      9.623
REMARK INTER + INTRA:         -10.528
REMARK INTER:                  -9.266
REMARK INTRA:                  -1.263
REMARK UNBOUND:                -1.180
REMARK  Name = 
REMARK  9 active torsions:
REMARK  status: ('A' for Active; 'I' for Inactive)
REMARK    1  A    between atoms: C_1  and  O_2
REMARK    2  A    between atoms: O_2  and  C_3
REMARK    3  A    between atoms: C_10  and  C_11
REMARK    4  A    between atoms: N_13  and  C_14
REMARK    5  A    between atoms: C_14  and  C_15
REMARK    6  A    between atoms: C_18  and  C_19
REMARK    7  A    between atoms: C_19  and  S_20
REMARK    8  A    between atoms: S_20  and  C_21
REMARK    9  A    between atoms: C_21  and  C_22
REMARK                            x       y       z     vdW  Elec       q    Type
REMARK                         _______ _______ _______ _____ _____    ______ ____
ROOT
ATOM      1  C   UNL     1      47.498   3.693  16.534  0.00  0.00    +0.000 C 
ENDROOT
BRANCH   1   2
ATOM      2  C   UNL     1      48.505   4.324  17.467  0.00  0.00    +0.000 A 
ATOM      3  C   UNL     1      48.524   3.987  18.827  0.00  0.00    +0.000 A 
ATOM      4  C   UNL     1      49.545   4.449  19.669  0.00  0.00    +0.000 A 
ATOM      5  C   UNL     1      50.580   5.259  19.179  0.00  0.00    +0.000 A 
ATOM      6  C   UNL     1      50.504   5.676  17.841  0.00  0.00    +0.000 A 
ATOM      7  C   UNL     1      49.478   5.217  16.997  0.00  0.00    +0.000 A 
BRANCH   5   8
ATOM      8  C   UNL     1      51.738   5.676  20.073  0.00  0.00    +0.000 C 
BRANCH   8   9
ATOM      9  S   UNL     1      53.334   5.745  19.166  0.00  0.00    +0.000 S 
BRANCH   9  10
ATOM     10  C   UNL     1      54.163   4.275  19.858  0.00  0.00    +0.000 C 
BRANCH  10  11
ATOM     11  C   UNL     1      54.081   3.077  18.931  0.00  0.00    +0.000 A 
ATOM     12  C   UNL     1      52.835   2.574  18.516  0.00  0.00    +0.000 A 
ATOM     13  C   UNL     1      52.757   1.486  17.640  0.00  0.00    +0.000 A 
ATOM     14  C   UNL     1      53.925   0.891  17.181  0.00  0.00    +0.000 A 
ATOM     15  F   UNL     1      53.851  -0.146  16.335  0.00  0.00    +0.000 F 
ATOM     16  C   UNL     1      55.170   1.359  17.586  0.00  0.00    +0.000 A 
ATOM     17  C   UNL     1      55.249   2.447  18.462  0.00  0.00    +0.000 A 
ENDBRANCH  10  11
ENDBRANCH   9  10
ENDBRANCH   8   9
ENDBRANCH   5   8
ENDBRANCH   1   2
BRANCH   1  20
ATOM     18  C   UNL     1      46.796   4.352  14.273  0.00  0.00    +0.000 C 
ATOM     19  O   UNL     1      47.184   3.280  13.809  0.00  0.00    +0.000 OA
ATOM     20  N   UNL     1      46.909   4.629  15.611  0.00  0.00    +0.000 N 
ATOM     21  H   UNL     1      46.572   5.509  15.982  0.00  0.00    +0.000 HD
BRANCH  18  29
ATOM     22  C   UNL     1      43.827   4.619  12.575  0.00  0.00    +0.000 A 
ATOM     23  N   UNL     1      42.719   5.012  11.919  0.00  0.00    +0.000 NA
ATOM     24  C   UNL     1      42.714   6.233  11.376  0.00  0.00    +0.000 A 
ATOM     25  N   UNL     1      43.706   7.119  11.387  0.00  0.00    +0.000 NA
ATOM     26  C   UNL     1      44.784   6.692  12.063  0.00  0.00    +0.000 A 
ATOM     27  S   UNL     1      46.161   7.679  12.167  0.00  0.00    +0.000 S 
ATOM     28  C   UNL     1      46.973   6.530  13.122  0.00  0.00    +0.000 A 
ATOM     29  C   UNL     1      46.220   5.393  13.398  0.00  0.00    +0.000 A 
ATOM     30  C   UNL     1      44.931   5.474  12.720  0.00  0.00    +0.000 A 
BRANCH  22  32
ATOM     31  C   UNL     1      43.543   2.335  12.192  0.00  0.00    +0.000 C 
ATOM     32  O   UNL     1      43.836   3.362  13.136  0.00  0.00    +0.000 OA
ENDBRANCH  22  32
ENDBRANCH  18  29
ENDBRANCH   1  20
TORSDOF 8
ENDMDL
