MODEL 1
REMARK VINA RESULT:    -7.643      0.000      0.000
REMARK INTER + INTRA:         -10.033
REMARK INTER:                  -9.430
REMARK INTRA:                  -0.603
REMARK UNBOUND:                -0.603
REMARK  Name = 
REMARK  4 active torsions:
REMARK  status: ('A' for Active; 'I' for Inactive)
REMARK    1  A    between atoms: C_3  and  C_4
REMARK    2  A    between atoms: C_4  and  N_5
REMARK    3  A    between atoms: N_5  and  C_6
REMARK    4  A    between atoms: C_13  and  C_14
REMARK                            x       y       z     vdW  Elec       q    Type
REMARK                         _______ _______ _______ _____ _____    ______ ____
ROOT
ATOM      1  C   UNL     1      43.087   5.365  12.506  0.00  0.00    +0.000 A 
ATOM      2  C   UNL     1      43.033   4.408  11.494  0.00  0.00    +0.000 A 
ATOM      3  C   UNL     1      44.212   3.959  10.888  0.00  0.00    +0.000 A 
ATOM      4  C   UNL     1      45.443   4.473  11.334  0.00  0.00    +0.000 A 
ATOM      5  C   UNL     1      45.522   5.458  12.337  0.00  0.00    +0.000 A 
ATOM      6  C   UNL     1      44.317   5.887  12.918  0.00  0.00    +0.000 A 
ENDROOT
BRANCH   5   7
ATOM      7  C   UNL     1      46.823   6.042  12.717  0.00  0.00    +0.000 A 
ATOM      8  C   UNL     1      47.482   5.752  13.911  0.00  0.00    +0.000 A 
ATOM      9  N   UNL     1      48.657   6.322  14.282  0.00  0.00    +0.000 NA
ATOM     10  C   UNL     1      49.165   7.209  13.400  0.00  0.00    +0.000 A 
ATOM     11  C   UNL     1      48.534   7.505  12.206  0.00  0.00    +0.000 A 
ATOM     12  N   UNL     1      47.363   6.933  11.839  0.00  0.00    +0.000 NA
ENDBRANCH   5   7
BRANCH   3  13
ATOM     13  C   UNL     1      44.179   2.969   9.746  0.00  0.00    +0.000 C 
BRANCH  13  14
ATOM     14  N   UNL     1      44.775   3.545   8.548  0.00  0.00    +0.000 N 
ATOM     15  H   UNL     1      45.002   4.529   8.673  0.00  0.00    +0.000 HD
BRANCH  14  16
ATOM     16  C   UNL     1      45.810   2.839   7.915  0.00  0.00    +0.000 A 
ATOM     17  C   UNL     1      46.792   3.452   7.131  0.00  0.00    +0.000 A 
ATOM     18  C   UNL     1      47.822   2.684   6.606  0.00  0.00    +0.000 A 
ATOM     19  N   UNL     1      47.961   1.363   6.818  0.00  0.00    +0.000 NA
ATOM     20  C   UNL     1      47.038   0.791   7.616  0.00  0.00    +0.000 A 
ATOM     21  C   UNL     1      45.975   1.479   8.188  0.00  0.00    +0.000 A 
ENDBRANCH  14  16
ENDBRANCH  13  14
ENDBRANCH   3  13
TORSDOF 4
ENDMDL
MODEL 2
REMARK VINA RESULT:    -7.624      1.665      2.483
REMARK INTER + INTRA:         -10.009
REMARK INTER:                  -9.381
REMARK INTRA:                  -0.629
REMARK UNBOUND:                -0.603
REMARK  Name = 
REMARK  4 active torsions:
REMARK  status: ('A' for Active; 'I' for Inactive)
REMARK    1  A    between atoms: C_3  and  C_4
REMARK    2  A    between atoms: C_4  and  N_5
REMARK    3  A    between atoms: N_5  and  C_6
REMARK    4  A    between atoms: C_13  and  C_14
REMARK                            x       y       z     vdW  Elec       q    Type
REMARK                         _______ _______ _______ _____ _____    ______ ____
ROOT
ATOM      1  C   UNL     1      45.667   6.528  11.029  0.00  0.00    +0.000 A 
ATOM      2  C   UNL     1      45.047   5.432  10.431  0.00  0.00    +0.000 A 
ATOM      3  C   UNL     1      45.034   4.192  11.080  0.00  0.00    +0.000 A 
ATOM      4  C   UNL     1      45.634   4.083  12.347  0.00  0.00    +0.000 A 
ATOM      5  C   UNL     1      46.287   5.168  12.961  0.00  0.00    +0.000 A 
ATOM      6  C   UNL     1      46.284   6.395  12.277  0.00  0.00    +0.000 A 
ENDROOT
BRANCH   5   7
ATOM      7  C   UNL     1      46.986   4.995  14.249  0.00  0.00    +0.000 A 
ATOM      8  C   UNL     1      47.930   5.895  14.744  0.00  0.00    +0.000 A 
ATOM      9  N   UNL     1      48.606   5.714  15.907  0.00  0.00    +0.000 NA
ATOM     10  C   UNL     1      48.300   4.583  16.576  0.00  0.00    +0.000 A 
ATOM     11  C   UNL     1      47.362   3.681  16.109  0.00  0.00    +0.000 A 
ATOM     12  N   UNL     1      46.689   3.865  14.950  0.00  0.00    +0.000 NA
ENDBRANCH   5   7
BRANCH   3  13
ATOM     13  C   UNL     1      44.425   2.973  10.427  0.00  0.00    +0.000 C 
BRANCH  13  14
ATOM     14  N   UNL     1      44.497   3.075   8.975  0.00  0.00    +0.000 N 
ATOM     15  H   UNL     1      44.300   4.020   8.652  0.00  0.00    +0.000 HD
BRANCH  14  16
ATOM     16  C   UNL     1      45.607   2.513   8.325  0.00  0.00    +0.000 A 
ATOM     17  C   UNL     1      45.876   1.140   8.310  0.00  0.00    +0.000 A 
ATOM     18  C   UNL     1      46.956   0.666   7.577  0.00  0.00    +0.000 A 
ATOM     19  N   UNL     1      47.770   1.447   6.844  0.00  0.00    +0.000 NA
ATOM     20  C   UNL     1      47.471   2.761   6.824  0.00  0.00    +0.000 A 
ATOM     21  C   UNL     1      46.412   3.325   7.522  0.00  0.00    +0.000 A 
ENDBRANCH  14  16
ENDBRANCH  13  14
ENDBRANCH   3  13
TORSDOF 4
ENDMDL
MODEL 3
REMARK VINA RESULT:    -7.444      1.448      6.116
REMARK INTER + INTRA:          -9.788
REMARK INTER:                  -8.993
REMARK INTRA:                  -0.795
REMARK UNBOUND:                -0.603
REMARK  Name = 
REMARK  4 active torsions:
REMARK  status: ('A' for Active; 'I' for Inactive)
REMARK    1  A    between atoms: C_3  and  C_4
REMARK    2  A    between atoms: C_4  and  N_5
REMARK    3  A    between atoms: N_5  and  C_6
REMARK    4  A    between atoms: C_13  and  C_14
REMARK                            x       y       z     vdW  Elec       q    Type
REMARK                         _______ _______ _______ _____ _____    ______ ____
ROOT
ATOM      1  C   UNL     1      43.343   2.537  11.414  0.00  0.00    +0.000 A 
ATOM      2  C   UNL     1      43.153   3.887  11.702  0.00  0.00    +0.000 A 
ATOM      3  C   UNL     1      43.761   4.868  10.909  0.00  0.00    +0.000 A 
ATOM      4  C   UNL     1      44.540   4.464   9.810  0.00  0.00    +0.000 A 
ATOM      5  C   UNL     1      44.767   3.107   9.512  0.00  0.00    +0.000 A 
ATOM      6  C   UNL     1      44.145   2.153  10.335  0.00  0.00    +0.000 A 
ENDROOT
BRANCH   5   7
ATOM      7  C   UNL     1      45.665   2.719   8.407  0.00  0.00    +0.000 A 
ATOM      8  C   UNL     1      46.004   3.566   7.353  0.00  0.00    +0.000 A 
ATOM      9  N   UNL     1      46.794   3.195   6.313  0.00  0.00    +0.000 NA
ATOM     10  C   UNL     1      47.248   1.925   6.364  0.00  0.00    +0.000 A 
ATOM     11  C   UNL     1      46.932   1.071   7.404  0.00  0.00    +0.000 A 
ATOM     12  N   UNL     1      46.145   1.444   8.440  0.00  0.00    +0.000 NA
ENDBRANCH   5   7
BRANCH   3  13
ATOM     13  C   UNL     1      43.623   6.337  11.236  0.00  0.00    +0.000 C 
BRANCH  13  14
ATOM     14  N   UNL     1      44.122   6.615  12.577  0.00  0.00    +0.000 N 
ATOM     15  H   UNL     1      43.519   6.219  13.295  0.00  0.00    +0.000 HD
BRANCH  14  16
ATOM     16  C   UNL     1      45.482   6.385  12.841  0.00  0.00    +0.000 A 
ATOM     17  C   UNL     1      45.944   5.327  13.630  0.00  0.00    +0.000 A 
ATOM     18  C   UNL     1      47.311   5.131  13.775  0.00  0.00    +0.000 A 
ATOM     19  N   UNL     1      48.248   5.892  13.180  0.00  0.00    +0.000 NA
ATOM     20  C   UNL     1      47.792   6.877  12.382  0.00  0.00    +0.000 A 
ATOM     21  C   UNL     1      46.446   7.145  12.174  0.00  0.00    +0.000 A 
ENDBRANCH  14  16
ENDBRANCH  13  14
ENDBRANCH   3  13
TORSDOF 4
ENDMDL
MODEL 4
REMARK VINA RESULT:    -7.395      1.578      2.338
REMARK INTER + INTRA:          -9.728
REMARK INTER:                  -9.067
REMARK INTRA:                  -0.661
REMARK UNBOUND:                -0.603
REMARK  Name = 
REMARK  4 active torsions:
REMARK  status: ('A' for Active; 'I' for Inactive)
REMARK    1  A    between atoms: C_3  and  C_4
REMARK    2  A    between atoms: C_4  and  N_5
REMARK    3  A    between atoms: N_5  and  C_6
REMARK    4  A    between atoms: C_13  and  C_14
REMARK                            x       y       z     vdW  Elec       q    Type
REMARK                         _______ _______ _______ _____ _____    ______ ____
ROOT
ATOM      1  C   UNL     1      45.957   3.881  13.199  0.00  0.00    +0.000 A 
ATOM      2  C   UNL     1      45.298   3.298  12.118  0.00  0.00    +0.000 A 
ATOM      3  C   UNL     1      44.978   4.066  10.993  0.00  0.00    +0.000 A 
ATOM      4  C   UNL     1      45.354   5.420  10.967  0.00  0.00    +0.000 A 
ATOM      5  C   UNL     1      45.998   6.039  12.055  0.00  0.00    +0.000 A 
ATOM      6  C   UNL     1      46.298   5.236  13.168  0.00  0.00    +0.000 A 
ENDROOT
BRANCH   5   7
ATOM      7  C   UNL     1      46.296   7.484  12.031  0.00  0.00    +0.000 A 
ATOM      8  C   UNL     1      47.588   8.007  12.023  0.00  0.00    +0.000 A 
ATOM      9  N   UNL     1      47.863   9.337  12.046  0.00  0.00    +0.000 NA
ATOM     10  C   UNL     1      46.782  10.144  12.075  0.00  0.00    +0.000 A 
ATOM     11  C   UNL     1      45.491   9.647  12.076  0.00  0.00    +0.000 A 
ATOM     12  N   UNL     1      45.221   8.321  12.051  0.00  0.00    +0.000 NA
ENDBRANCH   5   7
BRANCH   3  13
ATOM     13  C   UNL     1      44.209   3.475   9.834  0.00  0.00    +0.000 C 
BRANCH  13  14
ATOM     14  N   UNL     1      44.836   3.827   8.566  0.00  0.00    +0.000 N 
ATOM     15  H   UNL     1      45.104   4.809   8.535  0.00  0.00    +0.000 HD
BRANCH  14  16
ATOM     16  C   UNL     1      45.845   2.988   8.069  0.00  0.00    +0.000 A 
ATOM     17  C   UNL     1      45.883   1.609   8.300  0.00  0.00    +0.000 A 
ATOM     18  C   UNL     1      46.878   0.845   7.706  0.00  0.00    +0.000 A 
ATOM     19  N   UNL     1      47.821   1.343   6.886  0.00  0.00    +0.000 NA
ATOM     20  C   UNL     1      47.747   2.664   6.630  0.00  0.00    +0.000 A 
ATOM     21  C   UNL     1      46.786   3.505   7.175  0.00  0.00    +0.000 A 
ENDBRANCH  14  16
ENDBRANCH  13  14
ENDBRANCH   3  13
TORSDOF 4
ENDMDL
MODEL 5
REMARK VINA RESULT:    -6.797      1.415      1.878
REMARK INTER + INTRA:          -8.989
REMARK INTER:                  -8.376
REMARK INTRA:                  -0.613
REMARK UNBOUND:                -0.603
REMARK  Name = 
REMARK  4 active torsions:
REMARK  status: ('A' for Active; 'I' for Inactive)
REMARK    1  A    between atoms: C_3  and  C_4
REMARK    2  A    between atoms: C_4  and  N_5
REMARK    3  A    between atoms: N_5  and  C_6
REMARK    4  A    between atoms: C_13  and  C_14
REMARK                            x       y       z     vdW  Elec       q    Type
REMARK                         _______ _______ _______ _____ _____    ______ ____
ROOT
ATOM      1  C   UNL     1      46.275   3.665  13.296  0.00  0.00    +0.000 A 
ATOM      2  C   UNL     1      45.394   3.461  12.236  0.00  0.00    +0.000 A 
ATOM      3  C   UNL     1      45.091   4.510  11.361  0.00  0.00    +0.000 A 
ATOM      4  C   UNL     1      45.709   5.757  11.558  0.00  0.00    +0.000 A 
ATOM      5  C   UNL     1      46.584   5.997  12.635  0.00  0.00    +0.000 A 
ATOM      6  C   UNL     1      46.859   4.920  13.495  0.00  0.00    +0.000 A 
ENDROOT
BRANCH   5   7
ATOM      7  C   UNL     1      47.142   7.343  12.866  0.00  0.00    +0.000 A 
ATOM      8  C   UNL     1      47.902   7.683  13.986  0.00  0.00    +0.000 A 
ATOM      9  N   UNL     1      48.379   8.932  14.221  0.00  0.00    +0.000 NA
ATOM     10  C   UNL     1      48.069   9.849  13.281  0.00  0.00    +0.000 A 
ATOM     11  C   UNL     1      47.325   9.533  12.160  0.00  0.00    +0.000 A 
ATOM     12  N   UNL     1      46.852   8.286  11.927  0.00  0.00    +0.000 NA
ENDBRANCH   5   7
BRANCH   3  13
ATOM     13  C   UNL     1      44.091   4.334  10.242  0.00  0.00    +0.000 C 
BRANCH  13  14
ATOM     14  N   UNL     1      44.706   4.618   8.952  0.00  0.00    +0.000 N 
ATOM     15  H   UNL     1      45.176   5.521   8.947  0.00  0.00    +0.000 HD
BRANCH  14  16
ATOM     16  C   UNL     1      45.481   3.615   8.350  0.00  0.00    +0.000 A 
ATOM     17  C   UNL     1      46.546   3.881   7.483  0.00  0.00    +0.000 A 
ATOM     18  C   UNL     1      47.306   2.828   6.993  0.00  0.00    +0.000 A 
ATOM     19  N   UNL     1      47.101   1.538   7.315  0.00  0.00    +0.000 NA
ATOM     20  C   UNL     1      46.105   1.296   8.190  0.00  0.00    +0.000 A 
ATOM     21  C   UNL     1      45.296   2.285   8.734  0.00  0.00    +0.000 A 
ENDBRANCH  14  16
ENDBRANCH  13  14
ENDBRANCH   3  13
TORSDOF 4
ENDMDL
MODEL 6
REMARK VINA RESULT:    -6.476      2.154      3.905
REMARK INTER + INTRA:          -8.594
REMARK INTER:                  -7.933
REMARK INTRA:                  -0.661
REMARK UNBOUND:                -0.603
REMARK  Name = 
REMARK  4 active torsions:
REMARK  status: ('A' for Active; 'I' for Inactive)
REMARK    1  A    between atoms: C_3  and  C_4
REMARK    2  A    between atoms: C_4  and  N_5
REMARK    3  A    between atoms: N_5  and  C_6
REMARK    4  A    between atoms: C_13  and  C_14
REMARK                            x       y       z     vdW  Elec       q    Type
REMARK                         _______ _______ _______ _____ _____    ______ ____
ROOT
ATOM      1  C   UNL     1      48.371   7.142  12.339  0.00  0.00    +0.000 A 
ATOM      2  C   UNL     1      47.170   7.023  11.641  0.00  0.00    +0.000 A 
ATOM      3  C   UNL     1      46.121   6.265  12.172  0.00  0.00    +0.000 A 
ATOM      4  C   UNL     1      46.293   5.652  13.425  0.00  0.00    +0.000 A 
ATOM      5  C   UNL     1      47.503   5.737  14.140  0.00  0.00    +0.000 A 
ATOM      6  C   UNL     1      48.535   6.502  13.571  0.00  0.00    +0.000 A 
ENDROOT
BRANCH   5   7
ATOM      7  C   UNL     1      47.682   5.004  15.408  0.00  0.00    +0.000 A 
ATOM      8  C   UNL     1      46.779   4.055  15.886  0.00  0.00    +0.000 A 
ATOM      9  N   UNL     1      46.920   3.413  17.074  0.00  0.00    +0.000 NA
ATOM     10  C   UNL     1      48.016   3.755  17.783  0.00  0.00    +0.000 A 
ATOM     11  C   UNL     1      48.928   4.688  17.325  0.00  0.00    +0.000 A 
ATOM     12  N   UNL     1      48.786   5.325  16.139  0.00  0.00    +0.000 NA
ENDBRANCH   5   7
BRANCH   3  13
ATOM     13  C   UNL     1      44.832   6.066  11.407  0.00  0.00    +0.000 C 
BRANCH  13  14
ATOM     14  N   UNL     1      45.100   5.870   9.988  0.00  0.00    +0.000 N 
ATOM     15  H   UNL     1      45.841   6.482   9.654  0.00  0.00    +0.000 HD
BRANCH  14  16
ATOM     16  C   UNL     1      45.245   4.556   9.516  0.00  0.00    +0.000 A 
ATOM     17  C   UNL     1      44.645   3.449  10.124  0.00  0.00    +0.000 A 
ATOM     18  C   UNL     1      44.782   2.195   9.543  0.00  0.00    +0.000 A 
ATOM     19  N   UNL     1      45.449   1.964   8.398  0.00  0.00    +0.000 NA
ATOM     20  C   UNL     1      45.980   3.045   7.793  0.00  0.00    +0.000 A 
ATOM     21  C   UNL     1      45.892   4.336   8.297  0.00  0.00    +0.000 A 
ENDBRANCH  14  16
ENDBRANCH  13  14
ENDBRANCH   3  13
TORSDOF 4
ENDMDL
MODEL 7
REMARK VINA RESULT:    -6.115      1.425      6.571
REMARK INTER + INTRA:          -8.147
REMARK INTER:                  -7.656
REMARK INTRA:                  -0.491
REMARK UNBOUND:                -0.603
REMARK  Name = 
REMARK  4 active torsions:
REMARK  status: ('A' for Active; 'I' for Inactive)
REMARK    1  A    between atoms: C_3  and  C_4
REMARK    2  A    between atoms: C_4  and  N_5
REMARK    3  A    between atoms: N_5  and  C_6
REMARK    4  A    between atoms: C_13  and  C_14
REMARK                            x       y       z     vdW  Elec       q    Type
REMARK                         _______ _______ _______ _____ _____    ______ ____
ROOT
ATOM      1  C   UNL     1      43.076   5.264  11.300  0.00  0.00    +0.000 A 
ATOM      2  C   UNL     1      43.862   6.258  11.881  0.00  0.00    +0.000 A 
ATOM      3  C   UNL     1      45.187   6.438  11.468  0.00  0.00    +0.000 A 
ATOM      4  C   UNL     1      45.696   5.617  10.446  0.00  0.00    +0.000 A 
ATOM      5  C   UNL     1      44.931   4.591   9.860  0.00  0.00    +0.000 A 
ATOM      6  C   UNL     1      43.607   4.438  10.305  0.00  0.00    +0.000 A 
ENDROOT
BRANCH   5   7
ATOM      7  C   UNL     1      45.526   3.688   8.856  0.00  0.00    +0.000 A 
ATOM      8  C   UNL     1      45.567   2.300   8.992  0.00  0.00    +0.000 A 
ATOM      9  N   UNL     1      46.153   1.472   8.090  0.00  0.00    +0.000 NA
ATOM     10  C   UNL     1      46.705   2.087   7.023  0.00  0.00    +0.000 A 
ATOM     11  C   UNL     1      46.669   3.460   6.863  0.00  0.00    +0.000 A 
ATOM     12  N   UNL     1      46.082   4.283   7.764  0.00  0.00    +0.000 NA
ENDBRANCH   5   7
BRANCH   3  13
ATOM     13  C   UNL     1      46.081   7.465  12.124  0.00  0.00    +0.000 C 
BRANCH  13  14
ATOM     14  N   UNL     1      47.468   7.275  11.719  0.00  0.00    +0.000 N 
ATOM     15  H   UNL     1      47.658   7.694  10.811  0.00  0.00    +0.000 HD
BRANCH  14  16
ATOM     16  C   UNL     1      48.477   7.556  12.653  0.00  0.00    +0.000 A 
ATOM     17  C   UNL     1      48.563   6.935  13.903  0.00  0.00    +0.000 A 
ATOM     18  C   UNL     1      49.639   7.219  14.733  0.00  0.00    +0.000 A 
ATOM     19  N   UNL     1      50.642   8.055  14.406  0.00  0.00    +0.000 NA
ATOM     20  C   UNL     1      50.575   8.610  13.180  0.00  0.00    +0.000 A 
ATOM     21  C   UNL     1      49.541   8.382  12.282  0.00  0.00    +0.000 A 
ENDBRANCH  14  16
ENDBRANCH  13  14
ENDBRANCH   3  13
TORSDOF 4
ENDMDL
MODEL 8
REMARK VINA RESULT:    -5.907      3.086      7.259
REMARK INTER + INTRA:          -7.892
REMARK INTER:                  -7.273
REMARK INTRA:                  -0.618
REMARK UNBOUND:                -0.603
REMARK  Name = 
REMARK  4 active torsions:
REMARK  status: ('A' for Active; 'I' for Inactive)
REMARK    1  A    between atoms: C_3  and  C_4
REMARK    2  A    between atoms: C_4  and  N_5
REMARK    3  A    between atoms: N_5  and  C_6
REMARK    4  A    between atoms: C_13  and  C_14
REMARK                            x       y       z     vdW  Elec       q    Type
REMARK                         _______ _______ _______ _____ _____    ______ ____
ROOT
ATOM      1  C   UNL     1      46.635   8.523  12.181  0.00  0.00    +0.000 A 
ATOM      2  C   UNL     1      47.647   8.345  13.123  0.00  0.00    +0.000 A 
ATOM      3  C   UNL     1      47.826   7.100  13.736  0.00  0.00    +0.000 A 
ATOM      4  C   UNL     1      46.985   6.035  13.366  0.00  0.00    +0.000 A 
ATOM      5  C   UNL     1      45.941   6.195  12.436  0.00  0.00    +0.000 A 
ATOM      6  C   UNL     1      45.790   7.461  11.847  0.00  0.00    +0.000 A 
ENDROOT
BRANCH   5   7
ATOM      7  C   UNL     1      45.019   5.081  12.140  0.00  0.00    +0.000 A 
ATOM      8  C   UNL     1      44.573   4.171  13.098  0.00  0.00    +0.000 A 
ATOM      9  N   UNL     1      43.761   3.120  12.818  0.00  0.00    +0.000 NA
ATOM     10  C   UNL     1      43.397   3.007  11.523  0.00  0.00    +0.000 A 
ATOM     11  C   UNL     1      43.820   3.903  10.558  0.00  0.00    +0.000 A 
ATOM     12  N   UNL     1      44.628   4.951  10.841  0.00  0.00    +0.000 NA
ENDBRANCH   5   7
BRANCH   3  13
ATOM     13  C   UNL     1      48.874   6.895  14.806  0.00  0.00    +0.000 C 
BRANCH  13  14
ATOM     14  N   UNL     1      48.249   6.606  16.090  0.00  0.00    +0.000 N 
ATOM     15  H   UNL     1      47.267   6.875  16.103  0.00  0.00    +0.000 HD
BRANCH  14  16
ATOM     16  C   UNL     1      48.458   5.340  16.660  0.00  0.00    +0.000 A 
ATOM     17  C   UNL     1      49.620   4.992  17.357  0.00  0.00    +0.000 A 
ATOM     18  C   UNL     1      49.708   3.742  17.953  0.00  0.00    +0.000 A 
ATOM     19  N   UNL     1      48.726   2.823  17.926  0.00  0.00    +0.000 NA
ATOM     20  C   UNL     1      47.592   3.187  17.295  0.00  0.00    +0.000 A 
ATOM     21  C   UNL     1      47.411   4.416  16.675  0.00  0.00    +0.000 A 
ENDBRANCH  14  16
ENDBRANCH  13  14
ENDBRANCH   3  13
TORSDOF 4
ENDMDL
MODEL 9
REMARK VINA RESULT:    -5.548      2.151      6.923
REMARK INTER + INTRA:          -7.449
REMARK INTER:                  -6.845
REMARK INTRA:                  -0.604
REMARK UNBOUND:                -0.603
REMARK  Name = 
REMARK  4 active torsions:
REMARK  status: ('A' for Active; 'I' for Inactive)
REMARK    1  A    between atoms: C_3  and  C_4
REMARK    2  A    between atoms: C_4  and  N_5
REMARK    3  A    between atoms: N_5  and  C_6
REMARK    4  A    between atoms: C_13  and  C_14
REMARK                            x       y       z     vdW  Elec       q    Type
REMARK                         _______ _______ _______ _____ _____    ______ ____
ROOT
ATOM      1  C   UNL     1      44.538   8.328  11.809  0.00  0.00    +0.000 A 
ATOM      2  C   UNL     1      45.664   8.412  12.626  0.00  0.00    +0.000 A 
ATOM      3  C   UNL     1      46.592   7.365  12.653  0.00  0.00    +0.000 A 
ATOM      4  C   UNL     1      46.379   6.248  11.826  0.00  0.00    +0.000 A 
ATOM      5  C   UNL     1      45.238   6.128  11.011  0.00  0.00    +0.000 A 
ATOM      6  C   UNL     1      44.326   7.197  11.015  0.00  0.00    +0.000 A 
ENDROOT
BRANCH   5   7
ATOM      7  C   UNL     1      44.998   4.901  10.227  0.00  0.00    +0.000 A 
ATOM      8  C   UNL     1      44.292   3.800  10.711  0.00  0.00    +0.000 A 
ATOM      9  N   UNL     1      44.109   2.653  10.007  0.00  0.00    +0.000 NA
ATOM     10  C   UNL     1      44.663   2.644   8.776  0.00  0.00    +0.000 A 
ATOM     11  C   UNL     1      45.359   3.727   8.273  0.00  0.00    +0.000 A 
ATOM     12  N   UNL     1      45.538   4.869   8.977  0.00  0.00    +0.000 NA
ENDBRANCH   5   7
BRANCH   3  13
ATOM     13  C   UNL     1      47.789   7.402  13.575  0.00  0.00    +0.000 C 
BRANCH  13  14
ATOM     14  N   UNL     1      48.232   6.052  13.898  0.00  0.00    +0.000 N 
ATOM     15  H   UNL     1      49.190   5.885  13.597  0.00  0.00    +0.000 HD
BRANCH  14  16
ATOM     16  C   UNL     1      47.992   5.566  15.193  0.00  0.00    +0.000 A 
ATOM     17  C   UNL     1      47.219   4.431  15.458  0.00  0.00    +0.000 A 
ATOM     18  C   UNL     1      47.098   3.979  16.765  0.00  0.00    +0.000 A 
ATOM     19  N   UNL     1      47.702   4.555  17.821  0.00  0.00    +0.000 NA
ATOM     20  C   UNL     1      48.485   5.617  17.548  0.00  0.00    +0.000 A 
ATOM     21  C   UNL     1      48.669   6.138  16.274  0.00  0.00    +0.000 A 
ENDBRANCH  14  16
ENDBRANCH  13  14
ENDBRANCH   3  13
TORSDOF 4
ENDMDL
