MODEL 1
REMARK VINA RESULT:    -7.846      0.000      0.000
REMARK INTER + INTRA:         -11.094
REMARK INTER:                 -10.598
REMARK INTRA:                  -0.496
REMARK UNBOUND:                -0.496
REMARK  Name = 
REMARK  7 active torsions:
REMARK  status: ('A' for Active; 'I' for Inactive)
REMARK    1  A    between atoms: N_1  and  C_2
REMARK    2  A    between atoms: C_2  and  C_3
REMARK    3  A    between atoms: C_6  and  C_7
REMARK    4  A    between atoms: C_7  and  N_8
REMARK    5  A    between atoms: N_8  and  C_9
REMARK    6  A    between atoms: CA_13  and  C_14
REMARK    7  A    between atoms: C_14  and  OXT_16
REMARK                            x       y       z     vdW  Elec       q    Type
REMARK                         _______ _______ _______ _____ _____    ______ ____
ROOT
ATOM      1  N   UNL     1      43.809   4.280  10.750  0.00  0.00    +0.000 N 
ATOM      2  H   UNL     1      42.851   4.371  11.088  0.00  0.00    +0.000 HD
ENDROOT
BRANCH   1   3
ATOM      3  C   UNL     1      44.739   4.944  11.568  0.00  0.00    +0.000 A 
ATOM      4  C   UNL     1      44.981   6.319  11.472  0.00  0.00    +0.000 A 
ATOM      5  C   UNL     1      45.868   6.930  12.349  0.00  0.00    +0.000 A 
ATOM      6  N   UNL     1      46.526   6.288  13.338  0.00  0.00    +0.000 NA
ATOM      7  CA  UNL     1      46.246   4.959  13.449  0.00  0.00    +0.000 A 
ATOM      8  C   UNL     1      45.365   4.264  12.618  0.00  0.00    +0.000 A 
BRANCH   7   9
ATOM      9  C   UNL     1      46.969   4.251  14.555  0.00  0.00    +0.000 C 
ATOM     10  O   UNL     1      47.445   3.132  14.445  0.00  0.00    +0.000 OA
BRANCH   9  11
ATOM     11  OXT UNL     1      47.052   5.001  15.675  0.00  0.00    +0.000 OA
ATOM     12  HXT UNL     1      47.085   5.952  15.434  0.00  0.00    +0.000 HD
ENDBRANCH   9  11
ENDBRANCH   7   9
ENDBRANCH   1   3
BRANCH   1  13
ATOM     13  C   UNL     1      44.109   2.903  10.347  0.00  0.00    +0.000 C 
BRANCH  13  17
ATOM     14  C   UNL     1      46.624   2.766   6.817  0.00  0.00    +0.000 A 
ATOM     15  C   UNL     1      46.004   3.964   7.200  0.00  0.00    +0.000 A 
ATOM     16  C   UNL     1      45.191   4.014   8.337  0.00  0.00    +0.000 A 
ATOM     17  C   UNL     1      44.982   2.866   9.115  0.00  0.00    +0.000 A 
ATOM     18  C   UNL     1      45.614   1.674   8.738  0.00  0.00    +0.000 A 
ATOM     19  C   UNL     1      46.429   1.625   7.603  0.00  0.00    +0.000 A 
BRANCH  14  20
ATOM     20  C   UNL     1      47.451   2.696   5.557  0.00  0.00    +0.000 C 
BRANCH  20  21
ATOM     21  N   UNL     1      48.587   1.793   5.706  0.00  0.00    +0.000 NA
ATOM     22  H   UNL     1      48.472   1.008   5.069  0.00  0.00    +0.000 HD
ATOM     23  H   UNL     1      48.576   1.406   6.647  0.00  0.00    +0.000 HD
ENDBRANCH  20  21
ENDBRANCH  14  20
ENDBRANCH  13  17
ENDBRANCH   1  13
TORSDOF 7
ENDMDL
MODEL 2
REMARK VINA RESULT:    -7.606      1.894      2.561
REMARK INTER + INTRA:         -10.770
REMARK INTER:                 -10.105
REMARK INTRA:                  -0.665
REMARK UNBOUND:                -0.496
REMARK  Name = 
REMARK  7 active torsions:
REMARK  status: ('A' for Active; 'I' for Inactive)
REMARK    1  A    between atoms: N_1  and  C_2
REMARK    2  A    between atoms: C_2  and  C_3
REMARK    3  A    between atoms: C_6  and  C_7
REMARK    4  A    between atoms: C_7  and  N_8
REMARK    5  A    between atoms: N_8  and  C_9
REMARK    6  A    between atoms: CA_13  and  C_14
REMARK    7  A    between atoms: C_14  and  OXT_16
REMARK                            x       y       z     vdW  Elec       q    Type
REMARK                         _______ _______ _______ _____ _____    ______ ____
ROOT
ATOM      1  N   UNL     1      44.303   5.541  10.615  0.00  0.00    +0.000 N 
ATOM      2  H   UNL     1      43.536   6.192  10.783  0.00  0.00    +0.000 HD
ENDROOT
BRANCH   1   3
ATOM      3  C   UNL     1      45.277   5.576  11.627  0.00  0.00    +0.000 A 
ATOM      4  C   UNL     1      45.252   4.713  12.728  0.00  0.00    +0.000 A 
ATOM      5  C   UNL     1      46.277   4.753  13.665  0.00  0.00    +0.000 A 
ATOM      6  N   UNL     1      47.348   5.573  13.589  0.00  0.00    +0.000 NA
ATOM      7  CA  UNL     1      47.383   6.376  12.487  0.00  0.00    +0.000 A 
ATOM      8  C   UNL     1      46.403   6.397  11.493  0.00  0.00    +0.000 A 
BRANCH   7   9
ATOM      9  C   UNL     1      48.578   7.276  12.399  0.00  0.00    +0.000 C 
ATOM     10  O   UNL     1      48.530   8.425  11.988  0.00  0.00    +0.000 OA
BRANCH   9  11
ATOM     11  OXT UNL     1      49.703   6.679  12.846  0.00  0.00    +0.000 OA
ATOM     12  HXT UNL     1      49.568   6.366  13.767  0.00  0.00    +0.000 HD
ENDBRANCH   9  11
ENDBRANCH   7   9
ENDBRANCH   1   3
BRANCH   1  13
ATOM     13  C   UNL     1      43.812   4.231  10.179  0.00  0.00    +0.000 C 
BRANCH  13  17
ATOM     14  C   UNL     1      46.636   2.310   7.506  0.00  0.00    +0.000 A 
ATOM     15  C   UNL     1      45.882   1.548   8.409  0.00  0.00    +0.000 A 
ATOM     16  C   UNL     1      44.970   2.162   9.274  0.00  0.00    +0.000 A 
ATOM     17  C   UNL     1      44.794   3.552   9.254  0.00  0.00    +0.000 A 
ATOM     18  C   UNL     1      45.538   4.312   8.341  0.00  0.00    +0.000 A 
ATOM     19  C   UNL     1      46.447   3.697   7.474  0.00  0.00    +0.000 A 
BRANCH  14  20
ATOM     20  C   UNL     1      47.663   1.657   6.615  0.00  0.00    +0.000 C 
BRANCH  20  21
ATOM     21  N   UNL     1      48.694   2.600   6.196  0.00  0.00    +0.000 NA
ATOM     22  H   UNL     1      49.298   2.148   5.514  0.00  0.00    +0.000 HD
ATOM     23  H   UNL     1      49.280   2.821   6.999  0.00  0.00    +0.000 HD
ENDBRANCH  20  21
ENDBRANCH  14  20
ENDBRANCH  13  17
ENDBRANCH   1  13
TORSDOF 7
ENDMDL
MODEL 3
REMARK VINA RESULT:    -7.494      2.031      2.621
REMARK INTER + INTRA:         -10.618
REMARK INTER:                 -10.115
REMARK INTRA:                  -0.504
REMARK UNBOUND:                -0.496
REMARK  Name = 
REMARK  7 active torsions:
REMARK  status: ('A' for Active; 'I' for Inactive)
REMARK    1  A    between atoms: N_1  and  C_2
REMARK    2  A    between atoms: C_2  and  C_3
REMARK    3  A    between atoms: C_6  and  C_7
REMARK    4  A    between atoms: C_7  and  N_8
REMARK    5  A    between atoms: N_8  and  C_9
REMARK    6  A    between atoms: CA_13  and  C_14
REMARK    7  A    between atoms: C_14  and  OXT_16
REMARK                            x       y       z     vdW  Elec       q    Type
REMARK                         _______ _______ _______ _____ _____    ______ ____
ROOT
ATOM      1  N   UNL     1      44.925   2.840  11.649  0.00  0.00    +0.000 N 
ATOM      2  H   UNL     1      45.667   2.149  11.540  0.00  0.00    +0.000 HD
ENDROOT
BRANCH   1   3
ATOM      3  C   UNL     1      45.371   4.025  12.259  0.00  0.00    +0.000 A 
ATOM      4  C   UNL     1      46.369   4.039  13.240  0.00  0.00    +0.000 A 
ATOM      5  C   UNL     1      46.811   5.248  13.762  0.00  0.00    +0.000 A 
ATOM      6  N   UNL     1      46.355   6.458  13.374  0.00  0.00    +0.000 NA
ATOM      7  CA  UNL     1      45.417   6.432  12.385  0.00  0.00    +0.000 A 
ATOM      8  C   UNL     1      44.920   5.266  11.797  0.00  0.00    +0.000 A 
BRANCH   7   9
ATOM      9  C   UNL     1      44.922   7.777  11.948  0.00  0.00    +0.000 C 
ATOM     10  O   UNL     1      45.454   8.830  12.263  0.00  0.00    +0.000 OA
BRANCH   9  11
ATOM     11  OXT UNL     1      43.836   7.689  11.149  0.00  0.00    +0.000 OA
ATOM     12  HXT UNL     1      43.125   8.272  11.494  0.00  0.00    +0.000 HD
ENDBRANCH   9  11
ENDBRANCH   7   9
ENDBRANCH   1   3
BRANCH   1  13
ATOM     13  C   UNL     1      44.115   2.956  10.434  0.00  0.00    +0.000 C 
BRANCH  13  17
ATOM     14  C   UNL     1      46.582   2.749   6.873  0.00  0.00    +0.000 A 
ATOM     15  C   UNL     1      46.055   3.975   7.300  0.00  0.00    +0.000 A 
ATOM     16  C   UNL     1      45.257   4.048   8.447  0.00  0.00    +0.000 A 
ATOM     17  C   UNL     1      44.972   2.894   9.191  0.00  0.00    +0.000 A 
ATOM     18  C   UNL     1      45.511   1.672   8.770  0.00  0.00    +0.000 A 
ATOM     19  C   UNL     1      46.311   1.600   7.625  0.00  0.00    +0.000 A 
BRANCH  14  20
ATOM     20  C   UNL     1      47.391   2.658   5.603  0.00  0.00    +0.000 C 
BRANCH  20  21
ATOM     21  N   UNL     1      48.567   1.812   5.769  0.00  0.00    +0.000 NA
ATOM     22  H   UNL     1      48.545   1.393   6.696  0.00  0.00    +0.000 HD
ATOM     23  H   UNL     1      49.398   2.398   5.736  0.00  0.00    +0.000 HD
ENDBRANCH  20  21
ENDBRANCH  14  20
ENDBRANCH  13  17
ENDBRANCH   1  13
TORSDOF 7
ENDMDL
MODEL 4
REMARK VINA RESULT:    -7.230      3.294      6.492
REMARK INTER + INTRA:         -10.262
REMARK INTER:                  -9.635
REMARK INTRA:                  -0.628
REMARK UNBOUND:                -0.496
REMARK  Name = 
REMARK  7 active torsions:
REMARK  status: ('A' for Active; 'I' for Inactive)
REMARK    1  A    between atoms: N_1  and  C_2
REMARK    2  A    between atoms: C_2  and  C_3
REMARK    3  A    between atoms: C_6  and  C_7
REMARK    4  A    between atoms: C_7  and  N_8
REMARK    5  A    between atoms: N_8  and  C_9
REMARK    6  A    between atoms: CA_13  and  C_14
REMARK    7  A    between atoms: C_14  and  OXT_16
REMARK                            x       y       z     vdW  Elec       q    Type
REMARK                         _______ _______ _______ _____ _____    ______ ____
ROOT
ATOM      1  N   UNL     1      44.116   4.682   9.129  0.00  0.00    +0.000 N 
ATOM      2  H   UNL     1      44.535   5.550   8.794  0.00  0.00    +0.000 HD
ENDROOT
BRANCH   1   3
ATOM      3  C   UNL     1      44.848   3.544   8.750  0.00  0.00    +0.000 A 
ATOM      4  C   UNL     1      44.585   2.271   9.268  0.00  0.00    +0.000 A 
ATOM      5  C   UNL     1      45.303   1.174   8.810  0.00  0.00    +0.000 A 
ATOM      6  N   UNL     1      46.255   1.231   7.855  0.00  0.00    +0.000 NA
ATOM      7  CA  UNL     1      46.469   2.469   7.326  0.00  0.00    +0.000 A 
ATOM      8  C   UNL     1      45.791   3.625   7.720  0.00  0.00    +0.000 A 
BRANCH   7   9
ATOM      9  C   UNL     1      47.519   2.527   6.258  0.00  0.00    +0.000 C 
ATOM     10  O   UNL     1      48.443   1.734   6.173  0.00  0.00    +0.000 OA
BRANCH   9  11
ATOM     11  OXT UNL     1      47.312   3.542   5.391  0.00  0.00    +0.000 OA
ATOM     12  HXT UNL     1      48.175   3.923   5.117  0.00  0.00    +0.000 HD
ENDBRANCH   9  11
ENDBRANCH   7   9
ENDBRANCH   1   3
BRANCH   1  13
ATOM     13  C   UNL     1      43.693   4.793  10.527  0.00  0.00    +0.000 C 
BRANCH  13  17
ATOM     14  C   UNL     1      46.939   6.088  13.095  0.00  0.00    +0.000 A 
ATOM     15  C   UNL     1      46.784   6.638  11.816  0.00  0.00    +0.000 A 
ATOM     16  C   UNL     1      45.740   6.224  10.982  0.00  0.00    +0.000 A 
ATOM     17  C   UNL     1      44.828   5.250  11.413  0.00  0.00    +0.000 A 
ATOM     18  C   UNL     1      44.976   4.711  12.698  0.00  0.00    +0.000 A 
ATOM     19  C   UNL     1      46.018   5.128  13.532  0.00  0.00    +0.000 A 
BRANCH  14  20
ATOM     20  C   UNL     1      48.099   6.489  13.972  0.00  0.00    +0.000 C 
BRANCH  20  21
ATOM     21  N   UNL     1      49.337   6.608  13.209  0.00  0.00    +0.000 NA
ATOM     22  H   UNL     1      50.104   6.795  13.851  0.00  0.00    +0.000 HD
ATOM     23  H   UNL     1      49.268   7.419  12.598  0.00  0.00    +0.000 HD
ENDBRANCH  20  21
ENDBRANCH  14  20
ENDBRANCH  13  17
ENDBRANCH   1  13
TORSDOF 7
ENDMDL
MODEL 5
REMARK VINA RESULT:    -6.344      1.973      3.325
REMARK INTER + INTRA:          -9.066
REMARK INTER:                  -8.568
REMARK INTRA:                  -0.498
REMARK UNBOUND:                -0.496
REMARK  Name = 
REMARK  7 active torsions:
REMARK  status: ('A' for Active; 'I' for Inactive)
REMARK    1  A    between atoms: N_1  and  C_2
REMARK    2  A    between atoms: C_2  and  C_3
REMARK    3  A    between atoms: C_6  and  C_7
REMARK    4  A    between atoms: C_7  and  N_8
REMARK    5  A    between atoms: N_8  and  C_9
REMARK    6  A    between atoms: CA_13  and  C_14
REMARK    7  A    between atoms: C_14  and  OXT_16
REMARK                            x       y       z     vdW  Elec       q    Type
REMARK                         _______ _______ _______ _____ _____    ______ ____
ROOT
ATOM      1  N   UNL     1      45.999   6.092  13.202  0.00  0.00    +0.000 N 
ATOM      2  H   UNL     1      45.560   7.001  13.349  0.00  0.00    +0.000 HD
ENDROOT
BRANCH   1   3
ATOM      3  C   UNL     1      46.959   5.788  14.181  0.00  0.00    +0.000 A 
ATOM      4  C   UNL     1      47.972   6.681  14.548  0.00  0.00    +0.000 A 
ATOM      5  C   UNL     1      48.856   6.348  15.566  0.00  0.00    +0.000 A 
ATOM      6  N   UNL     1      48.806   5.198  16.273  0.00  0.00    +0.000 NA
ATOM      7  CA  UNL     1      47.788   4.357  15.936  0.00  0.00    +0.000 A 
ATOM      8  C   UNL     1      46.850   4.613  14.933  0.00  0.00    +0.000 A 
BRANCH   7   9
ATOM      9  C   UNL     1      47.728   3.087  16.729  0.00  0.00    +0.000 C 
ATOM     10  O   UNL     1      48.575   2.209  16.666  0.00  0.00    +0.000 OA
BRANCH   9  11
ATOM     11  OXT UNL     1      46.646   3.036  17.535  0.00  0.00    +0.000 OA
ATOM     12  HXT UNL     1      46.925   3.149  18.470  0.00  0.00    +0.000 HD
ENDBRANCH   9  11
ENDBRANCH   7   9
ENDBRANCH   1   3
BRANCH   1  13
ATOM     13  C   UNL     1      45.010   5.064  12.867  0.00  0.00    +0.000 C 
BRANCH  13  17
ATOM     14  C   UNL     1      45.373   3.836   8.724  0.00  0.00    +0.000 A 
ATOM     15  C   UNL     1      44.891   2.942   9.689  0.00  0.00    +0.000 A 
ATOM     16  C   UNL     1      44.773   3.331  11.027  0.00  0.00    +0.000 A 
ATOM     17  C   UNL     1      45.134   4.626  11.427  0.00  0.00    +0.000 A 
ATOM     18  C   UNL     1      45.602   5.523  10.458  0.00  0.00    +0.000 A 
ATOM     19  C   UNL     1      45.717   5.134   9.120  0.00  0.00    +0.000 A 
BRANCH  14  20
ATOM     20  C   UNL     1      45.559   3.399   7.292  0.00  0.00    +0.000 C 
BRANCH  20  21
ATOM     21  N   UNL     1      46.715   4.040   6.676  0.00  0.00    +0.000 NA
ATOM     22  H   UNL     1      47.558   3.740   7.161  0.00  0.00    +0.000 HD
ATOM     23  H   UNL     1      46.643   5.046   6.815  0.00  0.00    +0.000 HD
ENDBRANCH  20  21
ENDBRANCH  14  20
ENDBRANCH  13  17
ENDBRANCH   1  13
TORSDOF 7
ENDMDL
MODEL 6
REMARK VINA RESULT:    -6.052      3.587      7.899
REMARK INTER + INTRA:          -8.671
REMARK INTER:                  -8.334
REMARK INTRA:                  -0.337
REMARK UNBOUND:                -0.496
REMARK  Name = 
REMARK  7 active torsions:
REMARK  status: ('A' for Active; 'I' for Inactive)
REMARK    1  A    between atoms: N_1  and  C_2
REMARK    2  A    between atoms: C_2  and  C_3
REMARK    3  A    between atoms: C_6  and  C_7
REMARK    4  A    between atoms: C_7  and  N_8
REMARK    5  A    between atoms: N_8  and  C_9
REMARK    6  A    between atoms: CA_13  and  C_14
REMARK    7  A    between atoms: C_14  and  OXT_16
REMARK                            x       y       z     vdW  Elec       q    Type
REMARK                         _______ _______ _______ _____ _____    ______ ____
ROOT
ATOM      1  N   UNL     1      45.574   4.108  13.964  0.00  0.00    +0.000 N 
ATOM      2  H   UNL     1      45.067   4.068  14.848  0.00  0.00    +0.000 HD
ENDROOT
BRANCH   1   3
ATOM      3  C   UNL     1      44.735   4.378  12.870  0.00  0.00    +0.000 A 
ATOM      4  C   UNL     1      43.522   5.063  13.000  0.00  0.00    +0.000 A 
ATOM      5  C   UNL     1      42.765   5.355  11.872  0.00  0.00    +0.000 A 
ATOM      6  N   UNL     1      43.125   5.039  10.610  0.00  0.00    +0.000 NA
ATOM      7  CA  UNL     1      44.330   4.413  10.493  0.00  0.00    +0.000 A 
ATOM      8  C   UNL     1      45.160   4.088  11.569  0.00  0.00    +0.000 A 
BRANCH   7   9
ATOM      9  C   UNL     1      44.733   4.074   9.090  0.00  0.00    +0.000 C 
ATOM     10  O   UNL     1      44.446   3.023   8.539  0.00  0.00    +0.000 OA
BRANCH   9  11
ATOM     11  OXT UNL     1      45.429   5.070   8.501  0.00  0.00    +0.000 OA
ATOM     12  HXT UNL     1      45.831   5.644   9.189  0.00  0.00    +0.000 HD
ENDBRANCH   9  11
ENDBRANCH   7   9
ENDBRANCH   1   3
BRANCH   1  13
ATOM     13  C   UNL     1      46.813   4.880  14.087  0.00  0.00    +0.000 C 
BRANCH  13  17
ATOM     14  C   UNL     1      48.618   4.424  18.004  0.00  0.00    +0.000 A 
ATOM     15  C   UNL     1      47.758   3.438  17.500  0.00  0.00    +0.000 A 
ATOM     16  C   UNL     1      47.171   3.580  16.238  0.00  0.00    +0.000 A 
ATOM     17  C   UNL     1      47.435   4.712  15.453  0.00  0.00    +0.000 A 
ATOM     18  C   UNL     1      48.307   5.689  15.952  0.00  0.00    +0.000 A 
ATOM     19  C   UNL     1      48.895   5.544  17.212  0.00  0.00    +0.000 A 
BRANCH  14  20
ATOM     20  C   UNL     1      49.203   4.302  19.389  0.00  0.00    +0.000 C 
BRANCH  20  21
ATOM     21  N   UNL     1      48.339   3.530  20.275  0.00  0.00    +0.000 NA
ATOM     22  H   UNL     1      48.807   2.661  20.520  0.00  0.00    +0.000 HD
ATOM     23  H   UNL     1      47.496   3.271  19.766  0.00  0.00    +0.000 HD
ENDBRANCH  20  21
ENDBRANCH  14  20
ENDBRANCH  13  17
ENDBRANCH   1  13
TORSDOF 7
ENDMDL
MODEL 7
REMARK VINA RESULT:    -5.986      4.099      7.817
REMARK INTER + INTRA:          -8.582
REMARK INTER:                  -8.188
REMARK INTRA:                  -0.394
REMARK UNBOUND:                -0.496
REMARK  Name = 
REMARK  7 active torsions:
REMARK  status: ('A' for Active; 'I' for Inactive)
REMARK    1  A    between atoms: N_1  and  C_2
REMARK    2  A    between atoms: C_2  and  C_3
REMARK    3  A    between atoms: C_6  and  C_7
REMARK    4  A    between atoms: C_7  and  N_8
REMARK    5  A    between atoms: N_8  and  C_9
REMARK    6  A    between atoms: CA_13  and  C_14
REMARK    7  A    between atoms: C_14  and  OXT_16
REMARK                            x       y       z     vdW  Elec       q    Type
REMARK                         _______ _______ _______ _____ _____    ______ ____
ROOT
ATOM      1  N   UNL     1      47.029   3.560  14.553  0.00  0.00    +0.000 N 
ATOM      2  H   UNL     1      46.708   2.594  14.489  0.00  0.00    +0.000 HD
ENDROOT
BRANCH   1   3
ATOM      3  C   UNL     1      46.414   4.400  13.610  0.00  0.00    +0.000 A 
ATOM      4  C   UNL     1      46.869   5.696  13.345  0.00  0.00    +0.000 A 
ATOM      5  C   UNL     1      46.256   6.458  12.357  0.00  0.00    +0.000 A 
ATOM      6  N   UNL     1      45.232   6.029  11.589  0.00  0.00    +0.000 NA
ATOM      7  CA  UNL     1      44.829   4.749  11.827  0.00  0.00    +0.000 A 
ATOM      8  C   UNL     1      45.391   3.909  12.792  0.00  0.00    +0.000 A 
BRANCH   7   9
ATOM      9  C   UNL     1      43.700   4.271  10.965  0.00  0.00    +0.000 C 
ATOM     10  O   UNL     1      43.068   3.249  11.182  0.00  0.00    +0.000 OA
BRANCH   9  11
ATOM     11  OXT UNL     1      43.450   5.109   9.936  0.00  0.00    +0.000 OA
ATOM     12  HXT UNL     1      42.487   5.119   9.745  0.00  0.00    +0.000 HD
ENDBRANCH   9  11
ENDBRANCH   7   9
ENDBRANCH   1   3
BRANCH   1  13
ATOM     13  C   UNL     1      47.091   4.016  15.944  0.00  0.00    +0.000 C 
BRANCH  13  17
ATOM     14  C   UNL     1      50.986   3.242  17.686  0.00  0.00    +0.000 A 
ATOM     15  C   UNL     1      50.503   4.554  17.582  0.00  0.00    +0.000 A 
ATOM     16  C   UNL     1      49.248   4.810  17.020  0.00  0.00    +0.000 A 
ATOM     17  C   UNL     1      48.450   3.758  16.551  0.00  0.00    +0.000 A 
ATOM     18  C   UNL     1      48.928   2.446  16.668  0.00  0.00    +0.000 A 
ATOM     19  C   UNL     1      50.181   2.191  17.233  0.00  0.00    +0.000 A 
BRANCH  14  20
ATOM     20  C   UNL     1      52.364   2.969  18.236  0.00  0.00    +0.000 C 
BRANCH  20  21
ATOM     21  N   UNL     1      52.613   1.540  18.386  0.00  0.00    +0.000 NA
ATOM     22  H   UNL     1      53.586   1.348  18.158  0.00  0.00    +0.000 HD
ATOM     23  H   UNL     1      52.051   1.036  17.703  0.00  0.00    +0.000 HD
ENDBRANCH  20  21
ENDBRANCH  14  20
ENDBRANCH  13  17
ENDBRANCH   1  13
TORSDOF 7
ENDMDL
MODEL 8
REMARK VINA RESULT:    -5.722      3.197      5.408
REMARK INTER + INTRA:          -8.225
REMARK INTER:                  -7.834
REMARK INTRA:                  -0.390
REMARK UNBOUND:                -0.496
REMARK  Name = 
REMARK  7 active torsions:
REMARK  status: ('A' for Active; 'I' for Inactive)
REMARK    1  A    between atoms: N_1  and  C_2
REMARK    2  A    between atoms: C_2  and  C_3
REMARK    3  A    between atoms: C_6  and  C_7
REMARK    4  A    between atoms: C_7  and  N_8
REMARK    5  A    between atoms: N_8  and  C_9
REMARK    6  A    between atoms: CA_13  and  C_14
REMARK    7  A    between atoms: C_14  and  OXT_16
REMARK                            x       y       z     vdW  Elec       q    Type
REMARK                         _______ _______ _______ _____ _____    ______ ____
ROOT
ATOM      1  N   UNL     1      46.608   4.476  15.377  0.00  0.00    +0.000 N 
ATOM      2  H   UNL     1      46.184   3.610  15.047  0.00  0.00    +0.000 HD
ENDROOT
BRANCH   1   3
ATOM      3  C   UNL     1      47.474   4.277  16.465  0.00  0.00    +0.000 A 
ATOM      4  C   UNL     1      47.253   4.853  17.721  0.00  0.00    +0.000 A 
ATOM      5  C   UNL     1      48.112   4.570  18.776  0.00  0.00    +0.000 A 
ATOM      6  N   UNL     1      49.171   3.738  18.693  0.00  0.00    +0.000 NA
ATOM      7  CA  UNL     1      49.349   3.148  17.477  0.00  0.00    +0.000 A 
ATOM      8  C   UNL     1      48.532   3.367  16.365  0.00  0.00    +0.000 A 
BRANCH   7   9
ATOM      9  C   UNL     1      50.519   2.215  17.391  0.00  0.00    +0.000 C 
ATOM     10  O   UNL     1      50.600   1.304  16.582  0.00  0.00    +0.000 OA
BRANCH   9  11
ATOM     11  OXT UNL     1      51.479   2.512  18.293  0.00  0.00    +0.000 OA
ATOM     12  HXT UNL     1      52.327   2.680  17.829  0.00  0.00    +0.000 HD
ENDBRANCH   9  11
ENDBRANCH   7   9
ENDBRANCH   1   3
BRANCH   1  13
ATOM     13  C   UNL     1      47.083   5.302  14.264  0.00  0.00    +0.000 C 
BRANCH  13  17
ATOM     14  C   UNL     1      44.933   4.450  10.595  0.00  0.00    +0.000 A 
ATOM     15  C   UNL     1      44.983   3.501  11.625  0.00  0.00    +0.000 A 
ATOM     16  C   UNL     1      45.675   3.769  12.810  0.00  0.00    +0.000 A 
ATOM     17  C   UNL     1      46.333   4.994  12.989  0.00  0.00    +0.000 A 
ATOM     18  C   UNL     1      46.271   5.947  11.964  0.00  0.00    +0.000 A 
ATOM     19  C   UNL     1      45.576   5.679  10.781  0.00  0.00    +0.000 A 
BRANCH  14  20
ATOM     20  C   UNL     1      44.239   4.139   9.292  0.00  0.00    +0.000 C 
BRANCH  20  21
ATOM     21  N   UNL     1      44.317   2.720   8.963  0.00  0.00    +0.000 NA
ATOM     22  H   UNL     1      44.888   2.249   9.660  0.00  0.00    +0.000 HD
ATOM     23  H   UNL     1      44.802   2.617   8.074  0.00  0.00    +0.000 HD
ENDBRANCH  20  21
ENDBRANCH  14  20
ENDBRANCH  13  17
ENDBRANCH   1  13
TORSDOF 7
ENDMDL
MODEL 9
REMARK VINA RESULT:    -5.424      3.821      6.589
REMARK INTER + INTRA:          -7.823
REMARK INTER:                  -7.181
REMARK INTRA:                  -0.642
REMARK UNBOUND:                -0.496
REMARK  Name = 
REMARK  7 active torsions:
REMARK  status: ('A' for Active; 'I' for Inactive)
REMARK    1  A    between atoms: N_1  and  C_2
REMARK    2  A    between atoms: C_2  and  C_3
REMARK    3  A    between atoms: C_6  and  C_7
REMARK    4  A    between atoms: C_7  and  N_8
REMARK    5  A    between atoms: N_8  and  C_9
REMARK    6  A    between atoms: CA_13  and  C_14
REMARK    7  A    between atoms: C_14  and  OXT_16
REMARK                            x       y       z     vdW  Elec       q    Type
REMARK                         _______ _______ _______ _____ _____    ______ ____
ROOT
ATOM      1  N   UNL     1      45.778   7.280  13.240  0.00  0.00    +0.000 N 
ATOM      2  H   UNL     1      44.830   7.579  13.468  0.00  0.00    +0.000 HD
ENDROOT
BRANCH   1   3
ATOM      3  C   UNL     1      45.892   5.886  13.112  0.00  0.00    +0.000 A 
ATOM      4  C   UNL     1      46.754   5.123  13.908  0.00  0.00    +0.000 A 
ATOM      5  C   UNL     1      46.778   3.740  13.778  0.00  0.00    +0.000 A 
ATOM      6  N   UNL     1      45.995   3.041  12.929  0.00  0.00    +0.000 NA
ATOM      7  CA  UNL     1      45.128   3.792  12.192  0.00  0.00    +0.000 A 
ATOM      8  C   UNL     1      45.030   5.184  12.263  0.00  0.00    +0.000 A 
BRANCH   7   9
ATOM      9  C   UNL     1      44.252   3.013  11.259  0.00  0.00    +0.000 C 
ATOM     10  O   UNL     1      43.041   2.920  11.386  0.00  0.00    +0.000 OA
BRANCH   9  11
ATOM     11  OXT UNL     1      44.951   2.446  10.252  0.00  0.00    +0.000 OA
ATOM     12  HXT UNL     1      44.987   1.473  10.382  0.00  0.00    +0.000 HD
ENDBRANCH   9  11
ENDBRANCH   7   9
ENDBRANCH   1   3
BRANCH   1  13
ATOM     13  C   UNL     1      46.368   8.116  12.191  0.00  0.00    +0.000 C 
BRANCH  13  17
ATOM     14  C   UNL     1      50.661   8.475  12.689  0.00  0.00    +0.000 A 
ATOM     15  C   UNL     1      50.129   7.827  11.566  0.00  0.00    +0.000 A 
ATOM     16  C   UNL     1      48.746   7.707  11.401  0.00  0.00    +0.000 A 
ATOM     17  C   UNL     1      47.866   8.234  12.356  0.00  0.00    +0.000 A 
ATOM     18  C   UNL     1      48.399   8.894  13.471  0.00  0.00    +0.000 A 
ATOM     19  C   UNL     1      49.782   9.017  13.634  0.00  0.00    +0.000 A 
BRANCH  14  20
ATOM     20  C   UNL     1      52.153   8.552  12.900  0.00  0.00    +0.000 C 
BRANCH  20  21
ATOM     21  N   UNL     1      52.559   7.895  14.138  0.00  0.00    +0.000 NA
ATOM     22  H   UNL     1      52.392   6.896  14.053  0.00  0.00    +0.000 HD
ATOM     23  H   UNL     1      51.962   8.225  14.893  0.00  0.00    +0.000 HD
ENDBRANCH  20  21
ENDBRANCH  14  20
ENDBRANCH  13  17
ENDBRANCH   1  13
TORSDOF 7
ENDMDL
