MODEL 1
REMARK VINA RESULT:    -7.964      0.000      0.000
REMARK INTER + INTRA:         -11.610
REMARK INTER:                 -10.757
REMARK INTRA:                  -0.853
REMARK UNBOUND:                -0.853
REMARK  Name = 
REMARK  6 active torsions:
REMARK  status: ('A' for Active; 'I' for Inactive)
REMARK    1  A    between atoms: C_2  and  C_3
REMARK    2  A    between atoms: N_7  and  C_8
REMARK    3  A    between atoms: C_8  and  C_9
REMARK    4  A    between atoms: C_9  and  C_10
REMARK    5  A    between atoms: C_14  and  O_15
REMARK    6  A    between atoms: O_15  and  C_16
REMARK                            x       y       z     vdW  Elec       q    Type
REMARK                         _______ _______ _______ _____ _____    ______ ____
ROOT
ATOM      1  C   UNL     1      43.826   4.893  12.336  0.00  0.00    +0.000 C 
ENDROOT
BRANCH   1   2
ATOM      2  C   UNL     1      45.263   5.341  12.480  0.00  0.00    +0.000 A 
ATOM      3  C   UNL     1      45.811   6.268  11.586  0.00  0.00    +0.000 A 
ATOM      4  C   UNL     1      47.096   6.772  11.794  0.00  0.00    +0.000 A 
ATOM      5  C   UNL     1      47.848   6.360  12.897  0.00  0.00    +0.000 A 
ATOM      6  C   UNL     1      47.314   5.434  13.790  0.00  0.00    +0.000 A 
ATOM      7  C   UNL     1      46.028   4.928  13.580  0.00  0.00    +0.000 A 
BRANCH   6   8
ATOM      8  O   UNL     1      47.931   4.992  14.934  0.00  0.00    +0.000 OA
BRANCH   8   9
ATOM      9  C   UNL     1      47.181   4.196  15.877  0.00  0.00    +0.000 C 
ATOM     10  C   UNL     1      47.170   4.652  17.353  0.00  0.00    +0.000 C 
ATOM     11  N   UNL     1      47.417   3.257  17.776  0.00  0.00    +0.000 NA
ATOM     12  C   UNL     1      47.930   2.959  16.423  0.00  0.00    +0.000 C 
ATOM     13  H   UNL     1      46.569   2.742  18.012  0.00  0.00    +0.000 HD
ENDBRANCH   8   9
ENDBRANCH   6   8
ENDBRANCH   1   2
BRANCH   1  14
ATOM     14  C   UNL     1      43.544   4.578  10.867  0.00  0.00    +0.000 C 
BRANCH  14  19
ATOM     15  C   UNL     1      46.657   2.481   7.404  0.00  0.00    +0.000 A 
ATOM     16  C   UNL     1      46.353   3.804   7.688  0.00  0.00    +0.000 A 
ATOM     17  C   UNL     1      45.460   4.087   8.720  0.00  0.00    +0.000 A 
ATOM     18  C   UNL     1      44.877   3.049   9.445  0.00  0.00    +0.000 A 
ATOM     19  N   UNL     1      43.997   3.259  10.478  0.00  0.00    +0.000 N 
ATOM     20  N   UNL     1      45.163   1.761   9.171  0.00  0.00    +0.000 NA
ATOM     21  C   UNL     1      46.044   1.503   8.170  0.00  0.00    +0.000 A 
ATOM     22  H   UNL     1      43.591   2.418  10.868  0.00  0.00    +0.000 HD
BRANCH  15  24
ATOM     23  N   UNL     1      48.306   1.845   5.512  0.00  0.00    +0.000 NA
ATOM     24  C   UNL     1      47.568   2.136   6.361  0.00  0.00    +0.000 C 
ENDBRANCH  15  24
ENDBRANCH  14  19
ENDBRANCH   1  14
TORSDOF 6
ENDMDL
MODEL 2
REMARK VINA RESULT:    -6.898      2.510      7.978
REMARK INTER + INTRA:         -10.171
REMARK INTER:                 -10.064
REMARK INTRA:                  -0.106
REMARK UNBOUND:                -0.853
REMARK  Name = 
REMARK  6 active torsions:
REMARK  status: ('A' for Active; 'I' for Inactive)
REMARK    1  A    between atoms: C_2  and  C_3
REMARK    2  A    between atoms: N_7  and  C_8
REMARK    3  A    between atoms: C_8  and  C_9
REMARK    4  A    between atoms: C_9  and  C_10
REMARK    5  A    between atoms: C_14  and  O_15
REMARK    6  A    between atoms: O_15  and  C_16
REMARK                            x       y       z     vdW  Elec       q    Type
REMARK                         _______ _______ _______ _____ _____    ______ ____
ROOT
ATOM      1  C   UNL     1      45.426   6.226  10.925  0.00  0.00    +0.000 C 
ENDROOT
BRANCH   1   2
ATOM      2  C   UNL     1      45.164   4.866  10.317  0.00  0.00    +0.000 A 
ATOM      3  C   UNL     1      44.410   3.912  11.010  0.00  0.00    +0.000 A 
ATOM      4  C   UNL     1      44.067   2.706  10.397  0.00  0.00    +0.000 A 
ATOM      5  C   UNL     1      44.469   2.438   9.086  0.00  0.00    +0.000 A 
ATOM      6  C   UNL     1      45.225   3.378   8.390  0.00  0.00    +0.000 A 
ATOM      7  C   UNL     1      45.570   4.585   9.005  0.00  0.00    +0.000 A 
BRANCH   6   8
ATOM      8  O   UNL     1      45.635   3.255   7.086  0.00  0.00    +0.000 OA
BRANCH   8   9
ATOM      9  C   UNL     1      47.042   3.102   6.801  0.00  0.00    +0.000 C 
ATOM     10  C   UNL     1      47.449   2.739   5.355  0.00  0.00    +0.000 C 
ATOM     11  N   UNL     1      48.386   1.725   5.883  0.00  0.00    +0.000 NA
ATOM     12  C   UNL     1      47.630   1.716   7.152  0.00  0.00    +0.000 C 
ATOM     13  H   UNL     1      49.343   2.062   5.982  0.00  0.00    +0.000 HD
ENDBRANCH   8   9
ENDBRANCH   6   8
ENDBRANCH   1   2
BRANCH   1  14
ATOM     14  C   UNL     1      46.592   6.120  11.907  0.00  0.00    +0.000 C 
BRANCH  14  19
ATOM     15  C   UNL     1      48.283   5.057  16.608  0.00  0.00    +0.000 A 
ATOM     16  C   UNL     1      48.571   6.099  15.739  0.00  0.00    +0.000 A 
ATOM     17  C   UNL     1      47.936   6.141  14.499  0.00  0.00    +0.000 A 
ATOM     18  C   UNL     1      47.033   5.142  14.140  0.00  0.00    +0.000 A 
ATOM     19  N   UNL     1      46.368   5.129  12.939  0.00  0.00    +0.000 N 
ATOM     20  N   UNL     1      46.753   4.124  14.977  0.00  0.00    +0.000 NA
ATOM     21  C   UNL     1      47.371   4.103  16.186  0.00  0.00    +0.000 A 
ATOM     22  H   UNL     1      45.800   4.307  12.777  0.00  0.00    +0.000 HD
BRANCH  15  24
ATOM     23  N   UNL     1      49.412   4.902  18.932  0.00  0.00    +0.000 NA
ATOM     24  C   UNL     1      48.902   4.967  17.890  0.00  0.00    +0.000 C 
ENDBRANCH  15  24
ENDBRANCH  14  19
ENDBRANCH   1  14
TORSDOF 6
ENDMDL
MODEL 3
REMARK VINA RESULT:    -6.870      2.344      3.238
REMARK INTER + INTRA:         -10.133
REMARK INTER:                  -9.543
REMARK INTRA:                  -0.590
REMARK UNBOUND:                -0.853
REMARK  Name = 
REMARK  6 active torsions:
REMARK  status: ('A' for Active; 'I' for Inactive)
REMARK    1  A    between atoms: C_2  and  C_3
REMARK    2  A    between atoms: N_7  and  C_8
REMARK    3  A    between atoms: C_8  and  C_9
REMARK    4  A    between atoms: C_9  and  C_10
REMARK    5  A    between atoms: C_14  and  O_15
REMARK    6  A    between atoms: O_15  and  C_16
REMARK                            x       y       z     vdW  Elec       q    Type
REMARK                         _______ _______ _______ _____ _____    ______ ____
ROOT
ATOM      1  C   UNL     1      43.235   5.407  12.103  0.00  0.00    +0.000 C 
ENDROOT
BRANCH   1   2
ATOM      2  C   UNL     1      44.630   5.537  12.669  0.00  0.00    +0.000 A 
ATOM      3  C   UNL     1      45.266   4.434  13.252  0.00  0.00    +0.000 A 
ATOM      4  C   UNL     1      46.597   4.525  13.663  0.00  0.00    +0.000 A 
ATOM      5  C   UNL     1      47.311   5.714  13.495  0.00  0.00    +0.000 A 
ATOM      6  C   UNL     1      46.686   6.819  12.921  0.00  0.00    +0.000 A 
ATOM      7  C   UNL     1      45.352   6.729  12.512  0.00  0.00    +0.000 A 
BRANCH   6   8
ATOM      8  O   UNL     1      47.292   8.022  12.657  0.00  0.00    +0.000 OA
BRANCH   8   9
ATOM      9  C   UNL     1      48.522   8.355  13.335  0.00  0.00    +0.000 C 
ATOM     10  C   UNL     1      48.775   9.840  13.679  0.00  0.00    +0.000 C 
ATOM     11  N   UNL     1      50.161   9.711  13.179  0.00  0.00    +0.000 NA
ATOM     12  C   UNL     1      49.750   8.518  12.410  0.00  0.00    +0.000 C 
ATOM     13  H   UNL     1      50.843   9.508  13.909  0.00  0.00    +0.000 HD
ENDBRANCH   8   9
ENDBRANCH   6   8
ENDBRANCH   1   2
BRANCH   1  14
ATOM     14  C   UNL     1      43.327   5.049  10.620  0.00  0.00    +0.000 C 
BRANCH  14  19
ATOM     15  C   UNL     1      46.564   2.519   7.586  0.00  0.00    +0.000 A 
ATOM     16  C   UNL     1      46.288   3.872   7.714  0.00  0.00    +0.000 A 
ATOM     17  C   UNL     1      45.347   4.285   8.655  0.00  0.00    +0.000 A 
ATOM     18  C   UNL     1      44.689   3.345   9.446  0.00  0.00    +0.000 A 
ATOM     19  N   UNL     1      43.758   3.685  10.396  0.00  0.00    +0.000 N 
ATOM     20  N   UNL     1      44.948   2.028   9.324  0.00  0.00    +0.000 NA
ATOM     21  C   UNL     1      45.876   1.643   8.410  0.00  0.00    +0.000 A 
ATOM     22  H   UNL     1      43.303   2.900  10.846  0.00  0.00    +0.000 HD
BRANCH  15  24
ATOM     23  N   UNL     1      48.307   1.663   5.874  0.00  0.00    +0.000 NA
ATOM     24  C   UNL     1      47.522   2.042   6.642  0.00  0.00    +0.000 C 
ENDBRANCH  15  24
ENDBRANCH  14  19
ENDBRANCH   1  14
TORSDOF 6
ENDMDL
MODEL 4
REMARK VINA RESULT:    -6.798      1.655      2.074
REMARK INTER + INTRA:         -10.036
REMARK INTER:                 -10.058
REMARK INTRA:                   0.022
REMARK UNBOUND:                -0.853
REMARK  Name = 
REMARK  6 active torsions:
REMARK  status: ('A' for Active; 'I' for Inactive)
REMARK    1  A    between atoms: C_2  and  C_3
REMARK    2  A    between atoms: N_7  and  C_8
REMARK    3  A    between atoms: C_8  and  C_9
REMARK    4  A    between atoms: C_9  and  C_10
REMARK    5  A    between atoms: C_14  and  O_15
REMARK    6  A    between atoms: O_15  and  C_16
REMARK                            x       y       z     vdW  Elec       q    Type
REMARK                         _______ _______ _______ _____ _____    ______ ____
ROOT
ATOM      1  C   UNL     1      43.669   4.448  12.610  0.00  0.00    +0.000 C 
ENDROOT
BRANCH   1   2
ATOM      2  C   UNL     1      44.767   5.479  12.481  0.00  0.00    +0.000 A 
ATOM      3  C   UNL     1      44.520   6.707  11.856  0.00  0.00    +0.000 A 
ATOM      4  C   UNL     1      45.499   7.702  11.847  0.00  0.00    +0.000 A 
ATOM      5  C   UNL     1      46.734   7.487  12.464  0.00  0.00    +0.000 A 
ATOM      6  C   UNL     1      46.992   6.267  13.084  0.00  0.00    +0.000 A 
ATOM      7  C   UNL     1      46.013   5.269  13.090  0.00  0.00    +0.000 A 
BRANCH   6   8
ATOM      8  O   UNL     1      48.142   5.953  13.765  0.00  0.00    +0.000 OA
BRANCH   8   9
ATOM      9  C   UNL     1      48.495   6.713  14.940  0.00  0.00    +0.000 C 
ATOM     10  C   UNL     1      49.986   7.055  15.156  0.00  0.00    +0.000 C 
ATOM     11  N   UNL     1      49.863   6.659  16.575  0.00  0.00    +0.000 NA
ATOM     12  C   UNL     1      48.657   5.877  16.230  0.00  0.00    +0.000 C 
ATOM     13  H   UNL     1      49.676   7.438  17.205  0.00  0.00    +0.000 HD
ENDBRANCH   8   9
ENDBRANCH   6   8
ENDBRANCH   1   2
BRANCH   1  14
ATOM     14  C   UNL     1      43.387   3.841  11.236  0.00  0.00    +0.000 C 
BRANCH  14  19
ATOM     15  C   UNL     1      46.641   2.622   7.493  0.00  0.00    +0.000 A 
ATOM     16  C   UNL     1      45.984   1.842   8.433  0.00  0.00    +0.000 A 
ATOM     17  C   UNL     1      45.126   2.457   9.343  0.00  0.00    +0.000 A 
ATOM     18  C   UNL     1      44.944   3.839   9.309  0.00  0.00    +0.000 A 
ATOM     19  N   UNL     1      44.108   4.505  10.171  0.00  0.00    +0.000 N 
ATOM     20  N   UNL     1      45.584   4.603   8.403  0.00  0.00    +0.000 NA
ATOM     21  C   UNL     1      46.407   3.988   7.516  0.00  0.00    +0.000 A 
ATOM     22  H   UNL     1      44.128   5.514  10.086  0.00  0.00    +0.000 HD
BRANCH  15  24
ATOM     23  N   UNL     1      48.241   1.572   5.750  0.00  0.00    +0.000 NA
ATOM     24  C   UNL     1      47.527   2.043   6.536  0.00  0.00    +0.000 C 
ENDBRANCH  15  24
ENDBRANCH  14  19
ENDBRANCH   1  14
TORSDOF 6
ENDMDL
MODEL 5
REMARK VINA RESULT:    -6.714      2.896      4.519
REMARK INTER + INTRA:          -9.922
REMARK INTER:                  -9.641
REMARK INTRA:                  -0.281
REMARK UNBOUND:                -0.853
REMARK  Name = 
REMARK  6 active torsions:
REMARK  status: ('A' for Active; 'I' for Inactive)
REMARK    1  A    between atoms: C_2  and  C_3
REMARK    2  A    between atoms: N_7  and  C_8
REMARK    3  A    between atoms: C_8  and  C_9
REMARK    4  A    between atoms: C_9  and  C_10
REMARK    5  A    between atoms: C_14  and  O_15
REMARK    6  A    between atoms: O_15  and  C_16
REMARK                            x       y       z     vdW  Elec       q    Type
REMARK                         _______ _______ _______ _____ _____    ______ ____
ROOT
ATOM      1  C   UNL     1      43.935   4.457  12.551  0.00  0.00    +0.000 C 
ENDROOT
BRANCH   1   2
ATOM      2  C   UNL     1      45.003   5.519  12.681  0.00  0.00    +0.000 A 
ATOM      3  C   UNL     1      46.359   5.174  12.622  0.00  0.00    +0.000 A 
ATOM      4  C   UNL     1      47.339   6.169  12.620  0.00  0.00    +0.000 A 
ATOM      5  C   UNL     1      46.979   7.517  12.674  0.00  0.00    +0.000 A 
ATOM      6  C   UNL     1      45.633   7.871  12.739  0.00  0.00    +0.000 A 
ATOM      7  C   UNL     1      44.652   6.875  12.744  0.00  0.00    +0.000 A 
BRANCH   6   8
ATOM      8  O   UNL     1      45.153   9.157  12.745  0.00  0.00    +0.000 OA
BRANCH   8   9
ATOM      9  C   UNL     1      45.004   9.860  11.493  0.00  0.00    +0.000 C 
ATOM     10  C   UNL     1      44.582  11.345  11.548  0.00  0.00    +0.000 C 
ATOM     11  N   UNL     1      43.602  11.098  10.468  0.00  0.00    +0.000 NA
ATOM     12  C   UNL     1      43.641   9.656  10.792  0.00  0.00    +0.000 C 
ATOM     13  H   UNL     1      43.954  11.315   9.536  0.00  0.00    +0.000 HD
ENDBRANCH   8   9
ENDBRANCH   6   8
ENDBRANCH   1   2
BRANCH   1  14
ATOM     14  C   UNL     1      43.216   4.631  11.213  0.00  0.00    +0.000 C 
BRANCH  14  19
ATOM     15  C   UNL     1      46.448   2.738   7.741  0.00  0.00    +0.000 A 
ATOM     16  C   UNL     1      45.627   2.117   8.671  0.00  0.00    +0.000 A 
ATOM     17  C   UNL     1      44.825   2.902   9.497  0.00  0.00    +0.000 A 
ATOM     18  C   UNL     1      44.859   4.291   9.390  0.00  0.00    +0.000 A 
ATOM     19  N   UNL     1      44.089   5.121  10.167  0.00  0.00    +0.000 N 
ATOM     20  N   UNL     1      45.658   4.901   8.493  0.00  0.00    +0.000 NA
ATOM     21  C   UNL     1      46.425   4.122   7.688  0.00  0.00    +0.000 A 
ATOM     22  H   UNL     1      44.268   6.110  10.039  0.00  0.00    +0.000 HD
BRANCH  15  24
ATOM     23  N   UNL     1      47.962   1.357   6.160  0.00  0.00    +0.000 NA
ATOM     24  C   UNL     1      47.286   1.981   6.868  0.00  0.00    +0.000 C 
ENDBRANCH  15  24
ENDBRANCH  14  19
ENDBRANCH   1  14
TORSDOF 6
ENDMDL
MODEL 6
REMARK VINA RESULT:    -6.366      3.851      7.681
REMARK INTER + INTRA:          -9.452
REMARK INTER:                  -8.984
REMARK INTRA:                  -0.467
REMARK UNBOUND:                -0.853
REMARK  Name = 
REMARK  6 active torsions:
REMARK  status: ('A' for Active; 'I' for Inactive)
REMARK    1  A    between atoms: C_2  and  C_3
REMARK    2  A    between atoms: N_7  and  C_8
REMARK    3  A    between atoms: C_8  and  C_9
REMARK    4  A    between atoms: C_9  and  C_10
REMARK    5  A    between atoms: C_14  and  O_15
REMARK    6  A    between atoms: O_15  and  C_16
REMARK                            x       y       z     vdW  Elec       q    Type
REMARK                         _______ _______ _______ _____ _____    ______ ____
ROOT
ATOM      1  C   UNL     1      44.925   6.193  10.971  0.00  0.00    +0.000 C 
ENDROOT
BRANCH   1   2
ATOM      2  C   UNL     1      44.886   4.808  10.365  0.00  0.00    +0.000 A 
ATOM      3  C   UNL     1      44.282   3.749  11.053  0.00  0.00    +0.000 A 
ATOM      4  C   UNL     1      44.139   2.502  10.440  0.00  0.00    +0.000 A 
ATOM      5  C   UNL     1      44.592   2.299   9.134  0.00  0.00    +0.000 A 
ATOM      6  C   UNL     1      45.199   3.345   8.443  0.00  0.00    +0.000 A 
ATOM      7  C   UNL     1      45.345   4.592   9.057  0.00  0.00    +0.000 A 
BRANCH   6   8
ATOM      8  O   UNL     1      45.638   3.286   7.143  0.00  0.00    +0.000 OA
BRANCH   8   9
ATOM      9  C   UNL     1      47.042   3.079   6.882  0.00  0.00    +0.000 C 
ATOM     10  C   UNL     1      47.474   2.835   5.419  0.00  0.00    +0.000 C 
ATOM     11  N   UNL     1      48.336   1.721   5.868  0.00  0.00    +0.000 NA
ATOM     12  C   UNL     1      47.540   1.634   7.111  0.00  0.00    +0.000 C 
ATOM     13  H   UNL     1      49.307   1.990   6.026  0.00  0.00    +0.000 HD
ENDBRANCH   8   9
ENDBRANCH   6   8
ENDBRANCH   1   2
BRANCH   1  14
ATOM     14  C   UNL     1      45.569   6.116  12.355  0.00  0.00    +0.000 C 
BRANCH  14  19
ATOM     15  C   UNL     1      49.630   9.204  12.121  0.00  0.00    +0.000 A 
ATOM     16  C   UNL     1      49.371   7.976  11.530  0.00  0.00    +0.000 A 
ATOM     17  C   UNL     1      48.145   7.357  11.766  0.00  0.00    +0.000 A 
ATOM     18  C   UNL     1      47.201   7.964  12.593  0.00  0.00    +0.000 A 
ATOM     19  N   UNL     1      45.973   7.412  12.859  0.00  0.00    +0.000 N 
ATOM     20  N   UNL     1      47.449   9.154  13.175  0.00  0.00    +0.000 NA
ATOM     21  C   UNL     1      48.644   9.749  12.927  0.00  0.00    +0.000 A 
ATOM     22  H   UNL     1      45.416   7.921  13.535  0.00  0.00    +0.000 HD
BRANCH  15  24
ATOM     23  N   UNL     1      51.870  10.445  11.742  0.00  0.00    +0.000 NA
ATOM     24  C   UNL     1      50.868   9.883  11.910  0.00  0.00    +0.000 C 
ENDBRANCH  15  24
ENDBRANCH  14  19
ENDBRANCH   1  14
TORSDOF 6
ENDMDL
MODEL 7
REMARK VINA RESULT:    -6.245      3.412      8.006
REMARK INTER + INTRA:          -9.288
REMARK INTER:                  -8.824
REMARK INTRA:                  -0.465
REMARK UNBOUND:                -0.853
REMARK  Name = 
REMARK  6 active torsions:
REMARK  status: ('A' for Active; 'I' for Inactive)
REMARK    1  A    between atoms: C_2  and  C_3
REMARK    2  A    between atoms: N_7  and  C_8
REMARK    3  A    between atoms: C_8  and  C_9
REMARK    4  A    between atoms: C_9  and  C_10
REMARK    5  A    between atoms: C_14  and  O_15
REMARK    6  A    between atoms: O_15  and  C_16
REMARK                            x       y       z     vdW  Elec       q    Type
REMARK                         _______ _______ _______ _____ _____    ______ ____
ROOT
ATOM      1  C   UNL     1      44.881   6.309  11.192  0.00  0.00    +0.000 C 
ENDROOT
BRANCH   1   2
ATOM      2  C   UNL     1      44.926   5.005  10.428  0.00  0.00    +0.000 A 
ATOM      3  C   UNL     1      44.246   3.879  10.905  0.00  0.00    +0.000 A 
ATOM      4  C   UNL     1      44.189   2.714  10.137  0.00  0.00    +0.000 A 
ATOM      5  C   UNL     1      44.805   2.660   8.885  0.00  0.00    +0.000 A 
ATOM      6  C   UNL     1      45.489   3.774   8.403  0.00  0.00    +0.000 A 
ATOM      7  C   UNL     1      45.549   4.939   9.173  0.00  0.00    +0.000 A 
BRANCH   6   8
ATOM      8  O   UNL     1      46.089   3.862   7.172  0.00  0.00    +0.000 OA
BRANCH   8   9
ATOM      9  C   UNL     1      46.568   2.659   6.534  0.00  0.00    +0.000 C 
ATOM     10  C   UNL     1      47.947   2.114   6.968  0.00  0.00    +0.000 C 
ATOM     11  N   UNL     1      48.304   1.909   5.548  0.00  0.00    +0.000 NA
ATOM     12  C   UNL     1      47.255   2.878   5.166  0.00  0.00    +0.000 C 
ATOM     13  H   UNL     1      48.125   0.963   5.211  0.00  0.00    +0.000 HD
ENDBRANCH   8   9
ENDBRANCH   6   8
ENDBRANCH   1   2
BRANCH   1  14
ATOM     14  C   UNL     1      45.938   6.281  12.295  0.00  0.00    +0.000 C 
BRANCH  14  19
ATOM     15  C   UNL     1      50.362   7.691  14.422  0.00  0.00    +0.000 A 
ATOM     16  C   UNL     1      49.243   7.067  14.952  0.00  0.00    +0.000 A 
ATOM     17  C   UNL     1      48.165   6.786  14.115  0.00  0.00    +0.000 A 
ATOM     18  C   UNL     1      48.213   7.139  12.768  0.00  0.00    +0.000 A 
ATOM     19  N   UNL     1      47.190   6.884  11.889  0.00  0.00    +0.000 N 
ATOM     20  N   UNL     1      49.295   7.751  12.247  0.00  0.00    +0.000 NA
ATOM     21  C   UNL     1      50.342   8.008  13.073  0.00  0.00    +0.000 A 
ATOM     22  H   UNL     1      47.325   7.261  10.959  0.00  0.00    +0.000 HD
BRANCH  15  24
ATOM     23  N   UNL     1      52.420   8.255  15.887  0.00  0.00    +0.000 NA
ATOM     24  C   UNL     1      51.495   7.998  15.234  0.00  0.00    +0.000 C 
ENDBRANCH  15  24
ENDBRANCH  14  19
ENDBRANCH   1  14
TORSDOF 6
ENDMDL
MODEL 8
REMARK VINA RESULT:    -6.177      2.191      8.298
REMARK INTER + INTRA:          -9.197
REMARK INTER:                  -8.713
REMARK INTRA:                  -0.484
REMARK UNBOUND:                -0.853
REMARK  Name = 
REMARK  6 active torsions:
REMARK  status: ('A' for Active; 'I' for Inactive)
REMARK    1  A    between atoms: C_2  and  C_3
REMARK    2  A    between atoms: N_7  and  C_8
REMARK    3  A    between atoms: C_8  and  C_9
REMARK    4  A    between atoms: C_9  and  C_10
REMARK    5  A    between atoms: C_14  and  O_15
REMARK    6  A    between atoms: O_15  and  C_16
REMARK                            x       y       z     vdW  Elec       q    Type
REMARK                         _______ _______ _______ _____ _____    ______ ____
ROOT
ATOM      1  C   UNL     1      46.035   5.950  13.264  0.00  0.00    +0.000 C 
ENDROOT
BRANCH   1   2
ATOM      2  C   UNL     1      45.225   5.327  12.150  0.00  0.00    +0.000 A 
ATOM      3  C   UNL     1      43.889   4.965  12.360  0.00  0.00    +0.000 A 
ATOM      4  C   UNL     1      43.109   4.504  11.297  0.00  0.00    +0.000 A 
ATOM      5  C   UNL     1      43.651   4.402  10.013  0.00  0.00    +0.000 A 
ATOM      6  C   UNL     1      44.981   4.755   9.795  0.00  0.00    +0.000 A 
ATOM      7  C   UNL     1      45.762   5.213  10.859  0.00  0.00    +0.000 A 
BRANCH   6   8
ATOM      8  O   UNL     1      45.611   4.747   8.575  0.00  0.00    +0.000 OA
BRANCH   8   9
ATOM      9  C   UNL     1      45.549   3.559   7.758  0.00  0.00    +0.000 C 
ATOM     10  C   UNL     1      45.986   2.222   8.397  0.00  0.00    +0.000 C 
ATOM     11  N   UNL     1      46.765   1.905   7.181  0.00  0.00    +0.000 NA
ATOM     12  C   UNL     1      46.770   3.341   6.835  0.00  0.00    +0.000 C 
ATOM     13  H   UNL     1      46.261   1.327   6.510  0.00  0.00    +0.000 HD
ENDBRANCH   8   9
ENDBRANCH   6   8
ENDBRANCH   1   2
BRANCH   1  14
ATOM     14  C   UNL     1      47.215   5.036  13.598  0.00  0.00    +0.000 C 
BRANCH  14  19
ATOM     15  C   UNL     1      48.297   4.464  18.556  0.00  0.00    +0.000 A 
ATOM     16  C   UNL     1      48.628   5.461  17.650  0.00  0.00    +0.000 A 
ATOM     17  C   UNL     1      48.173   5.359  16.336  0.00  0.00    +0.000 A 
ATOM     18  C   UNL     1      47.406   4.264  15.943  0.00  0.00    +0.000 A 
ATOM     19  N   UNL     1      46.920   4.108  14.669  0.00  0.00    +0.000 N 
ATOM     20  N   UNL     1      47.086   3.289  16.817  0.00  0.00    +0.000 NA
ATOM     21  C   UNL     1      47.527   3.408  18.096  0.00  0.00    +0.000 A 
ATOM     22  H   UNL     1      46.443   3.231  14.500  0.00  0.00    +0.000 HD
BRANCH  15  24
ATOM     23  N   UNL     1      49.078   4.566  21.021  0.00  0.00    +0.000 NA
ATOM     24  C   UNL     1      48.734   4.520  19.913  0.00  0.00    +0.000 C 
ENDBRANCH  15  24
ENDBRANCH  14  19
ENDBRANCH   1  14
TORSDOF 6
ENDMDL
MODEL 9
REMARK VINA RESULT:    -5.950      2.378      7.336
REMARK INTER + INTRA:          -8.891
REMARK INTER:                  -8.157
REMARK INTRA:                  -0.733
REMARK UNBOUND:                -0.853
REMARK  Name = 
REMARK  6 active torsions:
REMARK  status: ('A' for Active; 'I' for Inactive)
REMARK    1  A    between atoms: C_2  and  C_3
REMARK    2  A    between atoms: N_7  and  C_8
REMARK    3  A    between atoms: C_8  and  C_9
REMARK    4  A    between atoms: C_9  and  C_10
REMARK    5  A    between atoms: C_14  and  O_15
REMARK    6  A    between atoms: O_15  and  C_16
REMARK                            x       y       z     vdW  Elec       q    Type
REMARK                         _______ _______ _______ _____ _____    ______ ____
ROOT
ATOM      1  C   UNL     1      46.087   7.565  11.818  0.00  0.00    +0.000 C 
ENDROOT
BRANCH   1   2
ATOM      2  C   UNL     1      45.090   6.444  11.626  0.00  0.00    +0.000 A 
ATOM      3  C   UNL     1      44.040   6.263  12.534  0.00  0.00    +0.000 A 
ATOM      4  C   UNL     1      43.054   5.306  12.288  0.00  0.00    +0.000 A 
ATOM      5  C   UNL     1      43.101   4.521  11.133  0.00  0.00    +0.000 A 
ATOM      6  C   UNL     1      44.144   4.689  10.226  0.00  0.00    +0.000 A 
ATOM      7  C   UNL     1      45.133   5.645  10.474  0.00  0.00    +0.000 A 
BRANCH   6   8
ATOM      8  O   UNL     1      44.273   4.017   9.036  0.00  0.00    +0.000 OA
BRANCH   8   9
ATOM      9  C   UNL     1      45.573   3.529   8.640  0.00  0.00    +0.000 C 
ATOM     10  C   UNL     1      45.870   3.421   7.127  0.00  0.00    +0.000 C 
ATOM     11  N   UNL     1      46.451   2.079   7.346  0.00  0.00    +0.000 NA
ATOM     12  C   UNL     1      45.710   1.989   8.622  0.00  0.00    +0.000 C 
ATOM     13  H   UNL     1      47.463   2.084   7.463  0.00  0.00    +0.000 HD
ENDBRANCH   8   9
ENDBRANCH   6   8
ENDBRANCH   1   2
BRANCH   1  14
ATOM     14  C   UNL     1      47.501   6.986  11.803  0.00  0.00    +0.000 C 
BRANCH  14  19
ATOM     15  C   UNL     1      47.612   4.221  16.096  0.00  0.00    +0.000 A 
ATOM     16  C   UNL     1      46.967   4.018  14.885  0.00  0.00    +0.000 A 
ATOM     17  C   UNL     1      47.132   4.952  13.865  0.00  0.00    +0.000 A 
ATOM     18  C   UNL     1      47.929   6.078  14.068  0.00  0.00    +0.000 A 
ATOM     19  N   UNL     1      48.140   7.030  13.102  0.00  0.00    +0.000 N 
ATOM     20  N   UNL     1      48.554   6.285  15.243  0.00  0.00    +0.000 NA
ATOM     21  C   UNL     1      48.392   5.360  16.224  0.00  0.00    +0.000 A 
ATOM     22  H   UNL     1      48.677   7.833  13.407  0.00  0.00    +0.000 HD
BRANCH  15  24
ATOM     23  N   UNL     1      47.371   2.548  18.056  0.00  0.00    +0.000 NA
ATOM     24  C   UNL     1      47.480   3.294  17.173  0.00  0.00    +0.000 C 
ENDBRANCH  15  24
ENDBRANCH  14  19
ENDBRANCH   1  14
TORSDOF 6
ENDMDL
