MODEL 1
REMARK VINA RESULT:    -8.170      0.000      0.000
REMARK INTER + INTRA:         -12.198
REMARK INTER:                 -11.035
REMARK INTRA:                  -1.163
REMARK UNBOUND:                -1.163
REMARK  Name = 
REMARK  7 active torsions:
REMARK  status: ('A' for Active; 'I' for Inactive)
REMARK    1  A    between atoms: C_1  and  C_2
REMARK    2  A    between atoms: C_2  and  C_3
REMARK    3  A    between atoms: C_7  and  C_8
REMARK    4  A    between atoms: C_8  and  C_9
REMARK    5  A    between atoms: C_9  and  N_10
REMARK    6  A    between atoms: N_10  and  C_11
REMARK    7  A    between atoms: C_14  and  C_15
REMARK                            x       y       z     vdW  Elec       q    Type
REMARK                         _______ _______ _______ _____ _____    ______ ____
ROOT
ATOM      1  C   UNL     1      43.100   4.674  11.063  0.00  0.00    +0.000 C 
ENDROOT
BRANCH   1   2
ATOM      2  N   UNL     1      43.848   5.066   9.862  0.00  0.00    +0.000 N 
ATOM      3  H   UNL     1      44.352   5.941   9.989  0.00  0.00    +0.000 HD
BRANCH   2   4
ATOM      4  C   UNL     1      44.673   4.081   9.282  0.00  0.00    +0.000 A 
ATOM      5  C   UNL     1      44.522   2.715   9.540  0.00  0.00    +0.000 A 
ATOM      6  C   UNL     1      45.323   1.758   8.909  0.00  0.00    +0.000 A 
ATOM      7  C   UNL     1      46.271   2.148   7.963  0.00  0.00    +0.000 A 
ATOM      8  C   UNL     1      46.408   3.502   7.656  0.00  0.00    +0.000 A 
ATOM      9  C   UNL     1      45.601   4.455   8.299  0.00  0.00    +0.000 A 
BRANCH   7  10
ATOM     10  C   UNL     1      47.095   1.084   7.332  0.00  0.00    +0.000 C 
ATOM     11  N   UNL     1      46.827  -0.213   7.673  0.00  0.00    +0.000 N 
ATOM     12  O   UNL     1      48.011   1.348   6.563  0.00  0.00    +0.000 OA
ATOM     13  H   UNL     1      46.267  -0.455   8.478  0.00  0.00    +0.000 HD
ATOM     14  H   UNL     1      47.485  -0.901   7.331  0.00  0.00    +0.000 HD
ENDBRANCH   7  10
ENDBRANCH   2   4
ENDBRANCH   1   2
BRANCH   1  15
ATOM     15  C   UNL     1      43.500   5.514  12.284  0.00  0.00    +0.000 C 
BRANCH  15  20
ATOM     16  C   UNL     1      47.136   6.005  13.393  0.00  0.00    +0.000 A 
ATOM     17  C   UNL     1      47.483   4.667  13.668  0.00  0.00    +0.000 A 
ATOM     18  C   UNL     1      46.579   3.620  13.466  0.00  0.00    +0.000 A 
ATOM     19  C   UNL     1      45.299   3.886  12.993  0.00  0.00    +0.000 A 
ATOM     20  C   UNL     1      44.923   5.196  12.691  0.00  0.00    +0.000 A 
ATOM     21  C   UNL     1      45.851   6.240  12.875  0.00  0.00    +0.000 A 
BRANCH  16  23
ATOM     22  C   UNL     1      48.658   6.875  15.171  0.00  0.00    +0.000 C 
ATOM     23  C   UNL     1      48.120   7.133  13.753  0.00  0.00    +0.000 C 
ATOM     24  C   UNL     1      49.246   7.241  12.718  0.00  0.00    +0.000 C 
ATOM     25  C   UNL     1      48.773   8.306  11.739  0.00  0.00    +0.000 C 
ATOM     26  O   UNL     1      47.640   8.966  12.315  0.00  0.00    +0.000 OA
ATOM     27  C   UNL     1      47.568   8.566  13.687  0.00  0.00    +0.000 C 
ENDBRANCH  16  23
ENDBRANCH  15  20
ENDBRANCH   1  15
TORSDOF 6
ENDMDL
MODEL 2
REMARK VINA RESULT:    -7.994      1.005      1.488
REMARK INTER + INTRA:         -11.961
REMARK INTER:                 -10.833
REMARK INTRA:                  -1.128
REMARK UNBOUND:                -1.163
REMARK  Name = 
REMARK  7 active torsions:
REMARK  status: ('A' for Active; 'I' for Inactive)
REMARK    1  A    between atoms: C_1  and  C_2
REMARK    2  A    between atoms: C_2  and  C_3
REMARK    3  A    between atoms: C_7  and  C_8
REMARK    4  A    between atoms: C_8  and  C_9
REMARK    5  A    between atoms: C_9  and  N_10
REMARK    6  A    between atoms: N_10  and  C_11
REMARK    7  A    between atoms: C_14  and  C_15
REMARK                            x       y       z     vdW  Elec       q    Type
REMARK                         _______ _______ _______ _____ _____    ______ ____
ROOT
ATOM      1  C   UNL     1      43.272   4.315  11.231  0.00  0.00    +0.000 C 
ENDROOT
BRANCH   1   2
ATOM      2  N   UNL     1      43.721   4.836   9.934  0.00  0.00    +0.000 N 
ATOM      3  H   UNL     1      44.087   5.783  10.005  0.00  0.00    +0.000 HD
BRANCH   2   4
ATOM      4  C   UNL     1      44.584   4.011   9.185  0.00  0.00    +0.000 A 
ATOM      5  C   UNL     1      45.508   4.515   8.264  0.00  0.00    +0.000 A 
ATOM      6  C   UNL     1      46.386   3.674   7.575  0.00  0.00    +0.000 A 
ATOM      7  C   UNL     1      46.390   2.302   7.825  0.00  0.00    +0.000 A 
ATOM      8  C   UNL     1      45.508   1.782   8.774  0.00  0.00    +0.000 A 
ATOM      9  C   UNL     1      44.626   2.636   9.457  0.00  0.00    +0.000 A 
BRANCH   7  10
ATOM     10  C   UNL     1      47.343   1.461   7.055  0.00  0.00    +0.000 C 
ATOM     11  N   UNL     1      48.404   2.086   6.461  0.00  0.00    +0.000 N 
ATOM     12  O   UNL     1      47.174   0.256   6.917  0.00  0.00    +0.000 OA
ATOM     13  H   UNL     1      48.440   3.088   6.337  0.00  0.00    +0.000 HD
ATOM     14  H   UNL     1      48.959   1.513   5.840  0.00  0.00    +0.000 HD
ENDBRANCH   7  10
ENDBRANCH   2   4
ENDBRANCH   1   2
BRANCH   1  15
ATOM     15  C   UNL     1      43.502   5.325  12.364  0.00  0.00    +0.000 C 
BRANCH  15  20
ATOM     16  C   UNL     1      47.034   6.531  13.239  0.00  0.00    +0.000 A 
ATOM     17  C   UNL     1      47.553   5.351  13.808  0.00  0.00    +0.000 A 
ATOM     18  C   UNL     1      46.798   4.178  13.878  0.00  0.00    +0.000 A 
ATOM     19  C   UNL     1      45.496   4.156  13.388  0.00  0.00    +0.000 A 
ATOM     20  C   UNL     1      44.952   5.300  12.798  0.00  0.00    +0.000 A 
ATOM     21  C   UNL     1      45.732   6.469  12.712  0.00  0.00    +0.000 A 
BRANCH  16  23
ATOM     22  C   UNL     1      47.270   8.725  14.407  0.00  0.00    +0.000 C 
ATOM     23  C   UNL     1      47.857   7.831  13.301  0.00  0.00    +0.000 C 
ATOM     24  C   UNL     1      49.345   7.537  13.524  0.00  0.00    +0.000 C 
ATOM     25  C   UNL     1      49.951   7.517  12.128  0.00  0.00    +0.000 C 
ATOM     26  O   UNL     1      48.982   8.049  11.217  0.00  0.00    +0.000 OA
ATOM     27  C   UNL     1      47.945   8.646  12.002  0.00  0.00    +0.000 C 
ENDBRANCH  16  23
ENDBRANCH  15  20
ENDBRANCH   1  15
TORSDOF 6
ENDMDL
MODEL 3
REMARK VINA RESULT:    -7.836      2.562      3.659
REMARK INTER + INTRA:         -11.748
REMARK INTER:                 -10.959
REMARK INTRA:                  -0.789
REMARK UNBOUND:                -1.163
REMARK  Name = 
REMARK  7 active torsions:
REMARK  status: ('A' for Active; 'I' for Inactive)
REMARK    1  A    between atoms: C_1  and  C_2
REMARK    2  A    between atoms: C_2  and  C_3
REMARK    3  A    between atoms: C_7  and  C_8
REMARK    4  A    between atoms: C_8  and  C_9
REMARK    5  A    between atoms: C_9  and  N_10
REMARK    6  A    between atoms: N_10  and  C_11
REMARK    7  A    between atoms: C_14  and  C_15
REMARK                            x       y       z     vdW  Elec       q    Type
REMARK                         _______ _______ _______ _____ _____    ______ ____
ROOT
ATOM      1  C   UNL     1      44.791   5.031  11.727  0.00  0.00    +0.000 C 
ENDROOT
BRANCH   1   2
ATOM      2  N   UNL     1      44.059   4.321  10.671  0.00  0.00    +0.000 N 
ATOM      3  H   UNL     1      43.256   4.849  10.336  0.00  0.00    +0.000 HD
BRANCH   2   4
ATOM      4  C   UNL     1      44.824   3.820   9.599  0.00  0.00    +0.000 A 
ATOM      5  C   UNL     1      45.530   4.646   8.718  0.00  0.00    +0.000 A 
ATOM      6  C   UNL     1      46.323   4.117   7.695  0.00  0.00    +0.000 A 
ATOM      7  C   UNL     1      46.463   2.736   7.557  0.00  0.00    +0.000 A 
ATOM      8  C   UNL     1      45.805   1.893   8.453  0.00  0.00    +0.000 A 
ATOM      9  C   UNL     1      45.007   2.436   9.474  0.00  0.00    +0.000 A 
BRANCH   7  10
ATOM     10  C   UNL     1      47.315   2.236   6.446  0.00  0.00    +0.000 C 
ATOM     11  N   UNL     1      47.342   2.965   5.290  0.00  0.00    +0.000 N 
ATOM     12  O   UNL     1      47.942   1.189   6.535  0.00  0.00    +0.000 OA
ATOM     13  H   UNL     1      46.657   3.679   5.085  0.00  0.00    +0.000 HD
ATOM     14  H   UNL     1      47.823   2.535   4.511  0.00  0.00    +0.000 HD
ENDBRANCH   7  10
ENDBRANCH   2   4
ENDBRANCH   1   2
BRANCH   1  15
ATOM     15  C   UNL     1      45.604   4.069  12.605  0.00  0.00    +0.000 C 
BRANCH  15  20
ATOM     16  C   UNL     1      47.684   5.002  15.686  0.00  0.00    +0.000 A 
ATOM     17  C   UNL     1      48.361   6.132  15.183  0.00  0.00    +0.000 A 
ATOM     18  C   UNL     1      48.127   6.609  13.890  0.00  0.00    +0.000 A 
ATOM     19  C   UNL     1      47.217   5.962  13.061  0.00  0.00    +0.000 A 
ATOM     20  C   UNL     1      46.512   4.851  13.530  0.00  0.00    +0.000 A 
ATOM     21  C   UNL     1      46.738   4.394  14.843  0.00  0.00    +0.000 A 
BRANCH  16  23
ATOM     22  C   UNL     1      47.244   5.175  18.138  0.00  0.00    +0.000 C 
ATOM     23  C   UNL     1      48.069   4.440  17.067  0.00  0.00    +0.000 C 
ATOM     24  C   UNL     1      47.870   2.921  17.124  0.00  0.00    +0.000 C 
ATOM     25  C   UNL     1      49.234   2.337  16.785  0.00  0.00    +0.000 C 
ATOM     26  O   UNL     1      50.195   3.399  16.831  0.00  0.00    +0.000 OA
ATOM     27  C   UNL     1      49.556   4.522  17.446  0.00  0.00    +0.000 C 
ENDBRANCH  16  23
ENDBRANCH  15  20
ENDBRANCH   1  15
TORSDOF 6
ENDMDL
MODEL 4
REMARK VINA RESULT:    -7.675      1.735      2.821
REMARK INTER + INTRA:         -11.531
REMARK INTER:                 -10.635
REMARK INTRA:                  -0.896
REMARK UNBOUND:                -1.163
REMARK  Name = 
REMARK  7 active torsions:
REMARK  status: ('A' for Active; 'I' for Inactive)
REMARK    1  A    between atoms: C_1  and  C_2
REMARK    2  A    between atoms: C_2  and  C_3
REMARK    3  A    between atoms: C_7  and  C_8
REMARK    4  A    between atoms: C_8  and  C_9
REMARK    5  A    between atoms: C_9  and  N_10
REMARK    6  A    between atoms: N_10  and  C_11
REMARK    7  A    between atoms: C_14  and  C_15
REMARK                            x       y       z     vdW  Elec       q    Type
REMARK                         _______ _______ _______ _____ _____    ______ ____
ROOT
ATOM      1  C   UNL     1      44.258   5.395  11.274  0.00  0.00    +0.000 C 
ENDROOT
BRANCH   1   2
ATOM      2  N   UNL     1      43.738   4.620  10.142  0.00  0.00    +0.000 N 
ATOM      3  H   UNL     1      43.126   5.171   9.545  0.00  0.00    +0.000 HD
BRANCH   2   4
ATOM      4  C   UNL     1      44.683   3.903   9.379  0.00  0.00    +0.000 A 
ATOM      5  C   UNL     1      44.770   2.507   9.394  0.00  0.00    +0.000 A 
ATOM      6  C   UNL     1      45.682   1.822   8.587  0.00  0.00    +0.000 A 
ATOM      7  C   UNL     1      46.507   2.523   7.706  0.00  0.00    +0.000 A 
ATOM      8  C   UNL     1      46.406   3.913   7.641  0.00  0.00    +0.000 A 
ATOM      9  C   UNL     1      45.488   4.591   8.460  0.00  0.00    +0.000 A 
BRANCH   7  10
ATOM     10  C   UNL     1      47.460   1.738   6.879  0.00  0.00    +0.000 C 
ATOM     11  N   UNL     1      48.569   2.383   6.405  0.00  0.00    +0.000 N 
ATOM     12  O   UNL     1      47.253   0.566   6.591  0.00  0.00    +0.000 OA
ATOM     13  H   UNL     1      48.648   3.390   6.403  0.00  0.00    +0.000 HD
ATOM     14  H   UNL     1      49.129   1.864   5.742  0.00  0.00    +0.000 HD
ENDBRANCH   7  10
ENDBRANCH   2   4
ENDBRANCH   1   2
BRANCH   1  15
ATOM     15  C   UNL     1      43.676   6.815  11.310  0.00  0.00    +0.000 C 
BRANCH  15  20
ATOM     16  C   UNL     1      47.088   8.235  12.326  0.00  0.00    +0.000 A 
ATOM     17  C   UNL     1      46.841   9.609  12.131  0.00  0.00    +0.000 A 
ATOM     18  C   UNL     1      45.591  10.076  11.716  0.00  0.00    +0.000 A 
ATOM     19  C   UNL     1      44.556   9.179  11.475  0.00  0.00    +0.000 A 
ATOM     20  C   UNL     1      44.755   7.812  11.676  0.00  0.00    +0.000 A 
ATOM     21  C   UNL     1      46.012   7.354  12.118  0.00  0.00    +0.000 A 
BRANCH  16  23
ATOM     22  C   UNL     1      49.436   8.131  11.483  0.00  0.00    +0.000 C 
ATOM     23  C   UNL     1      48.514   7.760  12.658  0.00  0.00    +0.000 C 
ATOM     24  C   UNL     1      49.003   8.350  13.986  0.00  0.00    +0.000 C 
ATOM     25  C   UNL     1      48.677   7.289  15.026  0.00  0.00    +0.000 C 
ATOM     26  O   UNL     1      48.322   6.085  14.336  0.00  0.00    +0.000 OA
ATOM     27  C   UNL     1      48.681   6.263  12.962  0.00  0.00    +0.000 C 
ENDBRANCH  16  23
ENDBRANCH  15  20
ENDBRANCH   1  15
TORSDOF 6
ENDMDL
MODEL 5
REMARK VINA RESULT:    -7.550      1.384      2.399
REMARK INTER + INTRA:         -11.361
REMARK INTER:                 -10.497
REMARK INTRA:                  -0.864
REMARK UNBOUND:                -1.163
REMARK  Name = 
REMARK  7 active torsions:
REMARK  status: ('A' for Active; 'I' for Inactive)
REMARK    1  A    between atoms: C_1  and  C_2
REMARK    2  A    between atoms: C_2  and  C_3
REMARK    3  A    between atoms: C_7  and  C_8
REMARK    4  A    between atoms: C_8  and  C_9
REMARK    5  A    between atoms: C_9  and  N_10
REMARK    6  A    between atoms: N_10  and  C_11
REMARK    7  A    between atoms: C_14  and  C_15
REMARK                            x       y       z     vdW  Elec       q    Type
REMARK                         _______ _______ _______ _____ _____    ______ ____
ROOT
ATOM      1  C   UNL     1      44.462   5.520  11.196  0.00  0.00    +0.000 C 
ENDROOT
BRANCH   1   2
ATOM      2  N   UNL     1      43.926   5.072   9.905  0.00  0.00    +0.000 N 
ATOM      3  H   UNL     1      43.703   5.851   9.288  0.00  0.00    +0.000 HD
BRANCH   2   4
ATOM      4  C   UNL     1      44.660   4.078   9.226  0.00  0.00    +0.000 A 
ATOM      5  C   UNL     1      45.667   4.375   8.302  0.00  0.00    +0.000 A 
ATOM      6  C   UNL     1      46.413   3.367   7.684  0.00  0.00    +0.000 A 
ATOM      7  C   UNL     1      46.196   2.029   8.012  0.00  0.00    +0.000 A 
ATOM      8  C   UNL     1      45.227   1.712   8.965  0.00  0.00    +0.000 A 
ATOM      9  C   UNL     1      44.480   2.733   9.577  0.00  0.00    +0.000 A 
BRANCH   7  10
ATOM     10  C   UNL     1      47.017   1.004   7.316  0.00  0.00    +0.000 C 
ATOM     11  N   UNL     1      46.771  -0.309   7.605  0.00  0.00    +0.000 N 
ATOM     12  O   UNL     1      47.911   1.313   6.539  0.00  0.00    +0.000 OA
ATOM     13  H   UNL     1      46.232  -0.593   8.411  0.00  0.00    +0.000 HD
ATOM     14  H   UNL     1      47.427  -0.974   7.219  0.00  0.00    +0.000 HD
ENDBRANCH   7  10
ENDBRANCH   2   4
ENDBRANCH   1   2
BRANCH   1  15
ATOM     15  C   UNL     1      45.320   6.784  11.051  0.00  0.00    +0.000 C 
BRANCH  15  20
ATOM     16  C   UNL     1      48.862   7.394  12.382  0.00  0.00    +0.000 A 
ATOM     17  C   UNL     1      48.783   6.690  13.600  0.00  0.00    +0.000 A 
ATOM     18  C   UNL     1      47.626   6.000  13.973  0.00  0.00    +0.000 A 
ATOM     19  C   UNL     1      46.512   6.004  13.139  0.00  0.00    +0.000 A 
ATOM     20  C   UNL     1      46.558   6.675  11.915  0.00  0.00    +0.000 A 
ATOM     21  C   UNL     1      47.738   7.346  11.539  0.00  0.00    +0.000 A 
BRANCH  16  23
ATOM     22  C   UNL     1      50.919   7.539  10.973  0.00  0.00    +0.000 C 
ATOM     23  C   UNL     1      50.110   8.243  12.076  0.00  0.00    +0.000 C 
ATOM     24  C   UNL     1      49.727   9.676  11.688  0.00  0.00    +0.000 C 
ATOM     25  C   UNL     1      49.814  10.467  12.985  0.00  0.00    +0.000 C 
ATOM     26  O   UNL     1      50.477   9.651  13.958  0.00  0.00    +0.000 OA
ATOM     27  C   UNL     1      51.043   8.536  13.262  0.00  0.00    +0.000 C 
ENDBRANCH  16  23
ENDBRANCH  15  20
ENDBRANCH   1  15
TORSDOF 6
ENDMDL
MODEL 6
REMARK VINA RESULT:    -6.695      4.929      7.991
REMARK INTER + INTRA:         -10.206
REMARK INTER:                  -9.565
REMARK INTRA:                  -0.641
REMARK UNBOUND:                -1.163
REMARK  Name = 
REMARK  7 active torsions:
REMARK  status: ('A' for Active; 'I' for Inactive)
REMARK    1  A    between atoms: C_1  and  C_2
REMARK    2  A    between atoms: C_2  and  C_3
REMARK    3  A    between atoms: C_7  and  C_8
REMARK    4  A    between atoms: C_8  and  C_9
REMARK    5  A    between atoms: C_9  and  N_10
REMARK    6  A    between atoms: N_10  and  C_11
REMARK    7  A    between atoms: C_14  and  C_15
REMARK                            x       y       z     vdW  Elec       q    Type
REMARK                         _______ _______ _______ _____ _____    ______ ____
ROOT
ATOM      1  C   UNL     1      47.922   5.237  15.923  0.00  0.00    +0.000 C 
ENDROOT
BRANCH   1   2
ATOM      2  N   UNL     1      48.187   4.712  17.269  0.00  0.00    +0.000 N 
ATOM      3  H   UNL     1      47.356   4.307  17.696  0.00  0.00    +0.000 HD
BRANCH   2   4
ATOM      4  C   UNL     1      49.299   3.856  17.405  0.00  0.00    +0.000 A 
ATOM      5  C   UNL     1      49.257   2.497  17.075  0.00  0.00    +0.000 A 
ATOM      6  C   UNL     1      50.391   1.686  17.172  0.00  0.00    +0.000 A 
ATOM      7  C   UNL     1      51.614   2.230  17.563  0.00  0.00    +0.000 A 
ATOM      8  C   UNL     1      51.690   3.593  17.854  0.00  0.00    +0.000 A 
ATOM      9  C   UNL     1      50.543   4.398  17.758  0.00  0.00    +0.000 A 
BRANCH   7  10
ATOM     10  C   UNL     1      52.782   1.314  17.653  0.00  0.00    +0.000 C 
ATOM     11  N   UNL     1      52.567   0.060  18.154  0.00  0.00    +0.000 N 
ATOM     12  O   UNL     1      53.908   1.670  17.331  0.00  0.00    +0.000 OA
ATOM     13  H   UNL     1      51.727  -0.183  18.659  0.00  0.00    +0.000 HD
ATOM     14  H   UNL     1      53.397  -0.492  18.325  0.00  0.00    +0.000 HD
ENDBRANCH   7  10
ENDBRANCH   2   4
ENDBRANCH   1   2
BRANCH   1  15
ATOM     15  C   UNL     1      47.048   4.281  15.099  0.00  0.00    +0.000 C 
BRANCH  15  20
ATOM     16  C   UNL     1      45.229   5.079  11.821  0.00  0.00    +0.000 A 
ATOM     17  C   UNL     1      46.028   6.145  11.360  0.00  0.00    +0.000 A 
ATOM     18  C   UNL     1      47.152   6.577  12.068  0.00  0.00    +0.000 A 
ATOM     19  C   UNL     1      47.503   5.960  13.264  0.00  0.00    +0.000 A 
ATOM     20  C   UNL     1      46.748   4.887  13.745  0.00  0.00    +0.000 A 
ATOM     21  C   UNL     1      45.630   4.445  13.010  0.00  0.00    +0.000 A 
BRANCH  16  23
ATOM     22  C   UNL     1      42.905   5.845  11.325  0.00  0.00    +0.000 C 
ATOM     23  C   UNL     1      43.930   4.726  11.074  0.00  0.00    +0.000 C 
ATOM     24  C   UNL     1      44.190   4.504   9.580  0.00  0.00    +0.000 C 
ATOM     25  C   UNL     1      44.385   3.001   9.438  0.00  0.00    +0.000 C 
ATOM     26  O   UNL     1      43.974   2.383  10.663  0.00  0.00    +0.000 OA
ATOM     27  C   UNL     1      43.285   3.377  11.428  0.00  0.00    +0.000 C 
ENDBRANCH  16  23
ENDBRANCH  15  20
ENDBRANCH   1  15
TORSDOF 6
ENDMDL
MODEL 7
REMARK VINA RESULT:    -6.568      1.516      2.151
REMARK INTER + INTRA:         -10.034
REMARK INTER:                  -9.308
REMARK INTRA:                  -0.726
REMARK UNBOUND:                -1.163
REMARK  Name = 
REMARK  7 active torsions:
REMARK  status: ('A' for Active; 'I' for Inactive)
REMARK    1  A    between atoms: C_1  and  C_2
REMARK    2  A    between atoms: C_2  and  C_3
REMARK    3  A    between atoms: C_7  and  C_8
REMARK    4  A    between atoms: C_8  and  C_9
REMARK    5  A    between atoms: C_9  and  N_10
REMARK    6  A    between atoms: N_10  and  C_11
REMARK    7  A    between atoms: C_14  and  C_15
REMARK                            x       y       z     vdW  Elec       q    Type
REMARK                         _______ _______ _______ _____ _____    ______ ____
ROOT
ATOM      1  C   UNL     1      44.583   4.525  11.984  0.00  0.00    +0.000 C 
ENDROOT
BRANCH   1   2
ATOM      2  N   UNL     1      44.114   4.528  10.593  0.00  0.00    +0.000 N 
ATOM      3  H   UNL     1      43.872   5.462  10.269  0.00  0.00    +0.000 HD
BRANCH   2   4
ATOM      4  C   UNL     1      44.920   3.855   9.652  0.00  0.00    +0.000 A 
ATOM      5  C   UNL     1      44.970   2.461   9.554  0.00  0.00    +0.000 A 
ATOM      6  C   UNL     1      45.739   1.824   8.576  0.00  0.00    +0.000 A 
ATOM      7  C   UNL     1      46.447   2.574   7.638  0.00  0.00    +0.000 A 
ATOM      8  C   UNL     1      46.376   3.968   7.688  0.00  0.00    +0.000 A 
ATOM      9  C   UNL     1      45.603   4.597   8.679  0.00  0.00    +0.000 A 
BRANCH   7  10
ATOM     10  C   UNL     1      47.251   1.838   6.627  0.00  0.00    +0.000 C 
ATOM     11  N   UNL     1      47.986   2.577   5.742  0.00  0.00    +0.000 N 
ATOM     12  O   UNL     1      47.233   0.617   6.553  0.00  0.00    +0.000 OA
ATOM     13  H   UNL     1      47.833   3.565   5.604  0.00  0.00    +0.000 HD
ATOM     14  H   UNL     1      48.416   2.057   4.988  0.00  0.00    +0.000 HD
ENDBRANCH   7  10
ENDBRANCH   2   4
ENDBRANCH   1   2
BRANCH   1  15
ATOM     15  C   UNL     1      44.605   5.938  12.583  0.00  0.00    +0.000 C 
BRANCH  15  20
ATOM     16  C   UNL     1      48.045   7.098  13.813  0.00  0.00    +0.000 A 
ATOM     17  C   UNL     1      48.694   7.274  12.575  0.00  0.00    +0.000 A 
ATOM     18  C   UNL     1      48.030   7.060  11.364  0.00  0.00    +0.000 A 
ATOM     19  C   UNL     1      46.699   6.655  11.360  0.00  0.00    +0.000 A 
ATOM     20  C   UNL     1      46.016   6.488  12.567  0.00  0.00    +0.000 A 
ATOM     21  C   UNL     1      46.689   6.729  13.781  0.00  0.00    +0.000 A 
BRANCH  16  23
ATOM     22  C   UNL     1      48.607   5.958  15.963  0.00  0.00    +0.000 C 
ATOM     23  C   UNL     1      48.854   7.220  15.118  0.00  0.00    +0.000 C 
ATOM     24  C   UNL     1      50.344   7.441  14.831  0.00  0.00    +0.000 C 
ATOM     25  C   UNL     1      50.528   8.951  14.870  0.00  0.00    +0.000 C 
ATOM     26  O   UNL     1      49.341   9.527  15.427  0.00  0.00    +0.000 OA
ATOM     27  C   UNL     1      48.571   8.457  15.984  0.00  0.00    +0.000 C 
ENDBRANCH  16  23
ENDBRANCH  15  20
ENDBRANCH   1  15
TORSDOF 6
ENDMDL
MODEL 8
REMARK VINA RESULT:    -6.381      3.395      5.575
REMARK INTER + INTRA:          -9.782
REMARK INTER:                  -8.752
REMARK INTRA:                  -1.030
REMARK UNBOUND:                -1.163
REMARK  Name = 
REMARK  7 active torsions:
REMARK  status: ('A' for Active; 'I' for Inactive)
REMARK    1  A    between atoms: C_1  and  C_2
REMARK    2  A    between atoms: C_2  and  C_3
REMARK    3  A    between atoms: C_7  and  C_8
REMARK    4  A    between atoms: C_8  and  C_9
REMARK    5  A    between atoms: C_9  and  N_10
REMARK    6  A    between atoms: N_10  and  C_11
REMARK    7  A    between atoms: C_14  and  C_15
REMARK                            x       y       z     vdW  Elec       q    Type
REMARK                         _______ _______ _______ _____ _____    ______ ____
ROOT
ATOM      1  C   UNL     1      48.253   7.467  13.527  0.00  0.00    +0.000 C 
ENDROOT
BRANCH   1   2
ATOM      2  N   UNL     1      46.788   7.440  13.427  0.00  0.00    +0.000 N 
ATOM      3  H   UNL     1      46.410   8.310  13.059  0.00  0.00    +0.000 HD
BRANCH   2   4
ATOM      4  C   UNL     1      46.219   6.323  12.782  0.00  0.00    +0.000 A 
ATOM      5  C   UNL     1      46.005   5.101  13.426  0.00  0.00    +0.000 A 
ATOM      6  C   UNL     1      45.389   4.028  12.775  0.00  0.00    +0.000 A 
ATOM      7  C   UNL     1      44.930   4.170  11.465  0.00  0.00    +0.000 A 
ATOM      8  C   UNL     1      45.092   5.395  10.818  0.00  0.00    +0.000 A 
ATOM      9  C   UNL     1      45.716   6.465  11.481  0.00  0.00    +0.000 A 
BRANCH   7  10
ATOM     10  C   UNL     1      44.291   2.991  10.825  0.00  0.00    +0.000 C 
ATOM     11  N   UNL     1      44.988   2.347   9.841  0.00  0.00    +0.000 N 
ATOM     12  O   UNL     1      43.164   2.623  11.131  0.00  0.00    +0.000 OA
ATOM     13  H   UNL     1      45.791   2.761   9.389  0.00  0.00    +0.000 HD
ATOM     14  H   UNL     1      44.478   1.634   9.336  0.00  0.00    +0.000 HD
ENDBRANCH   7  10
ENDBRANCH   2   4
ENDBRANCH   1   2
BRANCH   1  15
ATOM     15  C   UNL     1      48.726   8.231  14.771  0.00  0.00    +0.000 C 
BRANCH  15  20
ATOM     16  C   UNL     1      49.619   5.294  17.066  0.00  0.00    +0.000 A 
ATOM     17  C   UNL     1      51.015   5.468  17.143  0.00  0.00    +0.000 A 
ATOM     18  C   UNL     1      51.656   6.530  16.500  0.00  0.00    +0.000 A 
ATOM     19  C   UNL     1      50.918   7.442  15.754  0.00  0.00    +0.000 A 
ATOM     20  C   UNL     1      49.530   7.315  15.670  0.00  0.00    +0.000 A 
ATOM     21  C   UNL     1      48.891   6.254  16.341  0.00  0.00    +0.000 A 
BRANCH  16  23
ATOM     22  C   UNL     1      48.889   4.234  19.206  0.00  0.00    +0.000 C 
ATOM     23  C   UNL     1      48.975   4.038  17.682  0.00  0.00    +0.000 C 
ATOM     24  C   UNL     1      47.606   3.750  17.058  0.00  0.00    +0.000 C 
ATOM     25  C   UNL     1      47.888   2.752  15.944  0.00  0.00    +0.000 C 
ATOM     26  O   UNL     1      49.229   2.275  16.105  0.00  0.00    +0.000 OA
ATOM     27  C   UNL     1      49.678   2.701  17.396  0.00  0.00    +0.000 C 
ENDBRANCH  16  23
ENDBRANCH  15  20
ENDBRANCH   1  15
TORSDOF 6
ENDMDL
MODEL 9
REMARK VINA RESULT:    -5.937      3.439      5.722
REMARK INTER + INTRA:          -9.182
REMARK INTER:                  -8.031
REMARK INTRA:                  -1.151
REMARK UNBOUND:                -1.163
REMARK  Name = 
REMARK  7 active torsions:
REMARK  status: ('A' for Active; 'I' for Inactive)
REMARK    1  A    between atoms: C_1  and  C_2
REMARK    2  A    between atoms: C_2  and  C_3
REMARK    3  A    between atoms: C_7  and  C_8
REMARK    4  A    between atoms: C_8  and  C_9
REMARK    5  A    between atoms: C_9  and  N_10
REMARK    6  A    between atoms: N_10  and  C_11
REMARK    7  A    between atoms: C_14  and  C_15
REMARK                            x       y       z     vdW  Elec       q    Type
REMARK                         _______ _______ _______ _____ _____    ______ ____
ROOT
ATOM      1  C   UNL     1      49.296   7.122  12.846  0.00  0.00    +0.000 C 
ENDROOT
BRANCH   1   2
ATOM      2  N   UNL     1      47.936   7.543  12.485  0.00  0.00    +0.000 N 
ATOM      3  H   UNL     1      47.929   8.188  11.698  0.00  0.00    +0.000 HD
BRANCH   2   4
ATOM      4  C   UNL     1      46.982   6.519  12.313  0.00  0.00    +0.000 A 
ATOM      5  C   UNL     1      46.741   5.536  13.278  0.00  0.00    +0.000 A 
ATOM      6  C   UNL     1      45.752   4.565  13.102  0.00  0.00    +0.000 A 
ATOM      7  C   UNL     1      44.943   4.582  11.966  0.00  0.00    +0.000 A 
ATOM      8  C   UNL     1      45.135   5.581  11.010  0.00  0.00    +0.000 A 
ATOM      9  C   UNL     1      46.136   6.549  11.196  0.00  0.00    +0.000 A 
BRANCH   7  10
ATOM     10  C   UNL     1      43.913   3.519  11.833  0.00  0.00    +0.000 C 
ATOM     11  N   UNL     1      44.035   2.415  12.631  0.00  0.00    +0.000 N 
ATOM     12  O   UNL     1      43.006   3.598  11.015  0.00  0.00    +0.000 OA
ATOM     13  H   UNL     1      44.889   2.196  13.123  0.00  0.00    +0.000 HD
ATOM     14  H   UNL     1      43.399   1.655  12.428  0.00  0.00    +0.000 HD
ENDBRANCH   7  10
ENDBRANCH   2   4
ENDBRANCH   1   2
BRANCH   1  15
ATOM     15  C   UNL     1      49.963   8.115  13.809  0.00  0.00    +0.000 C 
BRANCH  15  20
ATOM     16  C   UNL     1      48.711   6.730  17.156  0.00  0.00    +0.000 A 
ATOM     17  C   UNL     1      48.294   7.929  17.768  0.00  0.00    +0.000 A 
ATOM     18  C   UNL     1      48.378   9.156  17.106  0.00  0.00    +0.000 A 
ATOM     19  C   UNL     1      48.892   9.219  15.815  0.00  0.00    +0.000 A 
ATOM     20  C   UNL     1      49.298   8.050  15.167  0.00  0.00    +0.000 A 
ATOM     21  C   UNL     1      49.186   6.815  15.836  0.00  0.00    +0.000 A 
BRANCH  16  23
ATOM     22  C   UNL     1      49.296   5.726  19.367  0.00  0.00    +0.000 C 
ATOM     23  C   UNL     1      48.719   5.424  17.972  0.00  0.00    +0.000 C 
ATOM     24  C   UNL     1      47.318   4.806  18.047  0.00  0.00    +0.000 C 
ATOM     25  C   UNL     1      47.276   3.799  16.907  0.00  0.00    +0.000 C 
ATOM     26  O   UNL     1      48.612   3.627  16.419  0.00  0.00    +0.000 OA
ATOM     27  C   UNL     1      49.492   4.244  17.363  0.00  0.00    +0.000 C 
ENDBRANCH  16  23
ENDBRANCH  15  20
ENDBRANCH   1  15
TORSDOF 6
ENDMDL
