MODEL 1
REMARK VINA RESULT:    -7.995      0.000      0.000
REMARK INTER + INTRA:         -10.466
REMARK INTER:                 -10.099
REMARK INTRA:                  -0.367
REMARK UNBOUND:                -0.367
REMARK  Name = 
REMARK  7 active torsions:
REMARK  status: ('A' for Active; 'I' for Inactive)
REMARK    1  A    between atoms: C_1  and  C_2
REMARK    2  A    between atoms: C_2  and  C_3
REMARK    3  A    between atoms: C_2  and  N_4
REMARK    4  A    between atoms: C_2  and  C_5
REMARK    5  A    between atoms: C_8  and  C_9
REMARK    6  A    between atoms: C_9  and  N_10
REMARK    7  A    between atoms: C_15  and  C_16
REMARK                            x       y       z     vdW  Elec       q    Type
REMARK                         _______ _______ _______ _____ _____    ______ ____
ROOT
ATOM      1  N   UNL     1      44.037   4.268  10.487  0.00  0.00    +0.000 N 
ATOM      2  C   UNL     1      43.540   3.083  10.957  0.00  0.00    +0.000 A 
ATOM      3  N   UNL     1      44.047   2.049  10.316  0.00  0.00    +0.000 NA
ATOM      4  C   UNL     1      44.898   2.593   9.386  0.00  0.00    +0.000 A 
ATOM      5  C   UNL     1      45.679   1.990   8.391  0.00  0.00    +0.000 A 
ATOM      6  C   UNL     1      46.432   2.838   7.570  0.00  0.00    +0.000 A 
ATOM      7  C   UNL     1      46.384   4.217   7.803  0.00  0.00    +0.000 A 
ATOM      8  N   UNL     1      45.639   4.847   8.750  0.00  0.00    +0.000 NA
ATOM      9  C   UNL     1      44.924   3.979   9.488  0.00  0.00    +0.000 A 
ENDROOT
BRANCH   6  10
ATOM     10  C   UNL     1      47.264   2.360   6.440  0.00  0.00    +0.000 C 
ATOM     11  N   UNL     1      47.229   3.048   5.261  0.00  0.00    +0.000 N 
ATOM     12  O   UNL     1      47.984   1.376   6.555  0.00  0.00    +0.000 OA
ATOM     13  H   UNL     1      46.694   3.883   5.085  0.00  0.00    +0.000 HD
ATOM     14  H   UNL     1      47.836   2.715   4.521  0.00  0.00    +0.000 HD
ENDBRANCH   6  10
BRANCH   1  15
ATOM     15  C   UNL     1      43.585   5.590  10.858  0.00  0.00    +0.000 C 
BRANCH  15  19
ATOM     16  C   UNL     1      46.986   7.652  12.757  0.00  0.00    +0.000 C 
ATOM     17  C   UNL     1      45.708   8.443  12.398  0.00  0.00    +0.000 C 
ATOM     18  C   UNL     1      44.800   7.686  11.435  0.00  0.00    +0.000 C 
ATOM     19  C   UNL     1      44.421   6.290  11.945  0.00  0.00    +0.000 C 
ATOM     20  C   UNL     1      45.682   5.499  12.318  0.00  0.00    +0.000 C 
ATOM     21  C   UNL     1      46.583   6.261  13.293  0.00  0.00    +0.000 C 
BRANCH  16  23
ATOM     22  C   UNL     1      48.520   9.689  12.999  0.00  0.00    +0.000 C 
ATOM     23  C   UNL     1      47.939   8.455  13.718  0.00  0.00    +0.000 C 
ATOM     24  C   UNL     1      49.125   7.596  14.196  0.00  0.00    +0.000 C 
BRANCH  23  25
ATOM     25  N   UNL     1      47.212   8.930  14.899  0.00  0.00    +0.000 NA
ATOM     26  H   UNL     1      47.683   8.617  15.747  0.00  0.00    +0.000 HD
ATOM     27  H   UNL     1      46.284   8.515  14.930  0.00  0.00    +0.000 HD
ENDBRANCH  23  25
ENDBRANCH  16  23
ENDBRANCH  15  19
ENDBRANCH   1  15
TORSDOF 5
ENDMDL
MODEL 2
REMARK VINA RESULT:    -7.811      2.555      7.120
REMARK INTER + INTRA:         -10.232
REMARK INTER:                 -10.047
REMARK INTRA:                  -0.186
REMARK UNBOUND:                -0.367
REMARK  Name = 
REMARK  7 active torsions:
REMARK  status: ('A' for Active; 'I' for Inactive)
REMARK    1  A    between atoms: C_1  and  C_2
REMARK    2  A    between atoms: C_2  and  C_3
REMARK    3  A    between atoms: C_2  and  N_4
REMARK    4  A    between atoms: C_2  and  C_5
REMARK    5  A    between atoms: C_8  and  C_9
REMARK    6  A    between atoms: C_9  and  N_10
REMARK    7  A    between atoms: C_15  and  C_16
REMARK                            x       y       z     vdW  Elec       q    Type
REMARK                         _______ _______ _______ _____ _____    ______ ____
ROOT
ATOM      1  N   UNL     1      44.762   4.443  11.896  0.00  0.00    +0.000 N 
ATOM      2  C   UNL     1      45.284   3.345  12.524  0.00  0.00    +0.000 A 
ATOM      3  N   UNL     1      46.244   3.672  13.366  0.00  0.00    +0.000 NA
ATOM      4  C   UNL     1      46.354   5.036  13.265  0.00  0.00    +0.000 A 
ATOM      5  C   UNL     1      47.233   5.936  13.882  0.00  0.00    +0.000 A 
ATOM      6  C   UNL     1      47.104   7.288  13.542  0.00  0.00    +0.000 A 
ATOM      7  C   UNL     1      46.101   7.663  12.641  0.00  0.00    +0.000 A 
ATOM      8  N   UNL     1      45.230   6.828  12.014  0.00  0.00    +0.000 NA
ATOM      9  C   UNL     1      45.422   5.543  12.367  0.00  0.00    +0.000 A 
ENDROOT
BRANCH   6  10
ATOM     10  C   UNL     1      47.992   8.354  14.065  0.00  0.00    +0.000 C 
ATOM     11  N   UNL     1      47.541   9.143  15.085  0.00  0.00    +0.000 N 
ATOM     12  O   UNL     1      49.116   8.522  13.610  0.00  0.00    +0.000 OA
ATOM     13  H   UNL     1      46.648   9.057  15.542  0.00  0.00    +0.000 HD
ATOM     14  H   UNL     1      48.187   9.838  15.443  0.00  0.00    +0.000 HD
ENDBRANCH   6  10
BRANCH   1  15
ATOM     15  C   UNL     1      43.808   4.431  10.810  0.00  0.00    +0.000 C 
BRANCH  15  19
ATOM     16  C   UNL     1      46.641   2.800   7.854  0.00  0.00    +0.000 C 
ATOM     17  C   UNL     1      45.451   1.940   8.337  0.00  0.00    +0.000 C 
ATOM     18  C   UNL     1      44.802   2.494   9.601  0.00  0.00    +0.000 C 
ATOM     19  C   UNL     1      44.361   3.956   9.455  0.00  0.00    +0.000 C 
ATOM     20  C   UNL     1      45.532   4.817   8.962  0.00  0.00    +0.000 C 
ATOM     21  C   UNL     1      46.171   4.261   7.687  0.00  0.00    +0.000 C 
BRANCH  16  23
ATOM     22  C   UNL     1      46.721   2.803   5.293  0.00  0.00    +0.000 C 
ATOM     23  C   UNL     1      47.333   2.201   6.575  0.00  0.00    +0.000 C 
ATOM     24  C   UNL     1      47.160   0.672   6.495  0.00  0.00    +0.000 C 
BRANCH  23  25
ATOM     25  N   UNL     1      48.768   2.500   6.566  0.00  0.00    +0.000 NA
ATOM     26  H   UNL     1      49.048   2.891   7.464  0.00  0.00    +0.000 HD
ATOM     27  H   UNL     1      48.972   3.219   5.876  0.00  0.00    +0.000 HD
ENDBRANCH  23  25
ENDBRANCH  16  23
ENDBRANCH  15  19
ENDBRANCH   1  15
TORSDOF 5
ENDMDL
MODEL 3
REMARK VINA RESULT:    -7.674      2.999      7.220
REMARK INTER + INTRA:         -10.059
REMARK INTER:                  -9.613
REMARK INTRA:                  -0.446
REMARK UNBOUND:                -0.367
REMARK  Name = 
REMARK  7 active torsions:
REMARK  status: ('A' for Active; 'I' for Inactive)
REMARK    1  A    between atoms: C_1  and  C_2
REMARK    2  A    between atoms: C_2  and  C_3
REMARK    3  A    between atoms: C_2  and  N_4
REMARK    4  A    between atoms: C_2  and  C_5
REMARK    5  A    between atoms: C_8  and  C_9
REMARK    6  A    between atoms: C_9  and  N_10
REMARK    7  A    between atoms: C_15  and  C_16
REMARK                            x       y       z     vdW  Elec       q    Type
REMARK                         _______ _______ _______ _____ _____    ______ ____
ROOT
ATOM      1  N   UNL     1      44.828   5.607  11.479  0.00  0.00    +0.000 N 
ATOM      2  C   UNL     1      45.036   6.959  11.457  0.00  0.00    +0.000 A 
ATOM      3  N   UNL     1      45.867   7.344  12.405  0.00  0.00    +0.000 NA
ATOM      4  C   UNL     1      46.197   6.192  13.075  0.00  0.00    +0.000 A 
ATOM      5  C   UNL     1      47.003   5.983  14.201  0.00  0.00    +0.000 A 
ATOM      6  C   UNL     1      47.120   4.666  14.666  0.00  0.00    +0.000 A 
ATOM      7  C   UNL     1      46.459   3.647  13.972  0.00  0.00    +0.000 A 
ATOM      8  N   UNL     1      45.663   3.801  12.880  0.00  0.00    +0.000 NA
ATOM      9  C   UNL     1      45.575   5.090  12.500  0.00  0.00    +0.000 A 
ENDROOT
BRANCH   6  10
ATOM     10  C   UNL     1      47.889   4.289  15.875  0.00  0.00    +0.000 C 
ATOM     11  N   UNL     1      47.593   3.112  16.501  0.00  0.00    +0.000 N 
ATOM     12  O   UNL     1      48.786   5.004  16.305  0.00  0.00    +0.000 OA
ATOM     13  H   UNL     1      46.898   2.447  16.202  0.00  0.00    +0.000 HD
ATOM     14  H   UNL     1      48.161   2.867  17.304  0.00  0.00    +0.000 HD
ENDBRANCH   6  10
BRANCH   1  15
ATOM     15  C   UNL     1      43.866   4.879  10.684  0.00  0.00    +0.000 C 
BRANCH  15  19
ATOM     16  C   UNL     1      46.628   2.830   7.928  0.00  0.00    +0.000 C 
ATOM     17  C   UNL     1      45.352   2.108   8.418  0.00  0.00    +0.000 C 
ATOM     18  C   UNL     1      44.718   2.792   9.624  0.00  0.00    +0.000 C 
ATOM     19  C   UNL     1      44.414   4.276   9.379  0.00  0.00    +0.000 C 
ATOM     20  C   UNL     1      45.671   5.000   8.877  0.00  0.00    +0.000 C 
ATOM     21  C   UNL     1      46.295   4.313   7.660  0.00  0.00    +0.000 C 
BRANCH  16  23
ATOM     22  C   UNL     1      46.667   2.554   5.381  0.00  0.00    +0.000 C 
ATOM     23  C   UNL     1      47.301   2.096   6.710  0.00  0.00    +0.000 C 
ATOM     24  C   UNL     1      47.132   0.567   6.800  0.00  0.00    +0.000 C 
BRANCH  23  25
ATOM     25  N   UNL     1      48.735   2.394   6.645  0.00  0.00    +0.000 NA
ATOM     26  H   UNL     1      49.232   1.622   6.203  0.00  0.00    +0.000 HD
ATOM     27  H   UNL     1      49.120   2.468   7.584  0.00  0.00    +0.000 HD
ENDBRANCH  23  25
ENDBRANCH  16  23
ENDBRANCH  15  19
ENDBRANCH   1  15
TORSDOF 5
ENDMDL
MODEL 4
REMARK VINA RESULT:    -6.860      1.283      1.716
REMARK INTER + INTRA:          -9.031
REMARK INTER:                  -8.935
REMARK INTRA:                  -0.096
REMARK UNBOUND:                -0.367
REMARK  Name = 
REMARK  7 active torsions:
REMARK  status: ('A' for Active; 'I' for Inactive)
REMARK    1  A    between atoms: C_1  and  C_2
REMARK    2  A    between atoms: C_2  and  C_3
REMARK    3  A    between atoms: C_2  and  N_4
REMARK    4  A    between atoms: C_2  and  C_5
REMARK    5  A    between atoms: C_8  and  C_9
REMARK    6  A    between atoms: C_9  and  N_10
REMARK    7  A    between atoms: C_15  and  C_16
REMARK                            x       y       z     vdW  Elec       q    Type
REMARK                         _______ _______ _______ _____ _____    ______ ____
ROOT
ATOM      1  N   UNL     1      44.393   4.895  10.662  0.00  0.00    +0.000 N 
ATOM      2  C   UNL     1      43.657   3.859  11.169  0.00  0.00    +0.000 A 
ATOM      3  N   UNL     1      43.848   2.744  10.494  0.00  0.00    +0.000 NA
ATOM      4  C   UNL     1      44.736   3.079   9.502  0.00  0.00    +0.000 A 
ATOM      5  C   UNL     1      45.271   2.320   8.454  0.00  0.00    +0.000 A 
ATOM      6  C   UNL     1      46.146   2.972   7.576  0.00  0.00    +0.000 A 
ATOM      7  C   UNL     1      46.454   4.317   7.809  0.00  0.00    +0.000 A 
ATOM      8  N   UNL     1      45.957   5.095   8.809  0.00  0.00    +0.000 NA
ATOM      9  C   UNL     1      45.107   4.414   9.600  0.00  0.00    +0.000 A 
ENDROOT
BRANCH   6  10
ATOM     10  C   UNL     1      46.751   2.324   6.388  0.00  0.00    +0.000 C 
ATOM     11  N   UNL     1      47.243   1.055   6.511  0.00  0.00    +0.000 N 
ATOM     12  O   UNL     1      46.801   2.900   5.308  0.00  0.00    +0.000 OA
ATOM     13  H   UNL     1      47.216   0.494   7.347  0.00  0.00    +0.000 HD
ATOM     14  H   UNL     1      47.617   0.629   5.672  0.00  0.00    +0.000 HD
ENDBRANCH   6  10
BRANCH   1  15
ATOM     15  C   UNL     1      44.306   6.281  11.063  0.00  0.00    +0.000 C 
BRANCH  15  19
ATOM     16  C   UNL     1      47.546   7.371  13.844  0.00  0.00    +0.000 C 
ATOM     17  C   UNL     1      47.787   6.290  12.766  0.00  0.00    +0.000 C 
ATOM     18  C   UNL     1      46.491   5.778  12.149  0.00  0.00    +0.000 C 
ATOM     19  C   UNL     1      45.619   6.901  11.573  0.00  0.00    +0.000 C 
ATOM     20  C   UNL     1      45.385   7.988  12.631  0.00  0.00    +0.000 C 
ATOM     21  C   UNL     1      46.692   8.505  13.238  0.00  0.00    +0.000 C 
BRANCH  16  23
ATOM     22  C   UNL     1      48.595   8.907  15.607  0.00  0.00    +0.000 C 
ATOM     23  C   UNL     1      48.885   7.865  14.507  0.00  0.00    +0.000 C 
ATOM     24  C   UNL     1      49.822   8.526  13.478  0.00  0.00    +0.000 C 
BRANCH  23  25
ATOM     25  N   UNL     1      49.604   6.749  15.129  0.00  0.00    +0.000 NA
ATOM     26  H   UNL     1      50.051   7.060  15.991  0.00  0.00    +0.000 HD
ATOM     27  H   UNL     1      50.360   6.438  14.524  0.00  0.00    +0.000 HD
ENDBRANCH  23  25
ENDBRANCH  16  23
ENDBRANCH  15  19
ENDBRANCH   1  15
TORSDOF 5
ENDMDL
MODEL 5
REMARK VINA RESULT:    -6.817      4.449      8.771
REMARK INTER + INTRA:          -8.977
REMARK INTER:                  -8.421
REMARK INTRA:                  -0.555
REMARK UNBOUND:                -0.367
REMARK  Name = 
REMARK  7 active torsions:
REMARK  status: ('A' for Active; 'I' for Inactive)
REMARK    1  A    between atoms: C_1  and  C_2
REMARK    2  A    between atoms: C_2  and  C_3
REMARK    3  A    between atoms: C_2  and  N_4
REMARK    4  A    between atoms: C_2  and  C_5
REMARK    5  A    between atoms: C_8  and  C_9
REMARK    6  A    between atoms: C_9  and  N_10
REMARK    7  A    between atoms: C_15  and  C_16
REMARK                            x       y       z     vdW  Elec       q    Type
REMARK                         _______ _______ _______ _____ _____    ______ ____
ROOT
ATOM      1  N   UNL     1      48.698   7.145  15.116  0.00  0.00    +0.000 N 
ATOM      2  C   UNL     1      48.632   8.433  15.572  0.00  0.00    +0.000 A 
ATOM      3  N   UNL     1      48.665   8.490  16.888  0.00  0.00    +0.000 NA
ATOM      4  C   UNL     1      48.742   7.183  17.297  0.00  0.00    +0.000 A 
ATOM      5  C   UNL     1      48.759   6.621  18.581  0.00  0.00    +0.000 A 
ATOM      6  C   UNL     1      48.818   5.224  18.664  0.00  0.00    +0.000 A 
ATOM      7  C   UNL     1      48.885   4.481  17.481  0.00  0.00    +0.000 A 
ATOM      8  N   UNL     1      48.867   4.980  16.215  0.00  0.00    +0.000 NA
ATOM      9  C   UNL     1      48.786   6.324  16.206  0.00  0.00    +0.000 A 
ENDROOT
BRANCH   6  10
ATOM     10  C   UNL     1      48.787   4.477  19.944  0.00  0.00    +0.000 C 
ATOM     11  N   UNL     1      48.418   3.162  19.929  0.00  0.00    +0.000 N 
ATOM     12  O   UNL     1      49.100   5.014  21.000  0.00  0.00    +0.000 OA
ATOM     13  H   UNL     1      48.176   2.630  19.108  0.00  0.00    +0.000 HD
ATOM     14  H   UNL     1      48.442   2.672  20.816  0.00  0.00    +0.000 HD
ENDBRANCH   6  10
BRANCH   1  15
ATOM     15  C   UNL     1      48.534   6.715  13.746  0.00  0.00    +0.000 C 
BRANCH  15  19
ATOM     16  C   UNL     1      45.133   5.079  11.470  0.00  0.00    +0.000 C 
ATOM     17  C   UNL     1      45.393   4.602  12.917  0.00  0.00    +0.000 C 
ATOM     18  C   UNL     1      46.785   4.973  13.416  0.00  0.00    +0.000 C 
ATOM     19  C   UNL     1      47.080   6.474  13.303  0.00  0.00    +0.000 C 
ATOM     20  C   UNL     1      46.812   6.962  11.873  0.00  0.00    +0.000 C 
ATOM     21  C   UNL     1      45.409   6.596  11.383  0.00  0.00    +0.000 C 
BRANCH  16  23
ATOM     22  C   UNL     1      42.625   5.603  11.498  0.00  0.00    +0.000 C 
ATOM     23  C   UNL     1      43.711   4.657  10.946  0.00  0.00    +0.000 C 
ATOM     24  C   UNL     1      43.343   3.226  11.382  0.00  0.00    +0.000 C 
BRANCH  23  25
ATOM     25  N   UNL     1      43.652   4.718   9.482  0.00  0.00    +0.000 NA
ATOM     26  H   UNL     1      43.147   3.911   9.119  0.00  0.00    +0.000 HD
ATOM     27  H   UNL     1      44.589   4.656   9.091  0.00  0.00    +0.000 HD
ENDBRANCH  23  25
ENDBRANCH  16  23
ENDBRANCH  15  19
ENDBRANCH   1  15
TORSDOF 5
ENDMDL
MODEL 6
REMARK VINA RESULT:    -6.116      4.108      6.157
REMARK INTER + INTRA:          -8.092
REMARK INTER:                  -7.668
REMARK INTRA:                  -0.423
REMARK UNBOUND:                -0.367
REMARK  Name = 
REMARK  7 active torsions:
REMARK  status: ('A' for Active; 'I' for Inactive)
REMARK    1  A    between atoms: C_1  and  C_2
REMARK    2  A    between atoms: C_2  and  C_3
REMARK    3  A    between atoms: C_2  and  N_4
REMARK    4  A    between atoms: C_2  and  C_5
REMARK    5  A    between atoms: C_8  and  C_9
REMARK    6  A    between atoms: C_9  and  N_10
REMARK    7  A    between atoms: C_15  and  C_16
REMARK                            x       y       z     vdW  Elec       q    Type
REMARK                         _______ _______ _______ _____ _____    ______ ____
ROOT
ATOM      1  N   UNL     1      47.397   6.565  13.713  0.00  0.00    +0.000 N 
ATOM      2  C   UNL     1      47.003   7.751  13.156  0.00  0.00    +0.000 A 
ATOM      3  N   UNL     1      46.033   7.584  12.279  0.00  0.00    +0.000 NA
ATOM      4  C   UNL     1      45.802   6.231  12.262  0.00  0.00    +0.000 A 
ATOM      5  C   UNL     1      44.922   5.459  11.492  0.00  0.00    +0.000 A 
ATOM      6  C   UNL     1      44.944   4.074  11.695  0.00  0.00    +0.000 A 
ATOM      7  C   UNL     1      45.811   3.549  12.660  0.00  0.00    +0.000 A 
ATOM      8  N   UNL     1      46.685   4.256  13.426  0.00  0.00    +0.000 NA
ATOM      9  C   UNL     1      46.629   5.575  13.165  0.00  0.00    +0.000 A 
ENDROOT
BRANCH   6  10
ATOM     10  C   UNL     1      44.115   3.118  10.923  0.00  0.00    +0.000 C 
ATOM     11  N   UNL     1      43.355   2.208  11.602  0.00  0.00    +0.000 N 
ATOM     12  O   UNL     1      44.092   3.144   9.698  0.00  0.00    +0.000 OA
ATOM     13  H   UNL     1      43.286   2.134  12.604  0.00  0.00    +0.000 HD
ATOM     14  H   UNL     1      42.774   1.594  11.045  0.00  0.00    +0.000 HD
ENDBRANCH   6  10
BRANCH   1  15
ATOM     15  C   UNL     1      48.529   6.368  14.589  0.00  0.00    +0.000 C 
BRANCH  15  19
ATOM     16  C   UNL     1      48.972   5.127  18.794  0.00  0.00    +0.000 C 
ATOM     17  C   UNL     1      49.084   6.621  18.416  0.00  0.00    +0.000 C 
ATOM     18  C   UNL     1      49.276   6.834  16.919  0.00  0.00    +0.000 C 
ATOM     19  C   UNL     1      48.184   6.165  16.074  0.00  0.00    +0.000 C 
ATOM     20  C   UNL     1      48.054   4.683  16.452  0.00  0.00    +0.000 C 
ATOM     21  C   UNL     1      47.850   4.478  17.955  0.00  0.00    +0.000 C 
BRANCH  16  23
ATOM     22  C   UNL     1      47.812   5.922  20.936  0.00  0.00    +0.000 C 
ATOM     23  C   UNL     1      48.816   4.912  20.345  0.00  0.00    +0.000 C 
ATOM     24  C   UNL     1      50.154   5.101  21.085  0.00  0.00    +0.000 C 
BRANCH  23  25
ATOM     25  N   UNL     1      48.317   3.565  20.640  0.00  0.00    +0.000 NA
ATOM     26  H   UNL     1      47.913   3.151  19.800  0.00  0.00    +0.000 HD
ATOM     27  H   UNL     1      47.559   3.613  21.316  0.00  0.00    +0.000 HD
ENDBRANCH  23  25
ENDBRANCH  16  23
ENDBRANCH  15  19
ENDBRANCH   1  15
TORSDOF 5
ENDMDL
MODEL 7
REMARK VINA RESULT:    -6.103      3.540      5.352
REMARK INTER + INTRA:          -8.076
REMARK INTER:                  -7.677
REMARK INTRA:                  -0.399
REMARK UNBOUND:                -0.367
REMARK  Name = 
REMARK  7 active torsions:
REMARK  status: ('A' for Active; 'I' for Inactive)
REMARK    1  A    between atoms: C_1  and  C_2
REMARK    2  A    between atoms: C_2  and  C_3
REMARK    3  A    between atoms: C_2  and  N_4
REMARK    4  A    between atoms: C_2  and  C_5
REMARK    5  A    between atoms: C_8  and  C_9
REMARK    6  A    between atoms: C_9  and  N_10
REMARK    7  A    between atoms: C_15  and  C_16
REMARK                            x       y       z     vdW  Elec       q    Type
REMARK                         _______ _______ _______ _____ _____    ______ ____
ROOT
ATOM      1  N   UNL     1      47.351   6.676  13.288  0.00  0.00    +0.000 N 
ATOM      2  C   UNL     1      47.771   5.957  14.373  0.00  0.00    +0.000 A 
ATOM      3  N   UNL     1      47.287   4.731  14.368  0.00  0.00    +0.000 NA
ATOM      4  C   UNL     1      46.512   4.662  13.237  0.00  0.00    +0.000 A 
ATOM      5  C   UNL     1      45.713   3.628  12.732  0.00  0.00    +0.000 A 
ATOM      6  C   UNL     1      45.012   3.885  11.547  0.00  0.00    +0.000 A 
ATOM      7  C   UNL     1      45.167   5.130  10.929  0.00  0.00    +0.000 A 
ATOM      8  N   UNL     1      45.926   6.164  11.383  0.00  0.00    +0.000 NA
ATOM      9  C   UNL     1      46.553   5.861  12.534  0.00  0.00    +0.000 A 
ENDROOT
BRANCH   6  10
ATOM     10  C   UNL     1      44.084   2.915  10.917  0.00  0.00    +0.000 C 
ATOM     11  N   UNL     1      44.515   2.203   9.834  0.00  0.00    +0.000 N 
ATOM     12  O   UNL     1      42.956   2.737  11.359  0.00  0.00    +0.000 OA
ATOM     13  H   UNL     1      45.433   2.258   9.422  0.00  0.00    +0.000 HD
ATOM     14  H   UNL     1      43.869   1.523   9.450  0.00  0.00    +0.000 HD
ENDBRANCH   6  10
BRANCH   1  15
ATOM     15  C   UNL     1      47.568   8.087  13.063  0.00  0.00    +0.000 C 
BRANCH  15  19
ATOM     16  C   UNL     1      51.373   9.237  11.161  0.00  0.00    +0.000 C 
ATOM     17  C   UNL     1      50.881   7.774  11.078  0.00  0.00    +0.000 C 
ATOM     18  C   UNL     1      49.770   7.471  12.077  0.00  0.00    +0.000 C 
ATOM     19  C   UNL     1      48.578   8.429  11.954  0.00  0.00    +0.000 C 
ATOM     20  C   UNL     1      49.057   9.885  12.021  0.00  0.00    +0.000 C 
ATOM     21  C   UNL     1      50.164  10.184  11.008  0.00  0.00    +0.000 C 
BRANCH  16  23
ATOM     22  C   UNL     1      52.204  10.736   9.257  0.00  0.00    +0.000 C 
ATOM     23  C   UNL     1      52.548   9.532  10.157  0.00  0.00    +0.000 C 
ATOM     24  C   UNL     1      52.828   8.330   9.236  0.00  0.00    +0.000 C 
BRANCH  23  25
ATOM     25  N   UNL     1      53.785   9.854  10.877  0.00  0.00    +0.000 NA
ATOM     26  H   UNL     1      54.466   9.107  10.749  0.00  0.00    +0.000 HD
ATOM     27  H   UNL     1      53.606   9.896  11.877  0.00  0.00    +0.000 HD
ENDBRANCH  23  25
ENDBRANCH  16  23
ENDBRANCH  15  19
ENDBRANCH   1  15
TORSDOF 5
ENDMDL
MODEL 8
REMARK VINA RESULT:    -5.441      4.990      9.031
REMARK INTER + INTRA:          -7.240
REMARK INTER:                  -6.833
REMARK INTRA:                  -0.407
REMARK UNBOUND:                -0.367
REMARK  Name = 
REMARK  7 active torsions:
REMARK  status: ('A' for Active; 'I' for Inactive)
REMARK    1  A    between atoms: C_1  and  C_2
REMARK    2  A    between atoms: C_2  and  C_3
REMARK    3  A    between atoms: C_2  and  N_4
REMARK    4  A    between atoms: C_2  and  C_5
REMARK    5  A    between atoms: C_8  and  C_9
REMARK    6  A    between atoms: C_9  and  N_10
REMARK    7  A    between atoms: C_15  and  C_16
REMARK                            x       y       z     vdW  Elec       q    Type
REMARK                         _______ _______ _______ _____ _____    ______ ____
ROOT
ATOM      1  N   UNL     1      48.283   5.228  16.215  0.00  0.00    +0.000 N 
ATOM      2  C   UNL     1      47.360   4.523  16.938  0.00  0.00    +0.000 A 
ATOM      3  N   UNL     1      47.849   4.109  18.090  0.00  0.00    +0.000 NA
ATOM      4  C   UNL     1      49.147   4.556  18.103  0.00  0.00    +0.000 A 
ATOM      5  C   UNL     1      50.169   4.381  19.045  0.00  0.00    +0.000 A 
ATOM      6  C   UNL     1      51.414   4.950  18.748  0.00  0.00    +0.000 A 
ATOM      7  C   UNL     1      51.556   5.675  17.560  0.00  0.00    +0.000 A 
ATOM      8  N   UNL     1      50.597   5.868  16.615  0.00  0.00    +0.000 NA
ATOM      9  C   UNL     1      49.435   5.277  16.950  0.00  0.00    +0.000 A 
ENDROOT
BRANCH   6  10
ATOM     10  C   UNL     1      52.609   4.807  19.614  0.00  0.00    +0.000 C 
ATOM     11  N   UNL     1      53.339   5.921  19.915  0.00  0.00    +0.000 N 
ATOM     12  O   UNL     1      52.935   3.717  20.068  0.00  0.00    +0.000 OA
ATOM     13  H   UNL     1      53.129   6.859  19.615  0.00  0.00    +0.000 HD
ATOM     14  H   UNL     1      54.128   5.794  20.538  0.00  0.00    +0.000 HD
ENDBRANCH   6  10
BRANCH   1  15
ATOM     15  C   UNL     1      48.130   5.691  14.855  0.00  0.00    +0.000 C 
BRANCH  15  19
ATOM     16  C   UNL     1      45.152   4.751  11.744  0.00  0.00    +0.000 C 
ATOM     17  C   UNL     1      45.564   3.670  12.770  0.00  0.00    +0.000 C 
ATOM     18  C   UNL     1      46.841   4.029  13.520  0.00  0.00    +0.000 C 
ATOM     19  C   UNL     1      46.763   5.397  14.211  0.00  0.00    +0.000 C 
ATOM     20  C   UNL     1      46.341   6.476  13.205  0.00  0.00    +0.000 C 
ATOM     21  C   UNL     1      45.053   6.114  12.463  0.00  0.00    +0.000 C 
BRANCH  16  23
ATOM     22  C   UNL     1      42.629   5.111  11.488  0.00  0.00    +0.000 C 
ATOM     23  C   UNL     1      43.858   4.355  10.943  0.00  0.00    +0.000 C 
ATOM     24  C   UNL     1      43.559   2.848  11.049  0.00  0.00    +0.000 C 
BRANCH  23  25
ATOM     25  N   UNL     1      43.996   4.695   9.523  0.00  0.00    +0.000 NA
ATOM     26  H   UNL     1      44.975   4.645   9.246  0.00  0.00    +0.000 HD
ATOM     27  H   UNL     1      43.713   5.659   9.365  0.00  0.00    +0.000 HD
ENDBRANCH  23  25
ENDBRANCH  16  23
ENDBRANCH  15  19
ENDBRANCH   1  15
TORSDOF 5
ENDMDL
MODEL 9
REMARK VINA RESULT:    -5.272      4.382      6.329
REMARK INTER + INTRA:          -7.026
REMARK INTER:                  -6.505
REMARK INTRA:                  -0.521
REMARK UNBOUND:                -0.367
REMARK  Name = 
REMARK  7 active torsions:
REMARK  status: ('A' for Active; 'I' for Inactive)
REMARK    1  A    between atoms: C_1  and  C_2
REMARK    2  A    between atoms: C_2  and  C_3
REMARK    3  A    between atoms: C_2  and  N_4
REMARK    4  A    between atoms: C_2  and  C_5
REMARK    5  A    between atoms: C_8  and  C_9
REMARK    6  A    between atoms: C_9  and  N_10
REMARK    7  A    between atoms: C_15  and  C_16
REMARK                            x       y       z     vdW  Elec       q    Type
REMARK                         _______ _______ _______ _____ _____    ______ ____
ROOT
ATOM      1  N   UNL     1      46.380   4.781  13.222  0.00  0.00    +0.000 N 
ATOM      2  C   UNL     1      45.372   3.932  12.854  0.00  0.00    +0.000 A 
ATOM      3  N   UNL     1      44.410   4.563  12.210  0.00  0.00    +0.000 NA
ATOM      4  C   UNL     1      44.810   5.875  12.174  0.00  0.00    +0.000 A 
ATOM      5  C   UNL     1      44.176   7.015  11.664  0.00  0.00    +0.000 A 
ATOM      6  C   UNL     1      44.846   8.237  11.809  0.00  0.00    +0.000 A 
ATOM      7  C   UNL     1      46.104   8.245  12.420  0.00  0.00    +0.000 A 
ATOM      8  N   UNL     1      46.757   7.168  12.934  0.00  0.00    +0.000 NA
ATOM      9  C   UNL     1      46.049   6.032  12.783  0.00  0.00    +0.000 A 
ENDROOT
BRANCH   6  10
ATOM     10  C   UNL     1      44.284   9.537  11.372  0.00  0.00    +0.000 C 
ATOM     11  N   UNL     1      43.774   9.642  10.110  0.00  0.00    +0.000 N 
ATOM     12  O   UNL     1      44.259  10.502  12.127  0.00  0.00    +0.000 OA
ATOM     13  H   UNL     1      43.722   8.897   9.434  0.00  0.00    +0.000 HD
ATOM     14  H   UNL     1      43.366  10.534   9.856  0.00  0.00    +0.000 HD
ENDBRANCH   6  10
BRANCH   1  15
ATOM     15  C   UNL     1      47.505   4.453  14.068  0.00  0.00    +0.000 C 
BRANCH  15  19
ATOM     16  C   UNL     1      48.672   5.267  18.239  0.00  0.00    +0.000 C 
ATOM     17  C   UNL     1      48.665   6.414  17.203  0.00  0.00    +0.000 C 
ATOM     18  C   UNL     1      48.603   5.906  15.767  0.00  0.00    +0.000 C 
ATOM     19  C   UNL     1      47.414   4.971  15.514  0.00  0.00    +0.000 C 
ATOM     20  C   UNL     1      47.402   3.835  16.547  0.00  0.00    +0.000 C 
ATOM     21  C   UNL     1      47.453   4.353  17.986  0.00  0.00    +0.000 C 
BRANCH  16  23
ATOM     22  C   UNL     1      49.498   4.767  20.612  0.00  0.00    +0.000 C 
ATOM     23  C   UNL     1      48.778   5.795  19.717  0.00  0.00    +0.000 C 
ATOM     24  C   UNL     1      47.389   6.052  20.333  0.00  0.00    +0.000 C 
BRANCH  23  25
ATOM     25  N   UNL     1      49.542   7.046  19.773  0.00  0.00    +0.000 NA
ATOM     26  H   UNL     1      49.134   7.732  19.139  0.00  0.00    +0.000 HD
ATOM     27  H   UNL     1      50.490   6.892  19.440  0.00  0.00    +0.000 HD
ENDBRANCH  23  25
ENDBRANCH  16  23
ENDBRANCH  15  19
ENDBRANCH   1  15
TORSDOF 5
ENDMDL
