MODEL 1
REMARK VINA RESULT:    -6.191      0.000      0.000
REMARK INTER + INTRA:          -8.364
REMARK INTER:                  -7.639
REMARK INTRA:                  -0.726
REMARK UNBOUND:                -0.726
REMARK  Name = 
REMARK  6 active torsions:
REMARK  status: ('A' for Active; 'I' for Inactive)
REMARK    1  A    between atoms: C_1  and  O_2
REMARK    2  A    between atoms: O_2  and  C_3
REMARK    3  A    between atoms: C_6  and  C_7
REMARK    4  A    between atoms: C_12  and  C_13
REMARK    5  A    between atoms: N_14  and  C_15
REMARK    6  A    between atoms: C_15  and  C_16
REMARK                            x       y       z     vdW  Elec       q    Type
REMARK                         _______ _______ _______ _____ _____    ______ ____
ROOT
ATOM      1  C   UNL     1      46.928   4.984  13.778  0.00  0.00    +0.000 A 
ATOM      2  N   UNL     1      46.775   3.640  13.736  0.00  0.00    +0.000 NA
ATOM      3  C   UNL     1      45.886   3.092  12.888  0.00  0.00    +0.000 A 
ATOM      4  C   UNL     1      45.070   3.813  12.034  0.00  0.00    +0.000 A 
ATOM      5  C   UNL     1      45.190   5.219  12.076  0.00  0.00    +0.000 A 
ATOM      6  C   UNL     1      44.599   6.291  11.357  0.00  0.00    +0.000 A 
ATOM      7  C   UNL     1      45.109   7.482  11.824  0.00  0.00    +0.000 A 
ATOM      8  C   UNL     1      44.788   8.858  11.352  0.00  0.00    +0.000 C 
ATOM      9  N   UNL     1      46.021   7.183  12.823  0.00  0.00    +0.000 N 
ATOM     10  C   UNL     1      46.113   5.798  12.974  0.00  0.00    +0.000 A 
ENDROOT
BRANCH   4  11
ATOM     11  C   UNL     1      44.193   3.049  11.127  0.00  0.00    +0.000 C 
ATOM     12  N   UNL     1      44.740   2.506  10.000  0.00  0.00    +0.000 N 
ATOM     13  O   UNL     1      42.993   2.942  11.344  0.00  0.00    +0.000 OA
ATOM     14  H   UNL     1      45.651   2.778   9.658  0.00  0.00    +0.000 HD
ATOM     15  H   UNL     1      44.095   2.083   9.345  0.00  0.00    +0.000 HD
ENDBRANCH   4  11
BRANCH   1  17
ATOM     16  C   UNL     1      47.811   4.905  15.924  0.00  0.00    +0.000 C 
ATOM     17  O   UNL     1      47.888   5.502  14.626  0.00  0.00    +0.000 OA
ENDBRANCH   1  17
BRANCH   9  18
ATOM     18  C   UNL     1      46.830   8.189  13.521  0.00  0.00    +0.000 C 
BRANCH  18  19
ATOM     19  C   UNL     1      48.019   8.637  12.730  0.00  0.00    +0.000 A 
ATOM     20  C   UNL     1      48.201   9.945  12.323  0.00  0.00    +0.000 A 
ATOM     21  N   UNL     1      49.269  10.374  11.619  0.00  0.00    +0.000 NA
ATOM     22  C   UNL     1      50.187   9.445  11.322  0.00  0.00    +0.000 A 
ATOM     23  N   UNL     1      50.134   8.151  11.673  0.00  0.00    +0.000 NA
ATOM     24  C   UNL     1      49.046   7.781  12.377  0.00  0.00    +0.000 A 
ENDBRANCH  18  19
ENDBRANCH   9  18
TORSDOF 4
ENDMDL
MODEL 2
REMARK VINA RESULT:    -6.060      2.207      6.049
REMARK INTER + INTRA:          -8.203
REMARK INTER:                  -7.509
REMARK INTRA:                  -0.694
REMARK UNBOUND:                -0.726
REMARK  Name = 
REMARK  6 active torsions:
REMARK  status: ('A' for Active; 'I' for Inactive)
REMARK    1  A    between atoms: C_1  and  O_2
REMARK    2  A    between atoms: O_2  and  C_3
REMARK    3  A    between atoms: C_6  and  C_7
REMARK    4  A    between atoms: C_12  and  C_13
REMARK    5  A    between atoms: N_14  and  C_15
REMARK    6  A    between atoms: C_15  and  C_16
REMARK                            x       y       z     vdW  Elec       q    Type
REMARK                         _______ _______ _______ _____ _____    ______ ____
ROOT
ATOM      1  C   UNL     1      45.803   8.067  12.049  0.00  0.00    +0.000 A 
ATOM      2  N   UNL     1      46.541   9.109  12.497  0.00  0.00    +0.000 NA
ATOM      3  C   UNL     1      47.541   8.896  13.371  0.00  0.00    +0.000 A 
ATOM      4  C   UNL     1      47.885   7.658  13.883  0.00  0.00    +0.000 A 
ATOM      5  C   UNL     1      47.115   6.556  13.453  0.00  0.00    +0.000 A 
ATOM      6  C   UNL     1      47.161   5.156  13.685  0.00  0.00    +0.000 A 
ATOM      7  C   UNL     1      46.145   4.549  12.982  0.00  0.00    +0.000 A 
ATOM      8  C   UNL     1      45.824   3.095  12.917  0.00  0.00    +0.000 C 
ATOM      9  N   UNL     1      45.458   5.539  12.299  0.00  0.00    +0.000 N 
ATOM     10  C   UNL     1      46.055   6.777  12.546  0.00  0.00    +0.000 A 
ENDROOT
BRANCH   4  11
ATOM     11  C   UNL     1      49.049   7.595  14.787  0.00  0.00    +0.000 C 
ATOM     12  N   UNL     1      50.289   7.436  14.238  0.00  0.00    +0.000 N 
ATOM     13  O   UNL     1      48.912   7.632  16.003  0.00  0.00    +0.000 OA
ATOM     14  H   UNL     1      50.421   7.152  13.278  0.00  0.00    +0.000 HD
ATOM     15  H   UNL     1      51.053   7.288  14.885  0.00  0.00    +0.000 HD
ENDBRANCH   4  11
BRANCH   1  17
ATOM     16  C   UNL     1      44.229   9.610  11.321  0.00  0.00    +0.000 C 
ATOM     17  O   UNL     1      44.819   8.323  11.114  0.00  0.00    +0.000 OA
ENDBRANCH   1  17
BRANCH   9  18
ATOM     18  C   UNL     1      44.345   5.279  11.379  0.00  0.00    +0.000 C 
BRANCH  18  19
ATOM     19  C   UNL     1      44.785   4.677  10.081  0.00  0.00    +0.000 A 
ATOM     20  C   UNL     1      45.743   5.255   9.271  0.00  0.00    +0.000 A 
ATOM     21  N   UNL     1      46.163   4.725   8.103  0.00  0.00    +0.000 NA
ATOM     22  C   UNL     1      45.595   3.564   7.749  0.00  0.00    +0.000 A 
ATOM     23  N   UNL     1      44.670   2.897   8.454  0.00  0.00    +0.000 NA
ATOM     24  C   UNL     1      44.291   3.474   9.612  0.00  0.00    +0.000 A 
ENDBRANCH  18  19
ENDBRANCH   9  18
TORSDOF 4
ENDMDL
MODEL 3
REMARK VINA RESULT:    -6.040      2.453      3.210
REMARK INTER + INTRA:          -8.178
REMARK INTER:                  -7.455
REMARK INTRA:                  -0.724
REMARK UNBOUND:                -0.726
REMARK  Name = 
REMARK  6 active torsions:
REMARK  status: ('A' for Active; 'I' for Inactive)
REMARK    1  A    between atoms: C_1  and  O_2
REMARK    2  A    between atoms: O_2  and  C_3
REMARK    3  A    between atoms: C_6  and  C_7
REMARK    4  A    between atoms: C_12  and  C_13
REMARK    5  A    between atoms: N_14  and  C_15
REMARK    6  A    between atoms: C_15  and  C_16
REMARK                            x       y       z     vdW  Elec       q    Type
REMARK                         _______ _______ _______ _____ _____    ______ ____
ROOT
ATOM      1  C   UNL     1      46.683   4.804  13.910  0.00  0.00    +0.000 A 
ATOM      2  N   UNL     1      45.609   3.997  13.742  0.00  0.00    +0.000 NA
ATOM      3  C   UNL     1      44.652   4.330  12.857  0.00  0.00    +0.000 A 
ATOM      4  C   UNL     1      44.664   5.478  12.084  0.00  0.00    +0.000 A 
ATOM      5  C   UNL     1      45.760   6.350  12.258  0.00  0.00    +0.000 A 
ATOM      6  C   UNL     1      46.172   7.565  11.651  0.00  0.00    +0.000 A 
ATOM      7  C   UNL     1      47.356   7.976  12.223  0.00  0.00    +0.000 A 
ATOM      8  C   UNL     1      48.159   9.186  11.888  0.00  0.00    +0.000 C 
ATOM      9  N   UNL     1      47.706   7.037  13.179  0.00  0.00    +0.000 N 
ATOM     10  C   UNL     1      46.760   6.011  13.196  0.00  0.00    +0.000 A 
ENDROOT
BRANCH   4  11
ATOM     11  C   UNL     1      43.564   5.658  11.119  0.00  0.00    +0.000 C 
ATOM     12  N   UNL     1      42.710   6.710  11.297  0.00  0.00    +0.000 N 
ATOM     13  O   UNL     1      43.380   4.862  10.208  0.00  0.00    +0.000 OA
ATOM     14  H   UNL     1      42.672   7.233  12.160  0.00  0.00    +0.000 HD
ATOM     15  H   UNL     1      41.905   6.745  10.685  0.00  0.00    +0.000 HD
ENDBRANCH   4  11
BRANCH   1  17
ATOM     16  C   UNL     1      47.116   4.086  16.075  0.00  0.00    +0.000 C 
ATOM     17  O   UNL     1      47.667   4.400  14.792  0.00  0.00    +0.000 OA
ENDBRANCH   1  17
BRANCH   9  18
ATOM     18  C   UNL     1      48.948   7.087  13.959  0.00  0.00    +0.000 C 
BRANCH  18  19
ATOM     19  C   UNL     1      48.766   7.696  15.314  0.00  0.00    +0.000 A 
ATOM     20  C   UNL     1      48.221   8.952  15.506  0.00  0.00    +0.000 A 
ATOM     21  N   UNL     1      48.037   9.517  16.717  0.00  0.00    +0.000 NA
ATOM     22  C   UNL     1      48.414   8.780  17.771  0.00  0.00    +0.000 A 
ATOM     23  N   UNL     1      48.937   7.546  17.717  0.00  0.00    +0.000 NA
ATOM     24  C   UNL     1      49.096   7.032  16.481  0.00  0.00    +0.000 A 
ENDBRANCH  18  19
ENDBRANCH   9  18
TORSDOF 4
ENDMDL
MODEL 4
REMARK VINA RESULT:    -5.847      2.163      5.510
REMARK INTER + INTRA:          -7.940
REMARK INTER:                  -7.151
REMARK INTRA:                  -0.789
REMARK UNBOUND:                -0.726
REMARK  Name = 
REMARK  6 active torsions:
REMARK  status: ('A' for Active; 'I' for Inactive)
REMARK    1  A    between atoms: C_1  and  O_2
REMARK    2  A    between atoms: O_2  and  C_3
REMARK    3  A    between atoms: C_6  and  C_7
REMARK    4  A    between atoms: C_12  and  C_13
REMARK    5  A    between atoms: N_14  and  C_15
REMARK    6  A    between atoms: C_15  and  C_16
REMARK                            x       y       z     vdW  Elec       q    Type
REMARK                         _______ _______ _______ _____ _____    ______ ____
ROOT
ATOM      1  C   UNL     1      46.694   5.521  13.965  0.00  0.00    +0.000 A 
ATOM      2  N   UNL     1      47.809   5.559  14.731  0.00  0.00    +0.000 NA
ATOM      3  C   UNL     1      48.506   6.703  14.846  0.00  0.00    +0.000 A 
ATOM      4  C   UNL     1      48.179   7.888  14.210  0.00  0.00    +0.000 A 
ATOM      5  C   UNL     1      47.035   7.871  13.383  0.00  0.00    +0.000 A 
ATOM      6  C   UNL     1      46.345   8.846  12.617  0.00  0.00    +0.000 A 
ATOM      7  C   UNL     1      45.262   8.255  12.005  0.00  0.00    +0.000 A 
ATOM      8  C   UNL     1      44.250   8.900  11.121  0.00  0.00    +0.000 C 
ATOM      9  N   UNL     1      45.248   6.921  12.377  0.00  0.00    +0.000 N 
ATOM     10  C   UNL     1      46.308   6.667  13.250  0.00  0.00    +0.000 A 
ENDROOT
BRANCH   4  11
ATOM     11  C   UNL     1      49.020   9.066  14.493  0.00  0.00    +0.000 C 
ATOM     12  N   UNL     1      48.560   9.993  15.384  0.00  0.00    +0.000 N 
ATOM     13  O   UNL     1      50.082   9.244  13.911  0.00  0.00    +0.000 OA
ATOM     14  H   UNL     1      47.598  10.015  15.690  0.00  0.00    +0.000 HD
ATOM     15  H   UNL     1      49.106  10.840  15.476  0.00  0.00    +0.000 HD
ENDBRANCH   4  11
BRANCH   1  17
ATOM     16  C   UNL     1      46.681   3.340  13.170  0.00  0.00    +0.000 C 
ATOM     17  O   UNL     1      45.979   4.340  13.915  0.00  0.00    +0.000 OA
ENDBRANCH   1  17
BRANCH   9  18
ATOM     18  C   UNL     1      44.201   5.971  11.983  0.00  0.00    +0.000 C 
BRANCH  18  19
ATOM     19  C   UNL     1      44.553   5.182  10.761  0.00  0.00    +0.000 A 
ATOM     20  C   UNL     1      45.513   5.590   9.855  0.00  0.00    +0.000 A 
ATOM     21  N   UNL     1      45.855   4.891   8.753  0.00  0.00    +0.000 NA
ATOM     22  C   UNL     1      45.204   3.735   8.567  0.00  0.00    +0.000 A 
ATOM     23  N   UNL     1      44.267   3.224   9.379  0.00  0.00    +0.000 NA
ATOM     24  C   UNL     1      43.968   3.965  10.465  0.00  0.00    +0.000 A 
ENDBRANCH  18  19
ENDBRANCH   9  18
TORSDOF 4
ENDMDL
MODEL 5
REMARK VINA RESULT:    -5.255      1.734      3.209
REMARK INTER + INTRA:          -7.209
REMARK INTER:                  -6.426
REMARK INTRA:                  -0.783
REMARK UNBOUND:                -0.726
REMARK  Name = 
REMARK  6 active torsions:
REMARK  status: ('A' for Active; 'I' for Inactive)
REMARK    1  A    between atoms: C_1  and  O_2
REMARK    2  A    between atoms: O_2  and  C_3
REMARK    3  A    between atoms: C_6  and  C_7
REMARK    4  A    between atoms: C_12  and  C_13
REMARK    5  A    between atoms: N_14  and  C_15
REMARK    6  A    between atoms: C_15  and  C_16
REMARK                            x       y       z     vdW  Elec       q    Type
REMARK                         _______ _______ _______ _____ _____    ______ ____
ROOT
ATOM      1  C   UNL     1      45.798   7.357  11.920  0.00  0.00    +0.000 A 
ATOM      2  N   UNL     1      44.885   6.877  11.045  0.00  0.00    +0.000 NA
ATOM      3  C   UNL     1      44.506   5.587  11.110  0.00  0.00    +0.000 A 
ATOM      4  C   UNL     1      45.001   4.670  12.019  0.00  0.00    +0.000 A 
ATOM      5  C   UNL     1      45.975   5.137  12.928  0.00  0.00    +0.000 A 
ATOM      6  C   UNL     1      46.679   4.560  14.017  0.00  0.00    +0.000 A 
ATOM      7  C   UNL     1      47.518   5.507  14.563  0.00  0.00    +0.000 A 
ATOM      8  C   UNL     1      48.432   5.350  15.729  0.00  0.00    +0.000 C 
ATOM      9  N   UNL     1      47.352   6.678  13.843  0.00  0.00    +0.000 N 
ATOM     10  C   UNL     1      46.385   6.487  12.854  0.00  0.00    +0.000 A 
ENDROOT
BRANCH   4  11
ATOM     11  C   UNL     1      44.432   3.310  11.990  0.00  0.00    +0.000 C 
ATOM     12  N   UNL     1      44.664   2.532  10.892  0.00  0.00    +0.000 N 
ATOM     13  O   UNL     1      43.724   2.897  12.899  0.00  0.00    +0.000 OA
ATOM     14  H   UNL     1      45.021   2.913  10.027  0.00  0.00    +0.000 HD
ATOM     15  H   UNL     1      44.173   1.648  10.853  0.00  0.00    +0.000 HD
ENDBRANCH   4  11
BRANCH   1  17
ATOM     16  C   UNL     1      45.018   9.519  12.247  0.00  0.00    +0.000 C 
ATOM     17  O   UNL     1      46.121   8.698  11.852  0.00  0.00    +0.000 OA
ENDBRANCH   1  17
BRANCH   9  18
ATOM     18  C   UNL     1      48.025   7.941  14.167  0.00  0.00    +0.000 C 
BRANCH  18  19
ATOM     19  C   UNL     1      49.352   8.089  13.490  0.00  0.00    +0.000 A 
ATOM     20  C   UNL     1      49.502   8.066  12.117  0.00  0.00    +0.000 A 
ATOM     21  N   UNL     1      50.686   8.208  11.486  0.00  0.00    +0.000 NA
ATOM     22  C   UNL     1      51.754   8.385  12.275  0.00  0.00    +0.000 A 
ATOM     23  N   UNL     1      51.737   8.442  13.615  0.00  0.00    +0.000 NA
ATOM     24  C   UNL     1      50.526   8.296  14.190  0.00  0.00    +0.000 A 
ENDBRANCH  18  19
ENDBRANCH   9  18
TORSDOF 4
ENDMDL
MODEL 6
REMARK VINA RESULT:    -5.186      2.644      4.589
REMARK INTER + INTRA:          -7.124
REMARK INTER:                  -6.543
REMARK INTRA:                  -0.581
REMARK UNBOUND:                -0.726
REMARK  Name = 
REMARK  6 active torsions:
REMARK  status: ('A' for Active; 'I' for Inactive)
REMARK    1  A    between atoms: C_1  and  O_2
REMARK    2  A    between atoms: O_2  and  C_3
REMARK    3  A    between atoms: C_6  and  C_7
REMARK    4  A    between atoms: C_12  and  C_13
REMARK    5  A    between atoms: N_14  and  C_15
REMARK    6  A    between atoms: C_15  and  C_16
REMARK                            x       y       z     vdW  Elec       q    Type
REMARK                         _______ _______ _______ _____ _____    ______ ____
ROOT
ATOM      1  C   UNL     1      48.764   6.723  14.525  0.00  0.00    +0.000 A 
ATOM      2  N   UNL     1      49.285   6.560  15.764  0.00  0.00    +0.000 NA
ATOM      3  C   UNL     1      48.843   5.564  16.552  0.00  0.00    +0.000 A 
ATOM      4  C   UNL     1      47.851   4.667  16.200  0.00  0.00    +0.000 A 
ATOM      5  C   UNL     1      47.270   4.830  14.923  0.00  0.00    +0.000 A 
ATOM      6  C   UNL     1      46.293   4.122  14.176  0.00  0.00    +0.000 A 
ATOM      7  C   UNL     1      46.123   4.741  12.957  0.00  0.00    +0.000 A 
ATOM      8  C   UNL     1      45.213   4.336  11.848  0.00  0.00    +0.000 C 
ATOM      9  N   UNL     1      46.983   5.826  12.915  0.00  0.00    +0.000 N 
ATOM     10  C   UNL     1      47.723   5.882  14.098  0.00  0.00    +0.000 A 
ENDROOT
BRANCH   4  11
ATOM     11  C   UNL     1      47.528   3.597  17.163  0.00  0.00    +0.000 C 
ATOM     12  N   UNL     1      48.552   3.016  17.854  0.00  0.00    +0.000 N 
ATOM     13  O   UNL     1      46.380   3.198  17.309  0.00  0.00    +0.000 OA
ATOM     14  H   UNL     1      49.519   3.134  17.587  0.00  0.00    +0.000 HD
ATOM     15  H   UNL     1      48.313   2.215  18.425  0.00  0.00    +0.000 HD
ENDBRANCH   4  11
BRANCH   1  17
ATOM     16  C   UNL     1      50.428   8.331  14.337  0.00  0.00    +0.000 C 
ATOM     17  O   UNL     1      49.282   7.726  13.730  0.00  0.00    +0.000 OA
ENDBRANCH   1  17
BRANCH   9  18
ATOM     18  C   UNL     1      47.146   6.698  11.746  0.00  0.00    +0.000 C 
BRANCH  18  19
ATOM     19  C   UNL     1      46.241   7.890  11.773  0.00  0.00    +0.000 A 
ATOM     20  C   UNL     1      44.920   7.840  11.372  0.00  0.00    +0.000 A 
ATOM     21  N   UNL     1      44.084   8.898  11.398  0.00  0.00    +0.000 NA
ATOM     22  C   UNL     1      44.605  10.046  11.850  0.00  0.00    +0.000 A 
ATOM     23  N   UNL     1      45.863  10.219  12.282  0.00  0.00    +0.000 NA
ATOM     24  C   UNL     1      46.652   9.127  12.235  0.00  0.00    +0.000 A 
ENDBRANCH  18  19
ENDBRANCH   9  18
TORSDOF 4
ENDMDL
MODEL 7
REMARK VINA RESULT:    -5.063      2.491      5.266
REMARK INTER + INTRA:          -6.973
REMARK INTER:                  -6.373
REMARK INTRA:                  -0.600
REMARK UNBOUND:                -0.726
REMARK  Name = 
REMARK  6 active torsions:
REMARK  status: ('A' for Active; 'I' for Inactive)
REMARK    1  A    between atoms: C_1  and  O_2
REMARK    2  A    between atoms: O_2  and  C_3
REMARK    3  A    between atoms: C_6  and  C_7
REMARK    4  A    between atoms: C_12  and  C_13
REMARK    5  A    between atoms: N_14  and  C_15
REMARK    6  A    between atoms: C_15  and  C_16
REMARK                            x       y       z     vdW  Elec       q    Type
REMARK                         _______ _______ _______ _____ _____    ______ ____
ROOT
ATOM      1  C   UNL     1      45.495   5.620  12.304  0.00  0.00    +0.000 A 
ATOM      2  N   UNL     1      44.348   5.832  11.617  0.00  0.00    +0.000 NA
ATOM      3  C   UNL     1      43.954   7.088  11.342  0.00  0.00    +0.000 A 
ATOM      4  C   UNL     1      44.636   8.227  11.730  0.00  0.00    +0.000 A 
ATOM      5  C   UNL     1      45.822   8.036  12.471  0.00  0.00    +0.000 A 
ATOM      6  C   UNL     1      46.816   8.900  13.002  0.00  0.00    +0.000 A 
ATOM      7  C   UNL     1      47.775   8.146  13.640  0.00  0.00    +0.000 A 
ATOM      8  C   UNL     1      49.007   8.629  14.326  0.00  0.00    +0.000 C 
ATOM      9  N   UNL     1      47.411   6.815  13.516  0.00  0.00    +0.000 N 
ATOM     10  C   UNL     1      46.233   6.719  12.773  0.00  0.00    +0.000 A 
ENDROOT
BRANCH   4  11
ATOM     11  C   UNL     1      44.094   9.527  11.292  0.00  0.00    +0.000 C 
ATOM     12  N   UNL     1      43.592   9.627  10.026  0.00  0.00    +0.000 N 
ATOM     13  O   UNL     1      44.135  10.510  12.019  0.00  0.00    +0.000 OA
ATOM     14  H   UNL     1      43.765   8.926   9.320  0.00  0.00    +0.000 HD
ATOM     15  H   UNL     1      43.327  10.555   9.719  0.00  0.00    +0.000 HD
ENDBRANCH   4  11
BRANCH   1  17
ATOM     16  C   UNL     1      44.839   3.395  12.206  0.00  0.00    +0.000 C 
ATOM     17  O   UNL     1      45.890   4.314  12.521  0.00  0.00    +0.000 OA
ENDBRANCH   1  17
BRANCH   9  18
ATOM     18  C   UNL     1      48.222   5.695  14.007  0.00  0.00    +0.000 C 
BRANCH  18  19
ATOM     19  C   UNL     1      47.863   5.277  15.400  0.00  0.00    +0.000 A 
ATOM     20  C   UNL     1      47.074   4.177  15.674  0.00  0.00    +0.000 A 
ATOM     21  N   UNL     1      46.747   3.776  16.920  0.00  0.00    +0.000 NA
ATOM     22  C   UNL     1      47.243   4.514  17.923  0.00  0.00    +0.000 A 
ATOM     23  N   UNL     1      48.031   5.591  17.787  0.00  0.00    +0.000 NA
ATOM     24  C   UNL     1      48.326   5.943  16.520  0.00  0.00    +0.000 A 
ENDBRANCH  18  19
ENDBRANCH   9  18
TORSDOF 4
ENDMDL
MODEL 8
REMARK VINA RESULT:    -4.998      2.512      5.249
REMARK INTER + INTRA:          -6.892
REMARK INTER:                  -6.179
REMARK INTRA:                  -0.713
REMARK UNBOUND:                -0.726
REMARK  Name = 
REMARK  6 active torsions:
REMARK  status: ('A' for Active; 'I' for Inactive)
REMARK    1  A    between atoms: C_1  and  O_2
REMARK    2  A    between atoms: O_2  and  C_3
REMARK    3  A    between atoms: C_6  and  C_7
REMARK    4  A    between atoms: C_12  and  C_13
REMARK    5  A    between atoms: N_14  and  C_15
REMARK    6  A    between atoms: C_15  and  C_16
REMARK                            x       y       z     vdW  Elec       q    Type
REMARK                         _______ _______ _______ _____ _____    ______ ____
ROOT
ATOM      1  C   UNL     1      47.281   4.629  14.735  0.00  0.00    +0.000 A 
ATOM      2  N   UNL     1      46.817   3.721  15.626  0.00  0.00    +0.000 NA
ATOM      3  C   UNL     1      47.126   3.843  16.929  0.00  0.00    +0.000 A 
ATOM      4  C   UNL     1      47.920   4.845  17.457  0.00  0.00    +0.000 A 
ATOM      5  C   UNL     1      48.439   5.791  16.546  0.00  0.00    +0.000 A 
ATOM      6  C   UNL     1      49.228   6.965  16.670  0.00  0.00    +0.000 A 
ATOM      7  C   UNL     1      49.427   7.508  15.420  0.00  0.00    +0.000 A 
ATOM      8  C   UNL     1      50.180   8.746  15.073  0.00  0.00    +0.000 C 
ATOM      9  N   UNL     1      48.771   6.702  14.505  0.00  0.00    +0.000 N 
ATOM     10  C   UNL     1      48.128   5.659  15.175  0.00  0.00    +0.000 A 
ENDROOT
BRANCH   4  11
ATOM     11  C   UNL     1      48.109   4.863  18.919  0.00  0.00    +0.000 C 
ATOM     12  N   UNL     1      48.588   3.738  19.526  0.00  0.00    +0.000 N 
ATOM     13  O   UNL     1      47.799   5.841  19.588  0.00  0.00    +0.000 OA
ATOM     14  H   UNL     1      48.617   2.844  19.058  0.00  0.00    +0.000 HD
ATOM     15  H   UNL     1      48.605   3.744  20.538  0.00  0.00    +0.000 HD
ENDBRANCH   4  11
BRANCH   1  17
ATOM     16  C   UNL     1      45.474   4.443  13.289  0.00  0.00    +0.000 C 
ATOM     17  O   UNL     1      46.898   4.496  13.414  0.00  0.00    +0.000 OA
ENDBRANCH   1  17
BRANCH   9  18
ATOM     18  C   UNL     1      48.691   6.990  13.068  0.00  0.00    +0.000 C 
BRANCH  18  19
ATOM     19  C   UNL     1      47.693   8.056  12.738  0.00  0.00    +0.000 A 
ATOM     20  C   UNL     1      46.353   7.956  13.060  0.00  0.00    +0.000 A 
ATOM     21  N   UNL     1      45.438   8.907  12.783  0.00  0.00    +0.000 NA
ATOM     22  C   UNL     1      45.899  10.001  12.161  0.00  0.00    +0.000 A 
ATOM     23  N   UNL     1      47.174  10.224  11.811  0.00  0.00    +0.000 NA
ATOM     24  C   UNL     1      48.044   9.240  12.116  0.00  0.00    +0.000 A 
ENDBRANCH  18  19
ENDBRANCH   9  18
TORSDOF 4
ENDMDL
MODEL 9
REMARK VINA RESULT:    -4.976      2.742      6.111
REMARK INTER + INTRA:          -6.865
REMARK INTER:                  -6.605
REMARK INTRA:                  -0.260
REMARK UNBOUND:                -0.726
REMARK  Name = 
REMARK  6 active torsions:
REMARK  status: ('A' for Active; 'I' for Inactive)
REMARK    1  A    between atoms: C_1  and  O_2
REMARK    2  A    between atoms: O_2  and  C_3
REMARK    3  A    between atoms: C_6  and  C_7
REMARK    4  A    between atoms: C_12  and  C_13
REMARK    5  A    between atoms: N_14  and  C_15
REMARK    6  A    between atoms: C_15  and  C_16
REMARK                            x       y       z     vdW  Elec       q    Type
REMARK                         _______ _______ _______ _____ _____    ______ ____
ROOT
ATOM      1  C   UNL     1      47.749   4.776  16.043  0.00  0.00    +0.000 A 
ATOM      2  N   UNL     1      48.315   5.277  17.166  0.00  0.00    +0.000 NA
ATOM      3  C   UNL     1      48.831   6.519  17.161  0.00  0.00    +0.000 A 
ATOM      4  C   UNL     1      48.849   7.356  16.060  0.00  0.00    +0.000 A 
ATOM      5  C   UNL     1      48.288   6.850  14.867  0.00  0.00    +0.000 A 
ATOM      6  C   UNL     1      48.065   7.378  13.568  0.00  0.00    +0.000 A 
ATOM      7  C   UNL     1      47.459   6.417  12.789  0.00  0.00    +0.000 A 
ATOM      8  C   UNL     1      47.028   6.535  11.368  0.00  0.00    +0.000 C 
ATOM      9  N   UNL     1      47.287   5.289  13.575  0.00  0.00    +0.000 N 
ATOM     10  C   UNL     1      47.757   5.541  14.865  0.00  0.00    +0.000 A 
ENDROOT
BRANCH   4  11
ATOM     11  C   UNL     1      49.401   8.711  16.245  0.00  0.00    +0.000 C 
ATOM     12  N   UNL     1      48.584   9.681  16.749  0.00  0.00    +0.000 N 
ATOM     13  O   UNL     1      50.547   8.982  15.910  0.00  0.00    +0.000 OA
ATOM     14  H   UNL     1      47.582   9.569  16.801  0.00  0.00    +0.000 HD
ATOM     15  H   UNL     1      48.957  10.622  16.763  0.00  0.00    +0.000 HD
ENDBRANCH   4  11
BRANCH   1  17
ATOM     16  C   UNL     1      47.295   2.964  17.421  0.00  0.00    +0.000 C 
ATOM     17  O   UNL     1      47.186   3.516  16.106  0.00  0.00    +0.000 OA
ENDBRANCH   1  17
BRANCH   9  18
ATOM     18  C   UNL     1      46.608   4.070  13.120  0.00  0.00    +0.000 C 
BRANCH  18  19
ATOM     19  C   UNL     1      45.208   4.317  12.651  0.00  0.00    +0.000 A 
ATOM     20  C   UNL     1      44.314   5.111  13.343  0.00  0.00    +0.000 A 
ATOM     21  N   UNL     1      43.052   5.357  12.935  0.00  0.00    +0.000 NA
ATOM     22  C   UNL     1      42.686   4.781  11.781  0.00  0.00    +0.000 A 
ATOM     23  N   UNL     1      43.464   4.005  11.012  0.00  0.00    +0.000 NA
ATOM     24  C   UNL     1      44.715   3.796  11.469  0.00  0.00    +0.000 A 
ENDBRANCH  18  19
ENDBRANCH   9  18
TORSDOF 4
ENDMDL
