MODEL 1
REMARK VINA RESULT:    -7.573      0.000      0.000
REMARK INTER + INTRA:         -11.879
REMARK INTER:                 -10.672
REMARK INTRA:                  -1.208
REMARK UNBOUND:                -1.208
REMARK  Name = 
REMARK  7 active torsions:
REMARK  status: ('A' for Active; 'I' for Inactive)
REMARK    1  A    between atoms: C_2  and  C_3
REMARK    2  A    between atoms: C_8  and  C_9
REMARK    3  A    between atoms: N_11  and  C_12
REMARK    4  A    between atoms: C_12  and  C_13
REMARK    5  A    between atoms: C_16  and  C_17
REMARK    6  A    between atoms: C_17  and  N_18
REMARK    7  A    between atoms: C_19  and  C_21
REMARK                            x       y       z     vdW  Elec       q    Type
REMARK                         _______ _______ _______ _____ _____    ______ ____
ROOT
ATOM      1  C   UNL     1      50.147   7.062  15.715  0.00  0.00    +0.000 A 
ATOM      2  C   UNL     1      50.618   7.784  14.610  0.00  0.00    +0.000 A 
ATOM      3  C   UNL     1      49.836   7.919  13.457  0.00  0.00    +0.000 A 
ATOM      4  C   UNL     1      48.554   7.359  13.392  0.00  0.00    +0.000 A 
ATOM      5  C   UNL     1      48.084   6.634  14.495  0.00  0.00    +0.000 A 
ATOM      6  C   UNL     1      48.867   6.493  15.648  0.00  0.00    +0.000 A 
ENDROOT
BRANCH   1   7
ATOM      7  C   UNL     1      51.004   6.903  16.947  0.00  0.00    +0.000 C 
BRANCH   7  10
ATOM      8  C   UNL     1      51.150   4.654  17.945  0.00  0.00    +0.000 C 
ATOM      9  O   UNL     1      50.205   4.862  18.700  0.00  0.00    +0.000 OA
ATOM     10  N   UNL     1      51.599   5.585  17.035  0.00  0.00    +0.000 N 
ATOM     11  H   UNL     1      52.290   5.352  16.336  0.00  0.00    +0.000 HD
BRANCH   8  17
ATOM     12  C   UNL     1      51.330   2.147  17.395  0.00  0.00    +0.000 A 
ATOM     13  C   UNL     1      52.104   0.972  17.433  0.00  0.00    +0.000 A 
ATOM     14  C   UNL     1      53.348   0.956  18.063  0.00  0.00    +0.000 A 
ATOM     15  C   UNL     1      53.833   2.112  18.663  0.00  0.00    +0.000 A 
ATOM     16  C   UNL     1      53.078   3.286  18.622  0.00  0.00    +0.000 A 
ATOM     17  C   UNL     1      51.820   3.321  17.996  0.00  0.00    +0.000 A 
BRANCH  12  19
ATOM     18  N   UNL     1      49.050   1.978  16.177  0.00  0.00    +0.000 NA
ATOM     19  C   UNL     1      50.069   2.087  16.721  0.00  0.00    +0.000 C 
ENDBRANCH  12  19
ENDBRANCH   8  17
ENDBRANCH   7  10
ENDBRANCH   1   7
BRANCH   4  20
ATOM     20  C   UNL     1      47.706   7.510  12.153  0.00  0.00    +0.000 C 
BRANCH  20  21
ATOM     21  N   UNL     1      46.983   6.299  11.849  0.00  0.00    +0.000 N 
ATOM     22  C   UNL     1      45.611   6.264  11.871  0.00  0.00    +0.000 C 
ATOM     23  O   UNL     1      44.938   7.265  12.104  0.00  0.00    +0.000 OA
ATOM     24  H   UNL     1      47.506   5.431  11.877  0.00  0.00    +0.000 HD
BRANCH  22  25
ATOM     25  C   UNL     1      44.979   4.979  11.539  0.00  0.00    +0.000 A 
ATOM     26  C   UNL     1      44.264   4.291  12.510  0.00  0.00    +0.000 A 
ATOM     27  S   UNL     1      43.557   2.844  11.946  0.00  0.00    +0.000 S 
ATOM     28  C   UNL     1      44.224   3.059  10.396  0.00  0.00    +0.000 A 
ATOM     29  N   UNL     1      44.020   2.142   9.413  0.00  0.00    +0.000 NA
ATOM     30  C   UNL     1      44.608   2.415   8.296  0.00  0.00    +0.000 A 
ATOM     31  N   UNL     1      45.377   3.529   8.072  0.00  0.00    +0.000 N 
ATOM     32  C   UNL     1      45.587   4.494   9.025  0.00  0.00    +0.000 A 
ATOM     33  O   UNL     1      46.252   5.498   8.779  0.00  0.00    +0.000 OA
ATOM     34  C   UNL     1      44.960   4.230  10.305  0.00  0.00    +0.000 A 
ATOM     35  H   UNL     1      45.804   3.689   7.173  0.00  0.00    +0.000 HD
ENDBRANCH  22  25
ENDBRANCH  20  21
ENDBRANCH   4  20
TORSDOF 7
ENDMDL
MODEL 2
REMARK VINA RESULT:    -7.212      1.362      2.118
REMARK INTER + INTRA:         -11.371
REMARK INTER:                 -10.275
REMARK INTRA:                  -1.096
REMARK UNBOUND:                -1.208
REMARK  Name = 
REMARK  7 active torsions:
REMARK  status: ('A' for Active; 'I' for Inactive)
REMARK    1  A    between atoms: C_2  and  C_3
REMARK    2  A    between atoms: C_8  and  C_9
REMARK    3  A    between atoms: N_11  and  C_12
REMARK    4  A    between atoms: C_12  and  C_13
REMARK    5  A    between atoms: C_16  and  C_17
REMARK    6  A    between atoms: C_17  and  N_18
REMARK    7  A    between atoms: C_19  and  C_21
REMARK                            x       y       z     vdW  Elec       q    Type
REMARK                         _______ _______ _______ _____ _____    ______ ____
ROOT
ATOM      1  C   UNL     1      49.632   7.286  16.066  0.00  0.00    +0.000 A 
ATOM      2  C   UNL     1      48.790   6.377  15.412  0.00  0.00    +0.000 A 
ATOM      3  C   UNL     1      48.286   6.657  14.137  0.00  0.00    +0.000 A 
ATOM      4  C   UNL     1      48.634   7.841  13.473  0.00  0.00    +0.000 A 
ATOM      5  C   UNL     1      49.473   8.753  14.129  0.00  0.00    +0.000 A 
ATOM      6  C   UNL     1      49.973   8.476  15.407  0.00  0.00    +0.000 A 
ENDROOT
BRANCH   1   7
ATOM      7  C   UNL     1      50.155   6.987  17.449  0.00  0.00    +0.000 C 
BRANCH   7  10
ATOM      8  C   UNL     1      50.554   4.653  18.135  0.00  0.00    +0.000 C 
ATOM      9  O   UNL     1      49.462   4.567  18.692  0.00  0.00    +0.000 OA
ATOM     10  N   UNL     1      50.971   5.789  17.481  0.00  0.00    +0.000 N 
ATOM     11  H   UNL     1      51.812   5.800  16.921  0.00  0.00    +0.000 HD
BRANCH   8  17
ATOM     12  C   UNL     1      51.219   2.269  17.432  0.00  0.00    +0.000 A 
ATOM     13  C   UNL     1      52.190   1.251  17.447  0.00  0.00    +0.000 A 
ATOM     14  C   UNL     1      53.378   1.406  18.161  0.00  0.00    +0.000 A 
ATOM     15  C   UNL     1      53.609   2.579  18.871  0.00  0.00    +0.000 A 
ATOM     16  C   UNL     1      52.656   3.600  18.854  0.00  0.00    +0.000 A 
ATOM     17  C   UNL     1      51.451   3.460  18.145  0.00  0.00    +0.000 A 
BRANCH  12  19
ATOM     18  N   UNL     1      49.064   1.798  16.074  0.00  0.00    +0.000 NA
ATOM     19  C   UNL     1      50.031   2.039  16.668  0.00  0.00    +0.000 C 
ENDBRANCH  12  19
ENDBRANCH   8  17
ENDBRANCH   7  10
ENDBRANCH   1   7
BRANCH   4  20
ATOM     20  C   UNL     1      48.098   8.142  12.096  0.00  0.00    +0.000 C 
BRANCH  20  21
ATOM     21  N   UNL     1      47.445   6.996  11.514  0.00  0.00    +0.000 N 
ATOM     22  C   UNL     1      46.081   6.949  11.368  0.00  0.00    +0.000 C 
ATOM     23  O   UNL     1      45.361   7.893  11.683  0.00  0.00    +0.000 OA
ATOM     24  H   UNL     1      47.984   6.137  11.459  0.00  0.00    +0.000 HD
BRANCH  22  25
ATOM     25  C   UNL     1      45.524   5.734  10.756  0.00  0.00    +0.000 A 
ATOM     26  C   UNL     1      45.711   5.497   9.400  0.00  0.00    +0.000 A 
ATOM     27  S   UNL     1      45.042   4.022   8.864  0.00  0.00    +0.000 S 
ATOM     28  C   UNL     1      44.434   3.672  10.413  0.00  0.00    +0.000 A 
ATOM     29  N   UNL     1      43.719   2.537  10.644  0.00  0.00    +0.000 NA
ATOM     30  C   UNL     1      43.293   2.412  11.856  0.00  0.00    +0.000 A 
ATOM     31  N   UNL     1      43.525   3.316  12.861  0.00  0.00    +0.000 N 
ATOM     32  C   UNL     1      44.263   4.459  12.681  0.00  0.00    +0.000 A 
ATOM     33  O   UNL     1      44.481   5.230  13.613  0.00  0.00    +0.000 OA
ATOM     34  C   UNL     1      44.755   4.657  11.332  0.00  0.00    +0.000 A 
ATOM     35  H   UNL     1      43.169   3.155  13.791  0.00  0.00    +0.000 HD
ENDBRANCH  22  25
ENDBRANCH  20  21
ENDBRANCH   4  20
TORSDOF 7
ENDMDL
MODEL 3
REMARK VINA RESULT:    -6.576      2.042      2.914
REMARK INTER + INTRA:         -10.475
REMARK INTER:                  -9.523
REMARK INTRA:                  -0.952
REMARK UNBOUND:                -1.208
REMARK  Name = 
REMARK  7 active torsions:
REMARK  status: ('A' for Active; 'I' for Inactive)
REMARK    1  A    between atoms: C_2  and  C_3
REMARK    2  A    between atoms: C_8  and  C_9
REMARK    3  A    between atoms: N_11  and  C_12
REMARK    4  A    between atoms: C_12  and  C_13
REMARK    5  A    between atoms: C_16  and  C_17
REMARK    6  A    between atoms: C_17  and  N_18
REMARK    7  A    between atoms: C_19  and  C_21
REMARK                            x       y       z     vdW  Elec       q    Type
REMARK                         _______ _______ _______ _____ _____    ______ ____
ROOT
ATOM      1  C   UNL     1      48.092   7.915  13.913  0.00  0.00    +0.000 A 
ATOM      2  C   UNL     1      48.244   6.774  13.114  0.00  0.00    +0.000 A 
ATOM      3  C   UNL     1      47.262   6.416  12.183  0.00  0.00    +0.000 A 
ATOM      4  C   UNL     1      46.118   7.205  12.010  0.00  0.00    +0.000 A 
ATOM      5  C   UNL     1      45.963   8.344  12.812  0.00  0.00    +0.000 A 
ATOM      6  C   UNL     1      46.942   8.700  13.748  0.00  0.00    +0.000 A 
ENDROOT
BRANCH   1   7
ATOM      7  C   UNL     1      49.145   8.284  14.930  0.00  0.00    +0.000 C 
BRANCH   7  10
ATOM      8  C   UNL     1      49.446   6.548  16.653  0.00  0.00    +0.000 C 
ATOM      9  O   UNL     1      48.494   6.954  17.314  0.00  0.00    +0.000 OA
ATOM     10  N   UNL     1      49.827   7.120  15.461  0.00  0.00    +0.000 N 
ATOM     11  H   UNL     1      50.527   6.697  14.869  0.00  0.00    +0.000 HD
BRANCH   8  17
ATOM     12  C   UNL     1      49.670   4.068  17.302  0.00  0.00    +0.000 A 
ATOM     13  C   UNL     1      50.513   3.011  17.692  0.00  0.00    +0.000 A 
ATOM     14  C   UNL     1      51.869   3.230  17.935  0.00  0.00    +0.000 A 
ATOM     15  C   UNL     1      52.398   4.508  17.794  0.00  0.00    +0.000 A 
ATOM     16  C   UNL     1      51.573   5.562  17.397  0.00  0.00    +0.000 A 
ATOM     17  C   UNL     1      50.203   5.362  17.152  0.00  0.00    +0.000 A 
BRANCH  12  19
ATOM     18  N   UNL     1      47.163   3.563  16.893  0.00  0.00    +0.000 NA
ATOM     19  C   UNL     1      48.293   3.761  17.061  0.00  0.00    +0.000 C 
ENDBRANCH  12  19
ENDBRANCH   8  17
ENDBRANCH   7  10
ENDBRANCH   1   7
BRANCH   4  20
ATOM     20  C   UNL     1      45.062   6.825  11.002  0.00  0.00    +0.000 C 
BRANCH  20  21
ATOM     21  N   UNL     1      45.370   5.578  10.348  0.00  0.00    +0.000 N 
ATOM     22  C   UNL     1      44.385   4.677  10.027  0.00  0.00    +0.000 C 
ATOM     23  O   UNL     1      43.198   4.910  10.239  0.00  0.00    +0.000 OA
ATOM     24  H   UNL     1      46.338   5.273  10.370  0.00  0.00    +0.000 HD
BRANCH  22  25
ATOM     25  C   UNL     1      44.814   3.441   9.357  0.00  0.00    +0.000 A 
ATOM     26  C   UNL     1      44.196   2.238   9.670  0.00  0.00    +0.000 A 
ATOM     27  S   UNL     1      44.780   0.913   8.768  0.00  0.00    +0.000 S 
ATOM     28  C   UNL     1      45.916   1.891   7.964  0.00  0.00    +0.000 A 
ATOM     29  N   UNL     1      46.773   1.361   7.051  0.00  0.00    +0.000 NA
ATOM     30  C   UNL     1      47.601   2.209   6.539  0.00  0.00    +0.000 A 
ATOM     31  N   UNL     1      47.642   3.544   6.854  0.00  0.00    +0.000 N 
ATOM     32  C   UNL     1      46.779   4.127   7.747  0.00  0.00    +0.000 A 
ATOM     33  O   UNL     1      46.820   5.333   7.979  0.00  0.00    +0.000 OA
ATOM     34  C   UNL     1      45.836   3.215   8.363  0.00  0.00    +0.000 A 
ATOM     35  H   UNL     1      48.310   4.158   6.412  0.00  0.00    +0.000 HD
ENDBRANCH  22  25
ENDBRANCH  20  21
ENDBRANCH   4  20
TORSDOF 7
ENDMDL
MODEL 4
REMARK VINA RESULT:    -6.502      5.656      8.989
REMARK INTER + INTRA:         -10.371
REMARK INTER:                  -9.264
REMARK INTRA:                  -1.107
REMARK UNBOUND:                -1.208
REMARK  Name = 
REMARK  7 active torsions:
REMARK  status: ('A' for Active; 'I' for Inactive)
REMARK    1  A    between atoms: C_2  and  C_3
REMARK    2  A    between atoms: C_8  and  C_9
REMARK    3  A    between atoms: N_11  and  C_12
REMARK    4  A    between atoms: C_12  and  C_13
REMARK    5  A    between atoms: C_16  and  C_17
REMARK    6  A    between atoms: C_17  and  N_18
REMARK    7  A    between atoms: C_19  and  C_21
REMARK                            x       y       z     vdW  Elec       q    Type
REMARK                         _______ _______ _______ _____ _____    ______ ____
ROOT
ATOM      1  C   UNL     1      48.096   8.125  12.184  0.00  0.00    +0.000 A 
ATOM      2  C   UNL     1      48.157   9.456  11.747  0.00  0.00    +0.000 A 
ATOM      3  C   UNL     1      49.389  10.081  11.525  0.00  0.00    +0.000 A 
ATOM      4  C   UNL     1      50.590   9.383  11.708  0.00  0.00    +0.000 A 
ATOM      5  C   UNL     1      50.529   8.053  12.148  0.00  0.00    +0.000 A 
ATOM      6  C   UNL     1      49.297   7.428  12.376  0.00  0.00    +0.000 A 
ENDROOT
BRANCH   1   7
ATOM      7  C   UNL     1      46.764   7.464  12.441  0.00  0.00    +0.000 C 
BRANCH   7  10
ATOM      8  C   UNL     1      45.361   6.005  11.034  0.00  0.00    +0.000 C 
ATOM      9  O   UNL     1      44.391   6.753  11.121  0.00  0.00    +0.000 OA
ATOM     10  N   UNL     1      46.572   6.280  11.627  0.00  0.00    +0.000 N 
ATOM     11  H   UNL     1      47.393   5.722  11.440  0.00  0.00    +0.000 HD
BRANCH   8  17
ATOM     12  C   UNL     1      44.636   3.563  10.675  0.00  0.00    +0.000 A 
ATOM     13  C   UNL     1      44.482   2.486   9.782  0.00  0.00    +0.000 A 
ATOM     14  C   UNL     1      44.911   2.587   8.459  0.00  0.00    +0.000 A 
ATOM     15  C   UNL     1      45.500   3.764   8.012  0.00  0.00    +0.000 A 
ATOM     16  C   UNL     1      45.648   4.843   8.886  0.00  0.00    +0.000 A 
ATOM     17  C   UNL     1      45.226   4.758  10.224  0.00  0.00    +0.000 A 
BRANCH  12  19
ATOM     18  N   UNL     1      43.733   3.282  13.086  0.00  0.00    +0.000 NA
ATOM     19  C   UNL     1      44.161   3.386  12.013  0.00  0.00    +0.000 C 
ENDBRANCH  12  19
ENDBRANCH   8  17
ENDBRANCH   7  10
ENDBRANCH   1   7
BRANCH   4  20
ATOM     20  C   UNL     1      51.919  10.052  11.462  0.00  0.00    +0.000 C 
BRANCH  20  21
ATOM     21  N   UNL     1      52.707   9.335  10.491  0.00  0.00    +0.000 N 
ATOM     22  C   UNL     1      52.701   9.689   9.165  0.00  0.00    +0.000 C 
ATOM     23  O   UNL     1      52.063  10.655   8.753  0.00  0.00    +0.000 OA
ATOM     24  H   UNL     1      53.053   8.420  10.763  0.00  0.00    +0.000 HD
BRANCH  22  25
ATOM     25  C   UNL     1      53.547   8.893   8.265  0.00  0.00    +0.000 A 
ATOM     26  C   UNL     1      54.287   9.526   7.275  0.00  0.00    +0.000 A 
ATOM     27  S   UNL     1      55.250   8.462   6.352  0.00  0.00    +0.000 S 
ATOM     28  C   UNL     1      54.673   7.110   7.209  0.00  0.00    +0.000 A 
ATOM     29  N   UNL     1      55.089   5.853   6.896  0.00  0.00    +0.000 NA
ATOM     30  C   UNL     1      54.550   4.920   7.606  0.00  0.00    +0.000 A 
ATOM     31  N   UNL     1      53.636   5.131   8.607  0.00  0.00    +0.000 N 
ATOM     32  C   UNL     1      53.209   6.382   8.976  0.00  0.00    +0.000 A 
ATOM     33  O   UNL     1      52.416   6.538   9.902  0.00  0.00    +0.000 OA
ATOM     34  C   UNL     1      53.774   7.469   8.200  0.00  0.00    +0.000 A 
ATOM     35  H   UNL     1      53.257   4.357   9.131  0.00  0.00    +0.000 HD
ENDBRANCH  22  25
ENDBRANCH  20  21
ENDBRANCH   4  20
TORSDOF 7
ENDMDL
MODEL 5
REMARK VINA RESULT:    -6.475      4.901      6.100
REMARK INTER + INTRA:         -10.333
REMARK INTER:                  -9.354
REMARK INTRA:                  -0.979
REMARK UNBOUND:                -1.208
REMARK  Name = 
REMARK  7 active torsions:
REMARK  status: ('A' for Active; 'I' for Inactive)
REMARK    1  A    between atoms: C_2  and  C_3
REMARK    2  A    between atoms: C_8  and  C_9
REMARK    3  A    between atoms: N_11  and  C_12
REMARK    4  A    between atoms: C_12  and  C_13
REMARK    5  A    between atoms: C_16  and  C_17
REMARK    6  A    between atoms: C_17  and  N_18
REMARK    7  A    between atoms: C_19  and  C_21
REMARK                            x       y       z     vdW  Elec       q    Type
REMARK                         _______ _______ _______ _____ _____    ______ ____
ROOT
ATOM      1  C   UNL     1      50.316   8.743  11.413  0.00  0.00    +0.000 A 
ATOM      2  C   UNL     1      49.347   9.754  11.460  0.00  0.00    +0.000 A 
ATOM      3  C   UNL     1      48.085   9.511  12.014  0.00  0.00    +0.000 A 
ATOM      4  C   UNL     1      47.771   8.260  12.559  0.00  0.00    +0.000 A 
ATOM      5  C   UNL     1      48.738   7.247  12.508  0.00  0.00    +0.000 A 
ATOM      6  C   UNL     1      49.999   7.486  11.949  0.00  0.00    +0.000 A 
ENDROOT
BRANCH   1   7
ATOM      7  C   UNL     1      51.667   9.006  10.796  0.00  0.00    +0.000 C 
BRANCH   7  10
ATOM      8  C   UNL     1      53.639   7.732  10.043  0.00  0.00    +0.000 C 
ATOM      9  O   UNL     1      54.402   8.669  10.262  0.00  0.00    +0.000 OA
ATOM     10  N   UNL     1      52.287   7.795  10.294  0.00  0.00    +0.000 N 
ATOM     11  H   UNL     1      51.697   6.978  10.230  0.00  0.00    +0.000 HD
BRANCH   8  17
ATOM     12  C   UNL     1      54.152   6.051   8.164  0.00  0.00    +0.000 A 
ATOM     13  C   UNL     1      54.813   4.873   7.768  0.00  0.00    +0.000 A 
ATOM     14  C   UNL     1      55.522   4.106   8.692  0.00  0.00    +0.000 A 
ATOM     15  C   UNL     1      55.577   4.504  10.023  0.00  0.00    +0.000 A 
ATOM     16  C   UNL     1      54.933   5.676  10.425  0.00  0.00    +0.000 A 
ATOM     17  C   UNL     1      54.210   6.460   9.509  0.00  0.00    +0.000 A 
BRANCH  12  19
ATOM     18  N   UNL     1      52.930   7.366   6.298  0.00  0.00    +0.000 NA
ATOM     19  C   UNL     1      53.455   6.790   7.155  0.00  0.00    +0.000 C 
ENDBRANCH  12  19
ENDBRANCH   8  17
ENDBRANCH   7  10
ENDBRANCH   1   7
BRANCH   4  20
ATOM     20  C   UNL     1      46.413   7.997  13.163  0.00  0.00    +0.000 C 
BRANCH  20  21
ATOM     21  N   UNL     1      45.916   6.690  12.814  0.00  0.00    +0.000 N 
ATOM     22  C   UNL     1      45.055   6.512  11.760  0.00  0.00    +0.000 C 
ATOM     23  O   UNL     1      44.706   7.445  11.041  0.00  0.00    +0.000 OA
ATOM     24  H   UNL     1      46.008   5.960  13.513  0.00  0.00    +0.000 HD
BRANCH  22  25
ATOM     25  C   UNL     1      44.617   5.135  11.490  0.00  0.00    +0.000 A 
ATOM     26  C   UNL     1      43.886   4.444  12.448  0.00  0.00    +0.000 A 
ATOM     27  S   UNL     1      43.418   2.879  11.956  0.00  0.00    +0.000 S 
ATOM     28  C   UNL     1      44.221   3.049  10.466  0.00  0.00    +0.000 A 
ATOM     29  N   UNL     1      44.233   2.035   9.558  0.00  0.00    +0.000 NA
ATOM     30  C   UNL     1      44.902   2.288   8.484  0.00  0.00    +0.000 A 
ATOM     31  N   UNL     1      45.555   3.468   8.232  0.00  0.00    +0.000 N 
ATOM     32  C   UNL     1      45.547   4.526   9.105  0.00  0.00    +0.000 A 
ATOM     33  O   UNL     1      46.112   5.582   8.832  0.00  0.00    +0.000 OA
ATOM     34  C   UNL     1      44.820   4.291  10.337  0.00  0.00    +0.000 A 
ATOM     35  H   UNL     1      46.056   3.606   7.367  0.00  0.00    +0.000 HD
ENDBRANCH  22  25
ENDBRANCH  20  21
ENDBRANCH   4  20
TORSDOF 7
ENDMDL
MODEL 6
REMARK VINA RESULT:    -5.779      2.906      3.999
REMARK INTER + INTRA:          -9.351
REMARK INTER:                  -8.583
REMARK INTRA:                  -0.768
REMARK UNBOUND:                -1.208
REMARK  Name = 
REMARK  7 active torsions:
REMARK  status: ('A' for Active; 'I' for Inactive)
REMARK    1  A    between atoms: C_2  and  C_3
REMARK    2  A    between atoms: C_8  and  C_9
REMARK    3  A    between atoms: N_11  and  C_12
REMARK    4  A    between atoms: C_12  and  C_13
REMARK    5  A    between atoms: C_16  and  C_17
REMARK    6  A    between atoms: C_17  and  N_18
REMARK    7  A    between atoms: C_19  and  C_21
REMARK                            x       y       z     vdW  Elec       q    Type
REMARK                         _______ _______ _______ _____ _____    ______ ____
ROOT
ATOM      1  C   UNL     1      48.053   7.940  14.033  0.00  0.00    +0.000 A 
ATOM      2  C   UNL     1      48.074   6.676  13.429  0.00  0.00    +0.000 A 
ATOM      3  C   UNL     1      47.103   6.317  12.486  0.00  0.00    +0.000 A 
ATOM      4  C   UNL     1      46.105   7.223  12.106  0.00  0.00    +0.000 A 
ATOM      5  C   UNL     1      46.082   8.486  12.713  0.00  0.00    +0.000 A 
ATOM      6  C   UNL     1      47.049   8.844  13.661  0.00  0.00    +0.000 A 
ENDROOT
BRANCH   1   7
ATOM      7  C   UNL     1      49.091   8.312  15.064  0.00  0.00    +0.000 C 
BRANCH   7  10
ATOM      8  C   UNL     1      48.553   7.844  17.423  0.00  0.00    +0.000 C 
ATOM      9  O   UNL     1      48.057   8.955  17.593  0.00  0.00    +0.000 OA
ATOM     10  N   UNL     1      49.064   7.430  16.214  0.00  0.00    +0.000 N 
ATOM     11  H   UNL     1      49.349   6.474  16.058  0.00  0.00    +0.000 HD
BRANCH   8  17
ATOM     12  C   UNL     1      49.642   6.034  18.892  0.00  0.00    +0.000 A 
ATOM     13  C   UNL     1      49.577   5.251  20.060  0.00  0.00    +0.000 A 
ATOM     14  C   UNL     1      48.467   5.311  20.901  0.00  0.00    +0.000 A 
ATOM     15  C   UNL     1      47.406   6.153  20.586  0.00  0.00    +0.000 A 
ATOM     16  C   UNL     1      47.464   6.942  19.435  0.00  0.00    +0.000 A 
ATOM     17  C   UNL     1      48.573   6.891  18.573  0.00  0.00    +0.000 A 
BRANCH  12  19
ATOM     18  N   UNL     1      51.738   5.836  17.385  0.00  0.00    +0.000 NA
ATOM     19  C   UNL     1      50.819   5.924  18.087  0.00  0.00    +0.000 C 
ENDBRANCH  12  19
ENDBRANCH   8  17
ENDBRANCH   7  10
ENDBRANCH   1   7
BRANCH   4  20
ATOM     20  C   UNL     1      45.062   6.842  11.085  0.00  0.00    +0.000 C 
BRANCH  20  21
ATOM     21  N   UNL     1      45.386   5.600  10.427  0.00  0.00    +0.000 N 
ATOM     22  C   UNL     1      44.408   4.712  10.057  0.00  0.00    +0.000 C 
ATOM     23  O   UNL     1      43.215   4.950  10.227  0.00  0.00    +0.000 OA
ATOM     24  H   UNL     1      46.351   5.289  10.481  0.00  0.00    +0.000 HD
BRANCH  22  25
ATOM     25  C   UNL     1      44.853   3.482   9.387  0.00  0.00    +0.000 A 
ATOM     26  C   UNL     1      44.254   2.269   9.701  0.00  0.00    +0.000 A 
ATOM     27  S   UNL     1      44.855   0.952   8.799  0.00  0.00    +0.000 S 
ATOM     28  C   UNL     1      45.975   1.946   7.992  0.00  0.00    +0.000 A 
ATOM     29  N   UNL     1      46.839   1.428   7.078  0.00  0.00    +0.000 NA
ATOM     30  C   UNL     1      47.653   2.289   6.564  0.00  0.00    +0.000 A 
ATOM     31  N   UNL     1      47.675   3.624   6.878  0.00  0.00    +0.000 N 
ATOM     32  C   UNL     1      46.805   4.195   7.772  0.00  0.00    +0.000 A 
ATOM     33  O   UNL     1      46.829   5.402   8.003  0.00  0.00    +0.000 OA
ATOM     34  C   UNL     1      45.877   3.269   8.391  0.00  0.00    +0.000 A 
ATOM     35  H   UNL     1      48.332   4.247   6.434  0.00  0.00    +0.000 HD
ENDBRANCH  22  25
ENDBRANCH  20  21
ENDBRANCH   4  20
TORSDOF 7
ENDMDL
MODEL 7
REMARK VINA RESULT:    -5.742      3.469      4.975
REMARK INTER + INTRA:          -9.300
REMARK INTER:                  -8.720
REMARK INTRA:                  -0.580
REMARK UNBOUND:                -1.208
REMARK  Name = 
REMARK  7 active torsions:
REMARK  status: ('A' for Active; 'I' for Inactive)
REMARK    1  A    between atoms: C_2  and  C_3
REMARK    2  A    between atoms: C_8  and  C_9
REMARK    3  A    between atoms: N_11  and  C_12
REMARK    4  A    between atoms: C_12  and  C_13
REMARK    5  A    between atoms: C_16  and  C_17
REMARK    6  A    between atoms: C_17  and  N_18
REMARK    7  A    between atoms: C_19  and  C_21
REMARK                            x       y       z     vdW  Elec       q    Type
REMARK                         _______ _______ _______ _____ _____    ______ ____
ROOT
ATOM      1  C   UNL     1      46.938   7.554  13.076  0.00  0.00    +0.000 A 
ATOM      2  C   UNL     1      47.086   6.162  13.006  0.00  0.00    +0.000 A 
ATOM      3  C   UNL     1      46.227   5.389  12.217  0.00  0.00    +0.000 A 
ATOM      4  C   UNL     1      45.217   5.993  11.456  0.00  0.00    +0.000 A 
ATOM      5  C   UNL     1      45.067   7.384  11.529  0.00  0.00    +0.000 A 
ATOM      6  C   UNL     1      45.922   8.158  12.323  0.00  0.00    +0.000 A 
ENDROOT
BRANCH   1   7
ATOM      7  C   UNL     1      47.855   8.379  13.946  0.00  0.00    +0.000 C 
BRANCH   7  10
ATOM      8  C   UNL     1      48.999   7.344  15.868  0.00  0.00    +0.000 C 
ATOM      9  O   UNL     1      50.056   7.229  15.254  0.00  0.00    +0.000 OA
ATOM     10  N   UNL     1      47.874   7.915  15.319  0.00  0.00    +0.000 N 
ATOM     11  H   UNL     1      47.056   8.118  15.876  0.00  0.00    +0.000 HD
BRANCH   8  17
ATOM     12  C   UNL     1      49.112   7.689  18.415  0.00  0.00    +0.000 A 
ATOM     13  C   UNL     1      48.942   7.139  19.700  0.00  0.00    +0.000 A 
ATOM     14  C   UNL     1      48.613   5.793  19.865  0.00  0.00    +0.000 A 
ATOM     15  C   UNL     1      48.453   4.980  18.748  0.00  0.00    +0.000 A 
ATOM     16  C   UNL     1      48.609   5.518  17.469  0.00  0.00    +0.000 A 
ATOM     17  C   UNL     1      48.944   6.870  17.284  0.00  0.00    +0.000 A 
BRANCH  12  19
ATOM     18  N   UNL     1      49.754  10.194  18.286  0.00  0.00    +0.000 NA
ATOM     19  C   UNL     1      49.438   9.079  18.329  0.00  0.00    +0.000 C 
ENDBRANCH  12  19
ENDBRANCH   8  17
ENDBRANCH   7  10
ENDBRANCH   1   7
BRANCH   4  20
ATOM     20  C   UNL     1      44.295   5.163  10.598  0.00  0.00    +0.000 C 
BRANCH  20  21
ATOM     21  N   UNL     1      45.026   4.260   9.744  0.00  0.00    +0.000 N 
ATOM     22  C   UNL     1      44.664   2.942   9.621  0.00  0.00    +0.000 C 
ATOM     23  O   UNL     1      43.679   2.483  10.194  0.00  0.00    +0.000 OA
ATOM     24  H   UNL     1      45.952   4.555   9.448  0.00  0.00    +0.000 HD
BRANCH  22  25
ATOM     25  C   UNL     1      45.477   2.116   8.718  0.00  0.00    +0.000 A 
ATOM     26  C   UNL     1      45.413   0.731   8.805  0.00  0.00    +0.000 A 
ATOM     27  S   UNL     1      46.381  -0.074   7.654  0.00  0.00    +0.000 S 
ATOM     28  C   UNL     1      46.961   1.399   7.031  0.00  0.00    +0.000 A 
ATOM     29  N   UNL     1      47.867   1.422   6.016  0.00  0.00    +0.000 NA
ATOM     30  C   UNL     1      48.242   2.605   5.662  0.00  0.00    +0.000 A 
ATOM     31  N   UNL     1      47.787   3.769   6.226  0.00  0.00    +0.000 N 
ATOM     32  C   UNL     1      46.853   3.795   7.232  0.00  0.00    +0.000 A 
ATOM     33  O   UNL     1      46.441   4.858   7.690  0.00  0.00    +0.000 OA
ATOM     34  C   UNL     1      46.407   2.491   7.679  0.00  0.00    +0.000 A 
ATOM     35  H   UNL     1      48.115   4.664   5.898  0.00  0.00    +0.000 HD
ENDBRANCH  22  25
ENDBRANCH  20  21
ENDBRANCH   4  20
TORSDOF 7
ENDMDL
MODEL 8
REMARK VINA RESULT:    -5.683      5.528      7.948
REMARK INTER + INTRA:          -9.217
REMARK INTER:                  -8.954
REMARK INTRA:                  -0.263
REMARK UNBOUND:                -1.208
REMARK  Name = 
REMARK  7 active torsions:
REMARK  status: ('A' for Active; 'I' for Inactive)
REMARK    1  A    between atoms: C_2  and  C_3
REMARK    2  A    between atoms: C_8  and  C_9
REMARK    3  A    between atoms: N_11  and  C_12
REMARK    4  A    between atoms: C_12  and  C_13
REMARK    5  A    between atoms: C_16  and  C_17
REMARK    6  A    between atoms: C_17  and  N_18
REMARK    7  A    between atoms: C_19  and  C_21
REMARK                            x       y       z     vdW  Elec       q    Type
REMARK                         _______ _______ _______ _____ _____    ______ ____
ROOT
ATOM      1  C   UNL     1      51.679   9.060  10.490  0.00  0.00    +0.000 A 
ATOM      2  C   UNL     1      51.106  10.072  11.273  0.00  0.00    +0.000 A 
ATOM      3  C   UNL     1      50.163   9.765  12.260  0.00  0.00    +0.000 A 
ATOM      4  C   UNL     1      49.790   8.437  12.506  0.00  0.00    +0.000 A 
ATOM      5  C   UNL     1      50.360   7.426  11.720  0.00  0.00    +0.000 A 
ATOM      6  C   UNL     1      51.300   7.732  10.728  0.00  0.00    +0.000 A 
ENDROOT
BRANCH   1   7
ATOM      7  C   UNL     1      52.681   9.401   9.413  0.00  0.00    +0.000 C 
BRANCH   7  10
ATOM      8  C   UNL     1      52.964   8.035   7.381  0.00  0.00    +0.000 C 
ATOM      9  O   UNL     1      52.391   8.860   6.674  0.00  0.00    +0.000 OA
ATOM     10  N   UNL     1      53.173   8.222   8.728  0.00  0.00    +0.000 N 
ATOM     11  H   UNL     1      53.756   7.597   9.266  0.00  0.00    +0.000 HD
BRANCH   8  17
ATOM     12  C   UNL     1      54.490   6.744   5.761  0.00  0.00    +0.000 A 
ATOM     13  C   UNL     1      54.959   5.498   5.305  0.00  0.00    +0.000 A 
ATOM     14  C   UNL     1      54.435   4.308   5.810  0.00  0.00    +0.000 A 
ATOM     15  C   UNL     1      53.434   4.349   6.774  0.00  0.00    +0.000 A 
ATOM     16  C   UNL     1      52.969   5.580   7.241  0.00  0.00    +0.000 A 
ATOM     17  C   UNL     1      53.482   6.789   6.742  0.00  0.00    +0.000 A 
BRANCH  12  19
ATOM     18  N   UNL     1      55.513   8.892   4.739  0.00  0.00    +0.000 NA
ATOM     19  C   UNL     1      55.086   7.919   5.203  0.00  0.00    +0.000 C 
ENDBRANCH  12  19
ENDBRANCH   8  17
ENDBRANCH   7  10
ENDBRANCH   1   7
BRANCH   4  20
ATOM     20  C   UNL     1      48.778   8.103  13.574  0.00  0.00    +0.000 C 
BRANCH  20  21
ATOM     21  N   UNL     1      47.517   7.692  13.007  0.00  0.00    +0.000 N 
ATOM     22  C   UNL     1      47.172   6.367  12.919  0.00  0.00    +0.000 C 
ATOM     23  O   UNL     1      47.896   5.476  13.357  0.00  0.00    +0.000 OA
ATOM     24  H   UNL     1      47.019   8.377  12.448  0.00  0.00    +0.000 HD
BRANCH  22  25
ATOM     25  C   UNL     1      45.860   6.064  12.330  0.00  0.00    +0.000 A 
ATOM     26  C   UNL     1      45.108   7.083  11.761  0.00  0.00    +0.000 A 
ATOM     27  S   UNL     1      43.636   6.553  11.082  0.00  0.00    +0.000 S 
ATOM     28  C   UNL     1      43.927   4.949  11.569  0.00  0.00    +0.000 A 
ATOM     29  N   UNL     1      43.023   3.965  11.314  0.00  0.00    +0.000 NA
ATOM     30  C   UNL     1      43.357   2.802  11.764  0.00  0.00    +0.000 A 
ATOM     31  N   UNL     1      44.520   2.533  12.440  0.00  0.00    +0.000 N 
ATOM     32  C   UNL     1      45.473   3.487  12.694  0.00  0.00    +0.000 A 
ATOM     33  O   UNL     1      46.521   3.203  13.271  0.00  0.00    +0.000 OA
ATOM     34  C   UNL     1      45.141   4.817  12.222  0.00  0.00    +0.000 A 
ATOM     35  H   UNL     1      44.727   1.599  12.759  0.00  0.00    +0.000 HD
ENDBRANCH  22  25
ENDBRANCH  20  21
ENDBRANCH   4  20
TORSDOF 7
ENDMDL
MODEL 9
REMARK VINA RESULT:    -5.195     11.231     13.810
REMARK INTER + INTRA:          -8.529
REMARK INTER:                  -7.216
REMARK INTRA:                  -1.313
REMARK UNBOUND:                -1.208
REMARK  Name = 
REMARK  7 active torsions:
REMARK  status: ('A' for Active; 'I' for Inactive)
REMARK    1  A    between atoms: C_2  and  C_3
REMARK    2  A    between atoms: C_8  and  C_9
REMARK    3  A    between atoms: N_11  and  C_12
REMARK    4  A    between atoms: C_12  and  C_13
REMARK    5  A    between atoms: C_16  and  C_17
REMARK    6  A    between atoms: C_17  and  N_18
REMARK    7  A    between atoms: C_19  and  C_21
REMARK                            x       y       z     vdW  Elec       q    Type
REMARK                         _______ _______ _______ _____ _____    ______ ____
ROOT
ATOM      1  C   UNL     1      41.249  -3.693  14.548  0.00  0.00    +0.000 A 
ATOM      2  C   UNL     1      40.439  -2.585  14.835  0.00  0.00    +0.000 A 
ATOM      3  C   UNL     1      40.129  -2.248  16.157  0.00  0.00    +0.000 A 
ATOM      4  C   UNL     1      40.643  -2.994  17.226  0.00  0.00    +0.000 A 
ATOM      5  C   UNL     1      41.449  -4.104  16.939  0.00  0.00    +0.000 A 
ATOM      6  C   UNL     1      41.756  -4.446  15.616  0.00  0.00    +0.000 A 
ENDROOT
BRANCH   1   7
ATOM      7  C   UNL     1      41.562  -4.062  13.119  0.00  0.00    +0.000 C 
BRANCH   7  10
ATOM      8  C   UNL     1      40.258  -2.787  11.462  0.00  0.00    +0.000 C 
ATOM      9  O   UNL     1      41.085  -1.881  11.419  0.00  0.00    +0.000 OA
ATOM     10  N   UNL     1      40.415  -3.906  12.247  0.00  0.00    +0.000 N 
ATOM     11  H   UNL     1      39.791  -4.697  12.174  0.00  0.00    +0.000 HD
BRANCH   8  17
ATOM     12  C   UNL     1      37.917  -1.889  10.887  0.00  0.00    +0.000 A 
ATOM     13  C   UNL     1      36.873  -1.799   9.946  0.00  0.00    +0.000 A 
ATOM     14  C   UNL     1      36.941  -2.489   8.736  0.00  0.00    +0.000 A 
ATOM     15  C   UNL     1      38.050  -3.278   8.452  0.00  0.00    +0.000 A 
ATOM     16  C   UNL     1      39.095  -3.365   9.374  0.00  0.00    +0.000 A 
ATOM     17  C   UNL     1      39.043  -2.681  10.600  0.00  0.00    +0.000 A 
BRANCH  12  19
ATOM     18  N   UNL     1      37.705  -0.499  13.063  0.00  0.00    +0.000 NA
ATOM     19  C   UNL     1      37.778  -1.143  12.101  0.00  0.00    +0.000 C 
ENDBRANCH  12  19
ENDBRANCH   8  17
ENDBRANCH   7  10
ENDBRANCH   1   7
BRANCH   4  20
ATOM     20  C   UNL     1      40.315  -2.629  18.652  0.00  0.00    +0.000 C 
BRANCH  20  21
ATOM     21  N   UNL     1      40.058  -1.217  18.797  0.00  0.00    +0.000 N 
ATOM     22  C   UNL     1      39.068  -0.754  19.628  0.00  0.00    +0.000 C 
ATOM     23  O   UNL     1      38.390  -1.512  20.316  0.00  0.00    +0.000 OA
ATOM     24  H   UNL     1      40.442  -0.604  18.086  0.00  0.00    +0.000 HD
BRANCH  22  25
ATOM     25  C   UNL     1      38.899   0.704  19.703  0.00  0.00    +0.000 A 
ATOM     26  C   UNL     1      39.134   1.365  20.901  0.00  0.00    +0.000 A 
ATOM     27  S   UNL     1      38.938   3.057  20.802  0.00  0.00    +0.000 S 
ATOM     28  C   UNL     1      38.481   2.962  19.166  0.00  0.00    +0.000 A 
ATOM     29  N   UNL     1      38.146   4.080  18.467  0.00  0.00    +0.000 NA
ATOM     30  C   UNL     1      37.791   3.860  17.246  0.00  0.00    +0.000 A 
ATOM     31  N   UNL     1      37.748   2.622  16.657  0.00  0.00    +0.000 N 
ATOM     32  C   UNL     1      38.104   1.471  17.314  0.00  0.00    +0.000 A 
ATOM     33  O   UNL     1      38.089   0.382  16.745  0.00  0.00    +0.000 OA
ATOM     34  C   UNL     1      38.498   1.659  18.697  0.00  0.00    +0.000 A 
ATOM     35  H   UNL     1      37.469   2.518  15.693  0.00  0.00    +0.000 HD
ENDBRANCH  22  25
ENDBRANCH  20  21
ENDBRANCH   4  20
TORSDOF 7
ENDMDL
