MODEL 1
REMARK VINA RESULT:    -8.212      0.000      0.000
REMARK INTER + INTRA:         -12.674
REMARK INTER:                 -11.573
REMARK INTRA:                  -1.102
REMARK UNBOUND:                -1.102
REMARK  Name = 
REMARK  7 active torsions:
REMARK  status: ('A' for Active; 'I' for Inactive)
REMARK    1  A    between atoms: C_2  and  C_3
REMARK    2  A    between atoms: C_2  and  C_25
REMARK    3  A    between atoms: C_3  and  O_4
REMARK    4  A    between atoms: O_4  and  C_5
REMARK    5  A    between atoms: C_8  and  C_9
REMARK    6  A    between atoms: C_9  and  N_10
REMARK    7  A    between atoms: C_11  and  C_13
REMARK                            x       y       z     vdW  Elec       q    Type
REMARK                         _______ _______ _______ _____ _____    ______ ____
ROOT
ATOM      1  C   UNL     1      44.480   5.370  11.043  0.00  0.00    +0.000 A 
ATOM      2  C   UNL     1      45.648   5.776  10.418  0.00  0.00    +0.000 A 
ATOM      3  C   UNL     1      46.522   6.600  11.124  0.00  0.00    +0.000 A 
ATOM      4  C   UNL     1      46.193   7.001  12.421  0.00  0.00    +0.000 A 
ATOM      5  C   UNL     1      44.966   6.583  12.929  0.00  0.00    +0.000 A 
ATOM      6  N   UNL     1      44.106   5.771  12.275  0.00  0.00    +0.000 NA
ENDROOT
BRANCH   1   7
ATOM      7  O   UNL     1      43.672   4.507  10.341  0.00  0.00    +0.000 OA
BRANCH   7   8
ATOM      8  C   UNL     1      44.152   4.270   9.017  0.00  0.00    +0.000 C 
BRANCH   8  10
ATOM      9  O   UNL     1      44.302   1.923   9.639  0.00  0.00    +0.000 OA
ATOM     10  C   UNL     1      44.721   2.862   8.962  0.00  0.00    +0.000 C 
BRANCH  10  11
ATOM     11  C   UNL     1      45.830   2.624   8.009  0.00  0.00    +0.000 A 
ATOM     12  C   UNL     1      46.461   1.388   7.986  0.00  0.00    +0.000 A 
ATOM     13  N   UNL     1      47.481   1.107   7.132  0.00  0.00    +0.000 NA
ATOM     14  C   UNL     1      47.839   2.116   6.308  0.00  0.00    +0.000 A 
ATOM     15  C   UNL     1      47.208   3.350   6.332  0.00  0.00    +0.000 A 
ATOM     16  N   UNL     1      46.189   3.637   7.177  0.00  0.00    +0.000 NA
ENDBRANCH  10  11
ENDBRANCH   8  10
ENDBRANCH   7   8
ENDBRANCH   1   7
BRANCH   4  17
ATOM     17  C   UNL     1      47.101   7.867  13.241  0.00  0.00    +0.000 C 
BRANCH  17  18
ATOM     18  N   UNL     1      47.476   7.227  14.474  0.00  0.00    +0.000 N 
ATOM     19  C   UNL     1      48.770   6.825  14.689  0.00  0.00    +0.000 C 
ATOM     20  O   UNL     1      49.658   7.035  13.868  0.00  0.00    +0.000 OA
ATOM     21  H   UNL     1      46.734   6.853  15.058  0.00  0.00    +0.000 HD
BRANCH  19  22
ATOM     22  C   UNL     1      49.054   6.182  15.977  0.00  0.00    +0.000 A 
ATOM     23  C   UNL     1      50.072   6.677  16.781  0.00  0.00    +0.000 A 
ATOM     24  S   UNL     1      50.246   5.843  18.258  0.00  0.00    +0.000 S 
ATOM     25  C   UNL     1      49.001   4.755  17.852  0.00  0.00    +0.000 A 
ATOM     26  N   UNL     1      48.657   3.742  18.691  0.00  0.00    +0.000 NA
ATOM     27  C   UNL     1      47.725   2.970  18.239  0.00  0.00    +0.000 A 
ATOM     28  N   UNL     1      47.099   3.125  17.029  0.00  0.00    +0.000 N 
ATOM     29  C   UNL     1      47.383   4.157  16.170  0.00  0.00    +0.000 A 
ATOM     30  O   UNL     1      46.765   4.308  15.120  0.00  0.00    +0.000 OA
ATOM     31  C   UNL     1      48.444   5.039  16.616  0.00  0.00    +0.000 A 
ATOM     32  H   UNL     1      46.367   2.492  16.743  0.00  0.00    +0.000 HD
ENDBRANCH  19  22
ENDBRANCH  17  18
ENDBRANCH   4  17
TORSDOF 7
ENDMDL
MODEL 2
REMARK VINA RESULT:    -7.958      1.555      1.892
REMARK INTER + INTRA:         -12.316
REMARK INTER:                 -11.364
REMARK INTRA:                  -0.952
REMARK UNBOUND:                -1.102
REMARK  Name = 
REMARK  7 active torsions:
REMARK  status: ('A' for Active; 'I' for Inactive)
REMARK    1  A    between atoms: C_2  and  C_3
REMARK    2  A    between atoms: C_2  and  C_25
REMARK    3  A    between atoms: C_3  and  O_4
REMARK    4  A    between atoms: O_4  and  C_5
REMARK    5  A    between atoms: C_8  and  C_9
REMARK    6  A    between atoms: C_9  and  N_10
REMARK    7  A    between atoms: C_11  and  C_13
REMARK                            x       y       z     vdW  Elec       q    Type
REMARK                         _______ _______ _______ _____ _____    ______ ____
ROOT
ATOM      1  C   UNL     1      44.881   5.161  11.462  0.00  0.00    +0.000 A 
ATOM      2  C   UNL     1      45.624   6.140  10.821  0.00  0.00    +0.000 A 
ATOM      3  C   UNL     1      46.757   6.632  11.464  0.00  0.00    +0.000 A 
ATOM      4  C   UNL     1      47.101   6.144  12.726  0.00  0.00    +0.000 A 
ATOM      5  C   UNL     1      46.249   5.205  13.303  0.00  0.00    +0.000 A 
ATOM      6  N   UNL     1      45.153   4.696  12.698  0.00  0.00    +0.000 NA
ENDROOT
BRANCH   1   7
ATOM      7  O   UNL     1      43.804   4.652  10.772  0.00  0.00    +0.000 OA
BRANCH   7   8
ATOM      8  C   UNL     1      44.132   4.326   9.420  0.00  0.00    +0.000 C 
BRANCH   8  10
ATOM      9  O   UNL     1      43.906   1.974   9.999  0.00  0.00    +0.000 OA
ATOM     10  C   UNL     1      44.490   2.850   9.361  0.00  0.00    +0.000 C 
BRANCH  10  11
ATOM     11  C   UNL     1      45.594   2.465   8.453  0.00  0.00    +0.000 A 
ATOM     12  C   UNL     1      46.211   3.434   7.674  0.00  0.00    +0.000 A 
ATOM     13  N   UNL     1      47.233   3.145   6.825  0.00  0.00    +0.000 NA
ATOM     14  C   UNL     1      47.604   1.846   6.790  0.00  0.00    +0.000 A 
ATOM     15  C   UNL     1      46.987   0.878   7.568  0.00  0.00    +0.000 A 
ATOM     16  N   UNL     1      45.971   1.160   8.419  0.00  0.00    +0.000 NA
ENDBRANCH  10  11
ENDBRANCH   8  10
ENDBRANCH   7   8
ENDBRANCH   1   7
BRANCH   4  17
ATOM     17  C   UNL     1      48.319   6.616  13.458  0.00  0.00    +0.000 C 
BRANCH  17  18
ATOM     18  N   UNL     1      48.100   6.664  14.881  0.00  0.00    +0.000 N 
ATOM     19  C   UNL     1      49.157   6.759  15.749  0.00  0.00    +0.000 C 
ATOM     20  O   UNL     1      50.316   6.854  15.352  0.00  0.00    +0.000 OA
ATOM     21  H   UNL     1      47.193   6.369  15.230  0.00  0.00    +0.000 HD
BRANCH  19  22
ATOM     22  C   UNL     1      48.833   6.800  17.180  0.00  0.00    +0.000 A 
ATOM     23  C   UNL     1      48.500   8.011  17.773  0.00  0.00    +0.000 A 
ATOM     24  S   UNL     1      48.113   7.878  19.428  0.00  0.00    +0.000 S 
ATOM     25  C   UNL     1      48.428   6.205  19.424  0.00  0.00    +0.000 A 
ATOM     26  N   UNL     1      48.317   5.471  20.562  0.00  0.00    +0.000 NA
ATOM     27  C   UNL     1      48.624   4.224  20.424  0.00  0.00    +0.000 A 
ATOM     28  N   UNL     1      49.024   3.644  19.247  0.00  0.00    +0.000 N 
ATOM     29  C   UNL     1      49.110   4.336  18.065  0.00  0.00    +0.000 A 
ATOM     30  O   UNL     1      49.411   3.779  17.014  0.00  0.00    +0.000 OA
ATOM     31  C   UNL     1      48.802   5.749  18.170  0.00  0.00    +0.000 A 
ATOM     32  H   UNL     1      49.237   2.657  19.204  0.00  0.00    +0.000 HD
ENDBRANCH  19  22
ENDBRANCH  17  18
ENDBRANCH   4  17
TORSDOF 7
ENDMDL
MODEL 3
REMARK VINA RESULT:    -7.947      2.928      3.868
REMARK INTER + INTRA:         -12.300
REMARK INTER:                 -11.277
REMARK INTRA:                  -1.023
REMARK UNBOUND:                -1.102
REMARK  Name = 
REMARK  7 active torsions:
REMARK  status: ('A' for Active; 'I' for Inactive)
REMARK    1  A    between atoms: C_2  and  C_3
REMARK    2  A    between atoms: C_2  and  C_25
REMARK    3  A    between atoms: C_3  and  O_4
REMARK    4  A    between atoms: O_4  and  C_5
REMARK    5  A    between atoms: C_8  and  C_9
REMARK    6  A    between atoms: C_9  and  N_10
REMARK    7  A    between atoms: C_11  and  C_13
REMARK                            x       y       z     vdW  Elec       q    Type
REMARK                         _______ _______ _______ _____ _____    ______ ____
ROOT
ATOM      1  C   UNL     1      46.474   4.290  13.837  0.00  0.00    +0.000 A 
ATOM      2  C   UNL     1      47.020   5.420  13.250  0.00  0.00    +0.000 A 
ATOM      3  C   UNL     1      47.900   6.194  14.002  0.00  0.00    +0.000 A 
ATOM      4  C   UNL     1      48.193   5.822  15.316  0.00  0.00    +0.000 A 
ATOM      5  C   UNL     1      47.541   4.702  15.825  0.00  0.00    +0.000 A 
ATOM      6  N   UNL     1      46.696   3.923  15.115  0.00  0.00    +0.000 NA
ENDROOT
BRANCH   1   7
ATOM      7  O   UNL     1      45.658   3.515  13.044  0.00  0.00    +0.000 OA
BRANCH   7   8
ATOM      8  C   UNL     1      44.609   4.273  12.442  0.00  0.00    +0.000 C 
BRANCH   8  10
ATOM      9  O   UNL     1      42.992   2.810  11.362  0.00  0.00    +0.000 OA
ATOM     10  C   UNL     1      44.035   3.461  11.293  0.00  0.00    +0.000 C 
BRANCH  10  11
ATOM     11  C   UNL     1      44.780   3.492  10.013  0.00  0.00    +0.000 A 
ATOM     12  C   UNL     1      45.191   4.709   9.488  0.00  0.00    +0.000 A 
ATOM     13  N   UNL     1      45.882   4.803   8.322  0.00  0.00    +0.000 NA
ATOM     14  C   UNL     1      46.139   3.628   7.706  0.00  0.00    +0.000 A 
ATOM     15  C   UNL     1      45.728   2.412   8.231  0.00  0.00    +0.000 A 
ATOM     16  N   UNL     1      45.042   2.310   9.395  0.00  0.00    +0.000 NA
ENDBRANCH  10  11
ENDBRANCH   8  10
ENDBRANCH   7   8
ENDBRANCH   1   7
BRANCH   4  17
ATOM     17  C   UNL     1      49.149   6.599  16.169  0.00  0.00    +0.000 C 
BRANCH  17  18
ATOM     18  N   UNL     1      50.226   5.773  16.649  0.00  0.00    +0.000 N 
ATOM     19  C   UNL     1      50.281   5.388  17.964  0.00  0.00    +0.000 C 
ATOM     20  O   UNL     1      49.399   5.689  18.765  0.00  0.00    +0.000 OA
ATOM     21  H   UNL     1      51.060   5.701  16.074  0.00  0.00    +0.000 HD
BRANCH  19  22
ATOM     22  C   UNL     1      51.417   4.547  18.358  0.00  0.00    +0.000 A 
ATOM     23  C   UNL     1      52.432   5.087  19.137  0.00  0.00    +0.000 A 
ATOM     24  S   UNL     1      53.655   3.968  19.539  0.00  0.00    +0.000 S 
ATOM     25  C   UNL     1      52.898   2.736  18.641  0.00  0.00    +0.000 A 
ATOM     26  N   UNL     1      53.457   1.501  18.541  0.00  0.00    +0.000 NA
ATOM     27  C   UNL     1      52.797   0.676  17.797  0.00  0.00    +0.000 A 
ATOM     28  N   UNL     1      51.624   0.973  17.152  0.00  0.00    +0.000 N 
ATOM     29  C   UNL     1      51.002   2.191  17.259  0.00  0.00    +0.000 A 
ATOM     30  O   UNL     1      49.920   2.410  16.720  0.00  0.00    +0.000 OA
ATOM     31  C   UNL     1      51.715   3.165  18.061  0.00  0.00    +0.000 A 
ATOM     32  H   UNL     1      51.151   0.275  16.596  0.00  0.00    +0.000 HD
ENDBRANCH  19  22
ENDBRANCH  17  18
ENDBRANCH   4  17
TORSDOF 7
ENDMDL
MODEL 4
REMARK VINA RESULT:    -7.645      2.136      2.691
REMARK INTER + INTRA:         -11.875
REMARK INTER:                 -10.918
REMARK INTRA:                  -0.957
REMARK UNBOUND:                -1.102
REMARK  Name = 
REMARK  7 active torsions:
REMARK  status: ('A' for Active; 'I' for Inactive)
REMARK    1  A    between atoms: C_2  and  C_3
REMARK    2  A    between atoms: C_2  and  C_25
REMARK    3  A    between atoms: C_3  and  O_4
REMARK    4  A    between atoms: O_4  and  C_5
REMARK    5  A    between atoms: C_8  and  C_9
REMARK    6  A    between atoms: C_9  and  N_10
REMARK    7  A    between atoms: C_11  and  C_13
REMARK                            x       y       z     vdW  Elec       q    Type
REMARK                         _______ _______ _______ _____ _____    ______ ____
ROOT
ATOM      1  C   UNL     1      44.888   5.002  11.442  0.00  0.00    +0.000 A 
ATOM      2  C   UNL     1      45.159   4.355  12.637  0.00  0.00    +0.000 A 
ATOM      3  C   UNL     1      46.190   4.847  13.434  0.00  0.00    +0.000 A 
ATOM      4  C   UNL     1      46.921   5.957  13.006  0.00  0.00    +0.000 A 
ATOM      5  C   UNL     1      46.603   6.492  11.760  0.00  0.00    +0.000 A 
ATOM      6  N   UNL     1      45.599   6.047  10.973  0.00  0.00    +0.000 NA
ENDROOT
BRANCH   1   7
ATOM      7  O   UNL     1      43.823   4.528  10.710  0.00  0.00    +0.000 OA
BRANCH   7   8
ATOM      8  C   UNL     1      44.179   4.244   9.357  0.00  0.00    +0.000 C 
BRANCH   8  10
ATOM      9  O   UNL     1      43.920   1.874   9.840  0.00  0.00    +0.000 OA
ATOM     10  C   UNL     1      44.532   2.769   9.257  0.00  0.00    +0.000 C 
BRANCH  10  11
ATOM     11  C   UNL     1      45.667   2.411   8.377  0.00  0.00    +0.000 A 
ATOM     12  C   UNL     1      46.302   3.399   7.639  0.00  0.00    +0.000 A 
ATOM     13  N   UNL     1      47.353   3.134   6.817  0.00  0.00    +0.000 NA
ATOM     14  C   UNL     1      47.735   1.839   6.767  0.00  0.00    +0.000 A 
ATOM     15  C   UNL     1      47.100   0.852   7.506  0.00  0.00    +0.000 A 
ATOM     16  N   UNL     1      46.055   1.109   8.329  0.00  0.00    +0.000 NA
ENDBRANCH  10  11
ENDBRANCH   8  10
ENDBRANCH   7   8
ENDBRANCH   1   7
BRANCH   4  17
ATOM     17  C   UNL     1      48.026   6.548  13.828  0.00  0.00    +0.000 C 
BRANCH  17  18
ATOM     18  N   UNL     1      47.898   6.201  15.219  0.00  0.00    +0.000 N 
ATOM     19  C   UNL     1      48.991   6.214  16.048  0.00  0.00    +0.000 C 
ATOM     20  O   UNL     1      50.100   6.563  15.652  0.00  0.00    +0.000 OA
ATOM     21  H   UNL     1      47.060   5.706  15.508  0.00  0.00    +0.000 HD
BRANCH  19  22
ATOM     22  C   UNL     1      48.760   5.845  17.449  0.00  0.00    +0.000 A 
ATOM     23  C   UNL     1      48.973   4.534  17.857  0.00  0.00    +0.000 A 
ATOM     24  S   UNL     1      48.698   4.282  19.521  0.00  0.00    +0.000 S 
ATOM     25  C   UNL     1      48.233   5.904  19.745  0.00  0.00    +0.000 A 
ATOM     26  N   UNL     1      47.834   6.354  20.964  0.00  0.00    +0.000 NA
ATOM     27  C   UNL     1      47.471   7.594  20.982  0.00  0.00    +0.000 A 
ATOM     28  N   UNL     1      47.481   8.426  19.892  0.00  0.00    +0.000 N 
ATOM     29  C   UNL     1      47.916   8.028  18.653  0.00  0.00    +0.000 A 
ATOM     30  O   UNL     1      47.972   8.811  17.709  0.00  0.00    +0.000 OA
ATOM     31  C   UNL     1      48.309   6.635  18.571  0.00  0.00    +0.000 A 
ATOM     32  H   UNL     1      47.197   9.392  19.979  0.00  0.00    +0.000 HD
ENDBRANCH  19  22
ENDBRANCH  17  18
ENDBRANCH   4  17
TORSDOF 7
ENDMDL
MODEL 5
REMARK VINA RESULT:    -6.974      5.074      9.340
REMARK INTER + INTRA:         -10.930
REMARK INTER:                  -9.862
REMARK INTRA:                  -1.068
REMARK UNBOUND:                -1.102
REMARK  Name = 
REMARK  7 active torsions:
REMARK  status: ('A' for Active; 'I' for Inactive)
REMARK    1  A    between atoms: C_2  and  C_3
REMARK    2  A    between atoms: C_2  and  C_25
REMARK    3  A    between atoms: C_3  and  O_4
REMARK    4  A    between atoms: O_4  and  C_5
REMARK    5  A    between atoms: C_8  and  C_9
REMARK    6  A    between atoms: C_9  and  N_10
REMARK    7  A    between atoms: C_11  and  C_13
REMARK                            x       y       z     vdW  Elec       q    Type
REMARK                         _______ _______ _______ _____ _____    ______ ____
ROOT
ATOM      1  C   UNL     1      51.229   2.376  17.406  0.00  0.00    +0.000 A 
ATOM      2  C   UNL     1      49.862   2.198  17.263  0.00  0.00    +0.000 A 
ATOM      3  C   UNL     1      49.053   3.330  17.201  0.00  0.00    +0.000 A 
ATOM      4  C   UNL     1      49.633   4.596  17.298  0.00  0.00    +0.000 A 
ATOM      5  C   UNL     1      51.009   4.657  17.501  0.00  0.00    +0.000 A 
ATOM      6  N   UNL     1      51.821   3.578  17.549  0.00  0.00    +0.000 NA
ENDROOT
BRANCH   1   7
ATOM      7  O   UNL     1      52.004   1.239  17.401  0.00  0.00    +0.000 OA
BRANCH   7   8
ATOM      8  C   UNL     1      53.256   1.432  18.060  0.00  0.00    +0.000 C 
BRANCH   8  10
ATOM      9  O   UNL     1      55.038   0.952  16.476  0.00  0.00    +0.000 OA
ATOM     10  C   UNL     1      54.294   0.560  17.375  0.00  0.00    +0.000 C 
BRANCH  10  11
ATOM     11  C   UNL     1      54.418  -0.836  17.855  0.00  0.00    +0.000 A 
ATOM     12  C   UNL     1      54.997  -1.794  17.035  0.00  0.00    +0.000 A 
ATOM     13  N   UNL     1      55.143  -3.090  17.419  0.00  0.00    +0.000 NA
ATOM     14  C   UNL     1      54.682  -3.381  18.655  0.00  0.00    +0.000 A 
ATOM     15  C   UNL     1      54.104  -2.423  19.474  0.00  0.00    +0.000 A 
ATOM     16  N   UNL     1      53.958  -1.130  19.100  0.00  0.00    +0.000 NA
ENDBRANCH  10  11
ENDBRANCH   8  10
ENDBRANCH   7   8
ENDBRANCH   1   7
BRANCH   4  17
ATOM     17  C   UNL     1      48.820   5.853  17.216  0.00  0.00    +0.000 C 
BRANCH  17  18
ATOM     18  N   UNL     1      47.922   5.832  16.091  0.00  0.00    +0.000 N 
ATOM     19  C   UNL     1      48.335   6.265  14.857  0.00  0.00    +0.000 C 
ATOM     20  O   UNL     1      49.488   6.639  14.654  0.00  0.00    +0.000 OA
ATOM     21  H   UNL     1      46.928   5.742  16.280  0.00  0.00    +0.000 HD
BRANCH  19  22
ATOM     22  C   UNL     1      47.348   6.207  13.772  0.00  0.00    +0.000 A 
ATOM     23  C   UNL     1      46.964   7.377  13.131  0.00  0.00    +0.000 A 
ATOM     24  S   UNL     1      45.842   7.129  11.871  0.00  0.00    +0.000 S 
ATOM     25  C   UNL     1      45.789   5.455  12.174  0.00  0.00    +0.000 A 
ATOM     26  N   UNL     1      44.976   4.640  11.451  0.00  0.00    +0.000 NA
ATOM     27  C   UNL     1      45.005   3.400  11.813  0.00  0.00    +0.000 A 
ATOM     28  N   UNL     1      45.782   2.901  12.828  0.00  0.00    +0.000 N 
ATOM     29  C   UNL     1      46.648   3.678  13.555  0.00  0.00    +0.000 A 
ATOM     30  O   UNL     1      47.376   3.194  14.417  0.00  0.00    +0.000 OA
ATOM     31  C   UNL     1      46.633   5.085  13.208  0.00  0.00    +0.000 A 
ATOM     32  H   UNL     1      45.767   1.917  13.051  0.00  0.00    +0.000 HD
ENDBRANCH  19  22
ENDBRANCH  17  18
ENDBRANCH   4  17
TORSDOF 7
ENDMDL
MODEL 6
REMARK VINA RESULT:    -6.781      1.744      2.279
REMARK INTER + INTRA:         -10.658
REMARK INTER:                  -9.528
REMARK INTRA:                  -1.130
REMARK UNBOUND:                -1.102
REMARK  Name = 
REMARK  7 active torsions:
REMARK  status: ('A' for Active; 'I' for Inactive)
REMARK    1  A    between atoms: C_2  and  C_3
REMARK    2  A    between atoms: C_2  and  C_25
REMARK    3  A    between atoms: C_3  and  O_4
REMARK    4  A    between atoms: O_4  and  C_5
REMARK    5  A    between atoms: C_8  and  C_9
REMARK    6  A    between atoms: C_9  and  N_10
REMARK    7  A    between atoms: C_11  and  C_13
REMARK                            x       y       z     vdW  Elec       q    Type
REMARK                         _______ _______ _______ _____ _____    ______ ____
ROOT
ATOM      1  C   UNL     1      45.073   6.015  12.354  0.00  0.00    +0.000 A 
ATOM      2  C   UNL     1      46.212   5.331  12.750  0.00  0.00    +0.000 A 
ATOM      3  C   UNL     1      47.373   6.064  12.985  0.00  0.00    +0.000 A 
ATOM      4  C   UNL     1      47.361   7.449  12.804  0.00  0.00    +0.000 A 
ATOM      5  C   UNL     1      46.179   8.025  12.345  0.00  0.00    +0.000 A 
ATOM      6  N   UNL     1      45.033   7.343  12.125  0.00  0.00    +0.000 NA
ENDROOT
BRANCH   1   7
ATOM      7  O   UNL     1      43.929   5.268  12.192  0.00  0.00    +0.000 OA
BRANCH   7   8
ATOM      8  C   UNL     1      43.599   5.074  10.816  0.00  0.00    +0.000 C 
BRANCH   8  10
ATOM      9  O   UNL     1      43.295   2.668  11.010  0.00  0.00    +0.000 OA
ATOM     10  C   UNL     1      43.857   3.618  10.465  0.00  0.00    +0.000 C 
BRANCH  10  11
ATOM     11  C   UNL     1      44.829   3.354   9.380  0.00  0.00    +0.000 A 
ATOM     12  C   UNL     1      45.312   4.409   8.619  0.00  0.00    +0.000 A 
ATOM     13  N   UNL     1      46.208   4.231   7.612  0.00  0.00    +0.000 NA
ATOM     14  C   UNL     1      46.596   2.954   7.403  0.00  0.00    +0.000 A 
ATOM     15  C   UNL     1      46.115   1.900   8.165  0.00  0.00    +0.000 A 
ATOM     16  N   UNL     1      45.224   2.070   9.171  0.00  0.00    +0.000 NA
ENDBRANCH  10  11
ENDBRANCH   8  10
ENDBRANCH   7   8
ENDBRANCH   1   7
BRANCH   4  17
ATOM     17  C   UNL     1      48.570   8.296  13.062  0.00  0.00    +0.000 C 
BRANCH  17  18
ATOM     18  N   UNL     1      49.471   7.668  13.992  0.00  0.00    +0.000 N 
ATOM     19  C   UNL     1      49.391   7.936  15.335  0.00  0.00    +0.000 C 
ATOM     20  O   UNL     1      48.528   8.678  15.797  0.00  0.00    +0.000 OA
ATOM     21  H   UNL     1      50.312   7.237  13.619  0.00  0.00    +0.000 HD
BRANCH  19  22
ATOM     22  C   UNL     1      50.353   7.247  16.203  0.00  0.00    +0.000 A 
ATOM     23  C   UNL     1      51.593   7.823  16.444  0.00  0.00    +0.000 A 
ATOM     24  S   UNL     1      52.574   6.916  17.504  0.00  0.00    +0.000 S 
ATOM     25  C   UNL     1      51.396   5.694  17.635  0.00  0.00    +0.000 A 
ATOM     26  N   UNL     1      51.623   4.583  18.385  0.00  0.00    +0.000 NA
ATOM     27  C   UNL     1      50.662   3.720  18.364  0.00  0.00    +0.000 A 
ATOM     28  N   UNL     1      49.491   3.873  17.667  0.00  0.00    +0.000 N 
ATOM     29  C   UNL     1      49.201   4.995  16.932  0.00  0.00    +0.000 A 
ATOM     30  O   UNL     1      48.119   5.132  16.368  0.00  0.00    +0.000 OA
ATOM     31  C   UNL     1      50.260   5.985  16.899  0.00  0.00    +0.000 A 
ATOM     32  H   UNL     1      48.772   3.164  17.705  0.00  0.00    +0.000 HD
ENDBRANCH  19  22
ENDBRANCH  17  18
ENDBRANCH   4  17
TORSDOF 7
ENDMDL
MODEL 7
REMARK VINA RESULT:    -6.626      3.910      8.673
REMARK INTER + INTRA:         -10.439
REMARK INTER:                  -9.191
REMARK INTRA:                  -1.248
REMARK UNBOUND:                -1.102
REMARK  Name = 
REMARK  7 active torsions:
REMARK  status: ('A' for Active; 'I' for Inactive)
REMARK    1  A    between atoms: C_2  and  C_3
REMARK    2  A    between atoms: C_2  and  C_25
REMARK    3  A    between atoms: C_3  and  O_4
REMARK    4  A    between atoms: O_4  and  C_5
REMARK    5  A    between atoms: C_8  and  C_9
REMARK    6  A    between atoms: C_9  and  N_10
REMARK    7  A    between atoms: C_11  and  C_13
REMARK                            x       y       z     vdW  Elec       q    Type
REMARK                         _______ _______ _______ _____ _____    ______ ____
ROOT
ATOM      1  C   UNL     1      51.227   4.061  18.002  0.00  0.00    +0.000 A 
ATOM      2  C   UNL     1      50.954   2.821  17.448  0.00  0.00    +0.000 A 
ATOM      3  C   UNL     1      49.647   2.550  17.052  0.00  0.00    +0.000 A 
ATOM      4  C   UNL     1      48.657   3.517  17.236  0.00  0.00    +0.000 A 
ATOM      5  C   UNL     1      49.030   4.706  17.858  0.00  0.00    +0.000 A 
ATOM      6  N   UNL     1      50.293   5.004  18.238  0.00  0.00    +0.000 NA
ENDROOT
BRANCH   1   7
ATOM      7  O   UNL     1      52.540   4.318  18.324  0.00  0.00    +0.000 OA
BRANCH   7   8
ATOM      8  C   UNL     1      52.873   5.700  18.181  0.00  0.00    +0.000 C 
BRANCH   8  10
ATOM      9  O   UNL     1      54.681   5.282  16.609  0.00  0.00    +0.000 OA
ATOM     10  C   UNL     1      53.636   5.873  16.879  0.00  0.00    +0.000 C 
BRANCH  10  11
ATOM     11  C   UNL     1      53.052   6.796  15.879  0.00  0.00    +0.000 A 
ATOM     12  C   UNL     1      53.862   7.338  14.890  0.00  0.00    +0.000 A 
ATOM     13  N   UNL     1      53.385   8.187  13.941  0.00  0.00    +0.000 NA
ATOM     14  C   UNL     1      52.067   8.469  14.029  0.00  0.00    +0.000 A 
ATOM     15  C   UNL     1      51.258   7.928  15.017  0.00  0.00    +0.000 A 
ATOM     16  N   UNL     1      51.725   7.079  15.964  0.00  0.00    +0.000 NA
ENDBRANCH  10  11
ENDBRANCH   8  10
ENDBRANCH   7   8
ENDBRANCH   1   7
BRANCH   4  17
ATOM     17  C   UNL     1      47.237   3.295  16.810  0.00  0.00    +0.000 C 
BRANCH  17  18
ATOM     18  N   UNL     1      46.794   4.308  15.888  0.00  0.00    +0.000 N 
ATOM     19  C   UNL     1      46.852   4.096  14.534  0.00  0.00    +0.000 C 
ATOM     20  O   UNL     1      47.237   3.030  14.061  0.00  0.00    +0.000 OA
ATOM     21  H   UNL     1      46.686   5.254  16.240  0.00  0.00    +0.000 HD
BRANCH  19  22
ATOM     22  C   UNL     1      46.378   5.188  13.675  0.00  0.00    +0.000 A 
ATOM     23  C   UNL     1      47.167   6.317  13.504  0.00  0.00    +0.000 A 
ATOM     24  S   UNL     1      46.489   7.471  12.446  0.00  0.00    +0.000 S 
ATOM     25  C   UNL     1      45.092   6.524  12.222  0.00  0.00    +0.000 A 
ATOM     26  N   UNL     1      44.072   6.961  11.437  0.00  0.00    +0.000 NA
ATOM     27  C   UNL     1      43.058   6.162  11.388  0.00  0.00    +0.000 A 
ATOM     28  N   UNL     1      42.977   4.962  12.047  0.00  0.00    +0.000 N 
ATOM     29  C   UNL     1      43.998   4.462  12.815  0.00  0.00    +0.000 A 
ATOM     30  O   UNL     1      43.923   3.357  13.344  0.00  0.00    +0.000 OA
ATOM     31  C   UNL     1      45.151   5.333  12.927  0.00  0.00    +0.000 A 
ATOM     32  H   UNL     1      42.158   4.377  11.954  0.00  0.00    +0.000 HD
ENDBRANCH  19  22
ENDBRANCH  17  18
ENDBRANCH   4  17
TORSDOF 7
ENDMDL
MODEL 8
REMARK VINA RESULT:    -6.432      3.350      5.290
REMARK INTER + INTRA:         -10.165
REMARK INTER:                  -9.598
REMARK INTRA:                  -0.567
REMARK UNBOUND:                -1.102
REMARK  Name = 
REMARK  7 active torsions:
REMARK  status: ('A' for Active; 'I' for Inactive)
REMARK    1  A    between atoms: C_2  and  C_3
REMARK    2  A    between atoms: C_2  and  C_25
REMARK    3  A    between atoms: C_3  and  O_4
REMARK    4  A    between atoms: O_4  and  C_5
REMARK    5  A    between atoms: C_8  and  C_9
REMARK    6  A    between atoms: C_9  and  N_10
REMARK    7  A    between atoms: C_11  and  C_13
REMARK                            x       y       z     vdW  Elec       q    Type
REMARK                         _______ _______ _______ _____ _____    ______ ____
ROOT
ATOM      1  C   UNL     1      47.442   5.391  13.992  0.00  0.00    +0.000 A 
ATOM      2  C   UNL     1      48.063   6.077  15.024  0.00  0.00    +0.000 A 
ATOM      3  C   UNL     1      48.265   5.411  16.230  0.00  0.00    +0.000 A 
ATOM      4  C   UNL     1      47.829   4.091  16.370  0.00  0.00    +0.000 A 
ATOM      5  C   UNL     1      47.163   3.519  15.288  0.00  0.00    +0.000 A 
ATOM      6  N   UNL     1      46.968   4.134  14.101  0.00  0.00    +0.000 NA
ENDROOT
BRANCH   1   7
ATOM      7  O   UNL     1      47.316   6.058  12.795  0.00  0.00    +0.000 OA
BRANCH   7   8
ATOM      8  C   UNL     1      46.139   6.866  12.747  0.00  0.00    +0.000 C 
BRANCH   8  10
ATOM      9  O   UNL     1      44.033   5.795  13.325  0.00  0.00    +0.000 OA
ATOM     10  C   UNL     1      44.945   5.955  12.514  0.00  0.00    +0.000 C 
BRANCH  10  11
ATOM     11  C   UNL     1      44.886   5.247  11.215  0.00  0.00    +0.000 A 
ATOM     12  C   UNL     1      43.969   4.221  11.034  0.00  0.00    +0.000 A 
ATOM     13  N   UNL     1      43.863   3.537   9.864  0.00  0.00    +0.000 NA
ATOM     14  C   UNL     1      44.716   3.924   8.889  0.00  0.00    +0.000 A 
ATOM     15  C   UNL     1      45.631   4.949   9.071  0.00  0.00    +0.000 A 
ATOM     16  N   UNL     1      45.740   5.638  10.232  0.00  0.00    +0.000 NA
ENDBRANCH  10  11
ENDBRANCH   8  10
ENDBRANCH   7   8
ENDBRANCH   1   7
BRANCH   4  17
ATOM     17  C   UNL     1      48.037   3.313  17.633  0.00  0.00    +0.000 C 
BRANCH  17  18
ATOM     18  N   UNL     1      49.435   3.097  17.901  0.00  0.00    +0.000 N 
ATOM     19  C   UNL     1      50.167   2.222  17.140  0.00  0.00    +0.000 C 
ATOM     20  O   UNL     1      49.676   1.629  16.183  0.00  0.00    +0.000 OA
ATOM     21  H   UNL     1      49.796   3.397  18.802  0.00  0.00    +0.000 HD
BRANCH  19  22
ATOM     22  C   UNL     1      51.584   2.069  17.491  0.00  0.00    +0.000 A 
ATOM     23  C   UNL     1      52.116   0.797  17.656  0.00  0.00    +0.000 A 
ATOM     24  S   UNL     1      53.782   0.795  18.021  0.00  0.00    +0.000 S 
ATOM     25  C   UNL     1      53.839   2.496  18.025  0.00  0.00    +0.000 A 
ATOM     26  N   UNL     1      54.993   3.155  18.308  0.00  0.00    +0.000 NA
ATOM     27  C   UNL     1      54.884   4.443  18.315  0.00  0.00    +0.000 A 
ATOM     28  N   UNL     1      53.725   5.129  18.055  0.00  0.00    +0.000 N 
ATOM     29  C   UNL     1      52.548   4.507  17.723  0.00  0.00    +0.000 A 
ATOM     30  O   UNL     1      51.541   5.149  17.436  0.00  0.00    +0.000 OA
ATOM     31  C   UNL     1      52.608   3.059  17.728  0.00  0.00    +0.000 A 
ATOM     32  H   UNL     1      53.712   6.139  18.064  0.00  0.00    +0.000 HD
ENDBRANCH  19  22
ENDBRANCH  17  18
ENDBRANCH   4  17
TORSDOF 7
ENDMDL
MODEL 9
REMARK VINA RESULT:    -6.338      3.928      9.245
REMARK INTER + INTRA:         -10.033
REMARK INTER:                  -8.917
REMARK INTRA:                  -1.116
REMARK UNBOUND:                -1.102
REMARK  Name = 
REMARK  7 active torsions:
REMARK  status: ('A' for Active; 'I' for Inactive)
REMARK    1  A    between atoms: C_2  and  C_3
REMARK    2  A    between atoms: C_2  and  C_25
REMARK    3  A    between atoms: C_3  and  O_4
REMARK    4  A    between atoms: O_4  and  C_5
REMARK    5  A    between atoms: C_8  and  C_9
REMARK    6  A    between atoms: C_9  and  N_10
REMARK    7  A    between atoms: C_11  and  C_13
REMARK                            x       y       z     vdW  Elec       q    Type
REMARK                         _______ _______ _______ _____ _____    ______ ____
ROOT
ATOM      1  C   UNL     1      49.013   5.583  19.869  0.00  0.00    +0.000 A 
ATOM      2  C   UNL     1      49.851   4.684  19.228  0.00  0.00    +0.000 A 
ATOM      3  C   UNL     1      49.363   4.006  18.114  0.00  0.00    +0.000 A 
ATOM      4  C   UNL     1      48.053   4.237  17.687  0.00  0.00    +0.000 A 
ATOM      5  C   UNL     1      47.279   5.116  18.441  0.00  0.00    +0.000 A 
ATOM      6  N   UNL     1      47.730   5.800  19.516  0.00  0.00    +0.000 NA
ENDROOT
BRANCH   1   7
ATOM      7  O   UNL     1      49.548   6.281  20.927  0.00  0.00    +0.000 OA
BRANCH   7   8
ATOM      8  C   UNL     1      49.262   7.679  20.855  0.00  0.00    +0.000 C 
BRANCH   8  10
ATOM      9  O   UNL     1      51.392   8.395  19.925  0.00  0.00    +0.000 OA
ATOM     10  C   UNL     1      50.171   8.297  19.806  0.00  0.00    +0.000 C 
BRANCH  10  11
ATOM     11  C   UNL     1      49.527   8.781  18.564  0.00  0.00    +0.000 A 
ATOM     12  C   UNL     1      49.714   8.084  17.378  0.00  0.00    +0.000 A 
ATOM     13  N   UNL     1      49.147   8.475  16.206  0.00  0.00    +0.000 NA
ATOM     14  C   UNL     1      48.390   9.592  16.275  0.00  0.00    +0.000 A 
ATOM     15  C   UNL     1      48.203  10.288  17.460  0.00  0.00    +0.000 A 
ATOM     16  N   UNL     1      48.762   9.903  18.632  0.00  0.00    +0.000 NA
ENDBRANCH  10  11
ENDBRANCH   8  10
ENDBRANCH   7   8
ENDBRANCH   1   7
BRANCH   4  17
ATOM     17  C   UNL     1      47.477   3.557  16.483  0.00  0.00    +0.000 C 
BRANCH  17  18
ATOM     18  N   UNL     1      46.848   4.496  15.591  0.00  0.00    +0.000 N 
ATOM     19  C   UNL     1      46.772   4.242  14.246  0.00  0.00    +0.000 C 
ATOM     20  O   UNL     1      47.192   3.195  13.760  0.00  0.00    +0.000 OA
ATOM     21  H   UNL     1      46.699   5.442  15.929  0.00  0.00    +0.000 HD
BRANCH  19  22
ATOM     22  C   UNL     1      46.113   5.260  13.419  0.00  0.00    +0.000 A 
ATOM     23  C   UNL     1      46.753   6.468  13.179  0.00  0.00    +0.000 A 
ATOM     24  S   UNL     1      45.870   7.521  12.169  0.00  0.00    +0.000 S 
ATOM     25  C   UNL     1      44.577   6.420  12.060  0.00  0.00    +0.000 A 
ATOM     26  N   UNL     1      43.456   6.726  11.354  0.00  0.00    +0.000 NA
ATOM     27  C   UNL     1      42.539   5.817  11.390  0.00  0.00    +0.000 A 
ATOM     28  N   UNL     1      42.646   4.626  12.060  0.00  0.00    +0.000 N 
ATOM     29  C   UNL     1      43.773   4.256  12.751  0.00  0.00    +0.000 A 
ATOM     30  O   UNL     1      43.864   3.158  13.291  0.00  0.00    +0.000 OA
ATOM     31  C   UNL     1      44.824   5.254  12.766  0.00  0.00    +0.000 A 
ATOM     32  H   UNL     1      41.894   3.951  12.036  0.00  0.00    +0.000 HD
ENDBRANCH  19  22
ENDBRANCH  17  18
ENDBRANCH   4  17
TORSDOF 7
ENDMDL
